data_image0
_chemical_formula_structural       NiH28C20N4O8
_chemical_formula_sum              "Ni1 H28 C20 N4 O8"
_cell_length_a       7.949743298591878
_cell_length_b       7.9684226189452625
_cell_length_c       9.469033378623209
_cell_angle_alpha    69.23604512399761
_cell_angle_beta     82.3429634171626
_cell_angle_gamma    73.60292163283479

_space_group_name_H-M_alt    "P 1"
_space_group_IT_number       1

loop_
  _space_group_symop_operation_xyz
  'x, y, z'

loop_
  _atom_site_type_symbol
  _atom_site_label
  _atom_site_symmetry_multiplicity
  _atom_site_fract_x
  _atom_site_fract_y
  _atom_site_fract_z
  _atom_site_occupancy
  Ni  Ni1       1.0  1.3413581214677756e-06  0.999999365281127  1.2787920624381985e-06  1.0000
  H   H1        1.0  0.11138927661605888  0.8374474123696912  0.2642274154732789  1.0000
  H   H2        1.0  0.888616411621541  0.1625531799910078  0.735775167937902  1.0000
  H   H3        1.0  0.028238654564482588  0.7333500772202085  0.9120339488624791  1.0000
  H   H4        1.0  0.9717689189052836  0.2666475624314941  0.08796729764019769  1.0000
  H   H5        1.0  0.2869623343239455  0.5398679336175434  0.2535497315706649  1.0000
  H   H6        1.0  0.7130434064868609  0.4601380165152591  0.7464488912165447  1.0000
  H   H7        1.0  0.2976635171129232  0.6440822955648996  0.0536852791972038  1.0000
  H   H8        1.0  0.7023368165291687  0.35592538945216035  0.9463165943687739  1.0000
  H   H9        1.0  0.0567500080363317  0.4690574893740873  0.14626470306289005  1.0000
  H   H10       1.0  0.9432601175988611  0.5309400894927094  0.8537362467644337  1.0000
  H   H11       1.0  0.95360309005153  0.6270703265444837  0.24139326848791132  1.0000
  H   H12       1.0  0.04640254127068742  0.37292452765367295  0.7586081176906273  1.0000
  H   H13       1.0  0.7001551699646811  0.7982921433320983  0.09568527389904342  1.0000
  H   H14       1.0  0.2998482172405729  0.20170161480504586  0.9043199409547285  1.0000
  H   H15       1.0  0.7543842073763471  0.6230045055315402  0.011426692837609677  1.0000
  H   H16       1.0  0.24562300460330985  0.37698885711589003  0.9885739507178357  1.0000
  H   H17       1.0  0.5693367310356479  0.8802768635114758  0.8360217690403499  1.0000
  H   H18       1.0  0.4306727845816597  0.1197235615937728  0.16397933778647192  1.0000
  H   H19       1.0  0.7811772478676673  0.8806129046507607  0.7542551480506458  1.0000
  H   H20       1.0  0.2188258890729387  0.1193878245729252  0.24574876360721015  1.0000
  H   H21       1.0  0.4240423176986783  0.803567450428112  0.25566075606838706  1.0000
  H   H22       1.0  0.575961737308276  0.19642927571120336  0.7443465305898512  1.0000
  H   H23       1.0  0.4159907769238984  0.8772624645412462  0.055428479076198266  1.0000
  H   H24       1.0  0.5840158276431853  0.12273397257889941  0.9445754161927127  1.0000
  H   H25       1.0  0.8761755461802281  0.4490859255647308  0.48295308809356624  1.0000
  H   H26       1.0  0.1238132879540288  0.5509207396569238  0.5170325837990218  1.0000
  H   H27       1.0  0.5039431039595925  0.32847542369459853  0.3663688215767279  1.0000
  H   H28       1.0  0.49604793127120683  0.6715278166749243  0.6336283295491539  1.0000
  C   C1        1.0  0.215140189395278  0.6468954202766993  0.1562797380602419  1.0000
  C   C2        1.0  0.7848636101364193  0.35310782048063766  0.8437200559741528  1.0000
  C   C3        1.0  0.04022624769169171  0.6115688234030898  0.1442892387589935  1.0000
  C   C4        1.0  0.9597835733687744  0.3884302166219769  0.8557123053537407  1.0000
  C   C5        1.0  0.7710680198664337  0.7608014771224134  0.9989465451109039  1.0000
  C   C6        1.0  0.22893317232131952  0.2391962384134629  0.0010544115088463595  1.0000
  C   C7        1.0  0.6948304075268154  0.903452268405296  0.8506024898762087  1.0000
  C   C8        1.0  0.30517650335185914  0.0965428597127627  0.14940287424993667  1.0000
  C   C9        1.0  0.3420622945446681  0.894445979341903  0.15806448143330704  1.0000
  C   C10       1.0  0.6579446163340067  0.10554914877614861  0.8419408826928388  1.0000
  C   C11       1.0  0.6408523973286792  0.045667807389690986  0.39808254580616137  1.0000
  C   C12       1.0  0.35914021855956696  0.9543339414291127  0.6019138626966266  1.0000
  C   C13       1.0  0.6397287813408282  0.858900211414671  0.47574966002179025  1.0000
  C   C14       1.0  0.3602660321702231  0.14109780823964974  0.5242541014289941  1.0000
  C   C15       1.0  0.501988417253564  0.18430751390757646  0.42631605239584036  1.0000
  C   C16       1.0  0.49800541953888483  0.8156886185124037  0.5736810736792743  1.0000
  C   C17       1.0  0.77177384435997  0.1025659028428265  0.2699445737900774  1.0000
  C   C18       1.0  0.22821877326514076  0.8974359981321528  0.7300538978553558  1.0000
  C   C19       1.0  0.7973951284336492  0.7057710300197615  0.47153516266182977  1.0000
  C   C20       1.0  0.2025990655067247  0.29422899901405936  0.5284574085039039  1.0000
  N   N1        1.0  0.1816050083411439  0.8343083362685347  0.16560638599365507  1.0000
  N   N2        1.0  0.8183958818771941  0.1656910686598749  0.8343982596254731  1.0000
  N   N3        1.0  0.9560880718124594  0.7523676204784239  0.007848960130033257  1.0000
  N   N4        1.0  0.04391567340915971  0.2476301103506344  0.9921527313856799  1.0000
  O   O1        1.0  0.808108219041479  0.0020945817825292977  0.18395244621419232  1.0000
  O   O2        1.0  0.191877353842095  0.9979048074648915  0.8160488216004608  1.0000
  O   O3        1.0  0.8233524175761319  0.24405107871085355  0.2532877382027505  1.0000
  O   O4        1.0  0.17664311370452168  0.7559550384834849  0.7467110397145615  1.0000
  O   O5        1.0  0.9480901162942391  0.7193951128862821  0.4787190894587494  1.0000
  O   O6        1.0  0.05189417790131761  0.2806040785193317  0.5212792319796121  1.0000
  O   O7        1.0  0.7629016345730549  0.5528979235885102  0.4699618276471327  1.0000
  O   O8        1.0  0.23708239893662864  0.4471073259665985  0.5300228117394352  1.0000
