data_image0
_chemical_formula_structural       Ba2H20C12N16O24
_chemical_formula_sum              "Ba2 H20 C12 N16 O24"
_cell_length_a       6.498130408413025
_cell_length_b       10.011672541627004
_cell_length_c       13.468464141272895
_cell_angle_alpha    74.87975527048205
_cell_angle_beta     76.00116695835965
_cell_angle_gamma    71.07423538582799

_space_group_name_H-M_alt    "P 1"
_space_group_IT_number       1

loop_
  _space_group_symop_operation_xyz
  'x, y, z'

loop_
  _atom_site_type_symbol
  _atom_site_label
  _atom_site_symmetry_multiplicity
  _atom_site_fract_x
  _atom_site_fract_y
  _atom_site_fract_z
  _atom_site_occupancy
  Ba  Ba1       1.0  0.7745890994639455  0.2500107786187797  0.7500109853384272  1.0000
  Ba  Ba2       1.0  0.22541166864529327  0.7499887023208274  0.2499885317815753  1.0000
  H   H1        1.0  0.23973352211981366  0.465132778097548  0.7700838059149503  1.0000
  H   H2        1.0  0.4747452138395046  0.035037630335999395  0.7300362113465297  1.0000
  H   H3        1.0  0.7602646391604043  0.5348677784090301  0.2299161137954613  1.0000
  H   H4        1.0  0.5252529474407127  0.9649629261705854  0.26996370836388195  1.0000
  H   H5        1.0  0.3085672855677259  0.40130651011563145  0.8824807818019309  1.0000
  H   H6        1.0  0.5924080357583609  0.09868893352635412  0.6176030064055738  1.0000
  H   H7        1.0  0.6914308757124845  0.5986940463909534  0.11751913790848084  1.0000
  H   H8        1.0  0.4075933859059475  0.9013105448512347  0.3823974395438441  1.0000
  H   H9        1.0  0.24451692773475753  0.14354301768293712  0.4998464966788632  1.0000
  H   H10       1.0  0.8879356900775904  0.35681343178143987  2.268479713048154e-05  1.0000
  H   H11       1.0  0.7554833787191411  0.8564575406573027  0.5001528668703088  1.0000
  H   H12       1.0  0.1120650780316482  0.6431860491581675  0.9999768323228648  1.0000
  H   H13       1.0  0.17316088170382218  0.24104013655677656  0.8543183955452989  1.0000
  H   H14       1.0  0.2686444573356612  0.25904783751161636  0.6456642338742781  1.0000
  H   H15       1.0  0.826842777388414  0.7589593484143293  0.14567982291812598  1.0000
  H   H16       1.0  0.7313558491182378  0.7409527208286236  0.3543351296748938  1.0000
  H   H17       1.0  0.17796181180968787  0.07669134387558782  0.8928126762464785  1.0000
  H   H18       1.0  0.1477237901583306  0.42339357297357355  0.6072096367381761  1.0000
  H   H19       1.0  0.822041101473239  0.9233081388976746  0.10718628471228438  1.0000
  H   H20       1.0  0.852276516295568  0.5766069853666594  0.39278972681099583  1.0000
  C   C1        1.0  0.20921329551797635  0.043339894644432796  0.5432908419956846  1.0000
  C   C2        1.0  0.7956855324806182  0.45692354630576665  0.9566276509058511  1.0000
  C   C3        1.0  0.7907881261463247  0.9566595837331564  0.45670960395374033  1.0000
  C   C4        1.0  0.2043140281639709  0.5430770098366295  0.04337245513865181  1.0000
  C   C5        1.0  0.10058150724549364  0.8890041377107213  0.669594649096048  1.0000
  C   C6        1.0  0.6587432447556196  0.6110824739565573  0.8304558758572398  1.0000
  C   C7        1.0  0.8994199144188072  0.11099534066687515  0.3304057968533698  1.0000
  C   C8        1.0  0.3412553781799377  0.3889170051493949  0.1695441974239955  1.0000
  C   C9        1.0  0.2023034895364973  0.8237189727360745  0.581545931343939  1.0000
  C   C10       1.0  0.6070833742763359  0.6764081279624393  0.9184652814056804  1.0000
  C   C11       1.0  0.7976953252987755  0.17628158120849238  0.4184549171958949  1.0000
  C   C12       1.0  0.39291618636824666  0.323592428179964  0.0815348246388226  1.0000
  N   N1        1.0  0.10322503992003361  0.027684830099410404  0.6437104148270478  1.0000
  N   N2        1.0  0.7743664984847313  0.4724675041274438  0.8562841187191168  1.0000
  N   N3        1.0  0.8967777811086394  0.9723146479139972  0.3562902174564684  1.0000
  N   N4        1.0  0.2256321244508257  0.5275319749785085  0.14371595456212558  1.0000
  N   N5        1.0  0.26906055234274345  0.9244921298746932  0.502539576603823  1.0000
  N   N6        1.0  0.6958062209926724  0.5757364839705873  0.9973944544479281  1.0000
  N   N7        1.0  0.7309430144952457  0.0755073503365509  0.4974603131843622  1.0000
  N   N8        1.0  0.3041938013072567  0.4242629947711904  0.002605805167398488  1.0000
  N   N9        1.0  0.015592552800427576  0.8334625345096712  0.7755146497949568  1.0000
  N   N10       1.0  0.6243594041290308  0.6665442482382177  0.7245471062896627  1.0000
  N   N11       1.0  0.9844060701351225  0.16653694459628102  0.22448542348628567  1.0000
  N   N12       1.0  0.3756401565155517  0.33345630790417863  0.2754529997548402  1.0000
  N   N13       1.0  0.2163125027139471  0.6883221881667442  0.5618163276214146  1.0000
  N   N14       1.0  0.4661168156040104  0.8117843618248985  0.9382550428108446  1.0000
  N   N15       1.0  0.7836907799700729  0.31167621244604504  0.4381844582329251  1.0000
  N   N16       1.0  0.5338822689868935  0.18821403988042817  0.06174518404122151  1.0000
  O   O1        1.0  0.874660926462184  0.9201376371351698  0.8268124203970403  1.0000
  O   O2        1.0  0.6216728126557457  0.5797914359737393  0.6732739374648702  1.0000
  O   O3        1.0  0.12533769647337323  0.07986184197078221  0.17318765288419508  1.0000
  O   O4        1.0  0.37832703214280655  0.4202101997671335  0.32672527251347816  1.0000
  O   O5        1.0  0.07841166692145417  0.17435812533438622  0.8786214406774205  1.0000
  O   O6        1.0  0.1316643156944296  0.3257090577968711  0.6213203645961869  1.0000
  O   O7        1.0  0.9215925460803759  0.8256402869959417  0.12137526003208875  1.0000
  O   O8        1.0  0.8683364524148088  0.674290423142736  0.37867915252381584  1.0000
  O   O9        1.0  0.09026717056492112  0.7033837071098574  0.8122577306204449  1.0000
  O   O10       1.0  0.6057074576988911  0.7966286829093577  0.6877802436070581  1.0000
  O   O11       1.0  0.9097333133903547  0.2966146942312875  0.1877426825657125  1.0000
  O   O12       1.0  0.39429210294569816  0.20337187323303857  0.3122198624374448  1.0000
  O   O13       1.0  0.319620451583504  0.3772082207750387  0.8124364991498679  1.0000
  O   O14       1.0  0.5093158765770411  0.12291873965833842  0.6876428135856187  1.0000
  O   O15       1.0  0.6803791090610789  0.6227923353673646  0.18756360689463486  1.0000
  O   O16       1.0  0.4906844298768577  0.8770818186819018  0.3123565499635532  1.0000
  O   O17       1.0  0.12934885828089907  0.6035282808338566  0.6325701887760218  1.0000
  O   O18       1.0  0.3652259485886944  0.8966452876251482  0.8675669955136414  1.0000
  O   O19       1.0  0.870649956554381  0.3964722731107102  0.3674306597638122  1.0000
  O   O20       1.0  0.6347733279019182  0.1033541889187859  0.13243400659702334  1.0000
  O   O21       1.0  0.3090167030663408  0.6600353100129297  0.47434081577075204  1.0000
  O   O22       1.0  0.4431372804167141  0.8400269822901693  0.025722369309477175  1.0000
  O   O23       1.0  0.6909884406373906  0.3399620128350449  0.5256603099885027  1.0000
  O   O24       1.0  0.5568624577292455  0.15997141685313213  0.9742787863720181  1.0000
