data_image0
_chemical_formula_structural       Ni2H32C24N12
_chemical_formula_sum              "Ni2 H32 C24 N12"
_cell_length_a       8.730047348050217
_cell_length_b       8.759561897848322
_cell_length_c       10.974337067520748
_cell_angle_alpha    106.65225435616858
_cell_angle_beta     110.21942786252158
_cell_angle_gamma    100.62026566316653

_space_group_name_H-M_alt    "P 1"
_space_group_IT_number       1

loop_
  _space_group_symop_operation_xyz
  'x, y, z'

loop_
  _atom_site_type_symbol
  _atom_site_label
  _atom_site_symmetry_multiplicity
  _atom_site_fract_x
  _atom_site_fract_y
  _atom_site_fract_z
  _atom_site_occupancy
  Ni  Ni1       1.0  1.1844945006978357e-06  7.506615681098795e-06  0.9999983042008366  1.0000
  Ni  Ni2       1.0  0.9999994318811501  5.572083167981888e-07  0.5000010048050355  1.0000
  H   H1        1.0  0.29180646674400623  0.0424079545235827  0.7999290527989585  1.0000
  H   H2        1.0  0.7081842247910402  0.9575861956036321  0.20007124979412788  1.0000
  H   H3        1.0  0.5470257881156613  0.8957165135913957  0.7905154903384286  1.0000
  H   H4        1.0  0.4529744242275271  0.10429142699918974  0.20949505979826447  1.0000
  H   H5        1.0  0.21451786569111425  0.8257045509609854  0.3782596848066362  1.0000
  H   H6        1.0  0.7854801960278835  0.17428955792616566  0.6217452777229084  1.0000
  H   H7        1.0  0.5203500071495599  0.6437043060239706  0.5636846855989646  1.0000
  H   H8        1.0  0.47965635747100066  0.35630360136530465  0.43633020650523946  1.0000
  H   H9        1.0  0.6393880794974721  0.820629611873777  0.5520398771399754  1.0000
  H   H10       1.0  0.36061526884522266  0.17937703740432917  0.4479666410506766  1.0000
  H   H11       1.0  0.5002961111763965  0.5758669190138691  0.321424699518424  1.0000
  H   H12       1.0  0.4997142778633759  0.4241384428051875  0.6785897491242635  1.0000
  H   H13       1.0  0.419021249014655  0.7429855838108353  0.30482470730589745  1.0000
  H   H14       1.0  0.5809837709762818  0.25701477296319564  0.6951844393811655  1.0000
  H   H15       1.0  0.29370355668742576  0.565155104743937  0.3153911387571  1.0000
  H   H16       1.0  0.7063002447798611  0.4348414877342608  0.6846177283597399  1.0000
  H   H17       1.0  0.0927786506699633  0.32722763665769616  0.4472196478936894  1.0000
  H   H18       1.0  0.9072180670364814  0.6727626939487907  0.55277953081999  1.0000
  H   H19       1.0  0.24376031182737276  0.6369061993636649  0.6745041647225206  1.0000
  H   H20       1.0  0.7562342792550394  0.36308916354307297  0.32549015176470414  1.0000
  H   H21       1.0  0.1725372813965862  0.24643037168312537  0.8230769622564508  1.0000
  H   H22       1.0  0.8274647223164848  0.753568726979744  0.17692381051705292  1.0000
  H   H23       1.0  0.4260168722627072  0.6829769903434412  0.9520113621199967  1.0000
  H   H24       1.0  0.5739830251240859  0.3170233706159068  0.0479855042000423  1.0000
  H   H25       1.0  0.332724896955419  0.5267453335386136  0.0017534180434707715  1.0000
  H   H26       1.0  0.6672690370044165  0.47325885393387784  0.9982473242787933  1.0000
  H   H27       1.0  0.23815643373521317  0.7811418805706227  0.06814008886353662  1.0000
  H   H28       1.0  0.7618331399342111  0.21885727051004272  0.9318464957293103  1.0000
  H   H29       1.0  0.058315038671793225  0.604870534451159  0.9403242290641528  1.0000
  H   H30       1.0  0.9416732106657547  0.39511729601048984  0.05965756588453535  1.0000
  H   H31       1.0  0.15003467216568117  0.7623845057424747  0.890857013210649  1.0000
  H   H32       1.0  0.8499519264384432  0.23760961955405702  0.1091230706159081  1.0000
  C   C1        1.0  0.19528722037119192  0.1714903176022063  0.04964897316611432  1.0000
  C   C2        1.0  0.8047171170492291  0.8285238426674444  0.9503476950790527  1.0000
  C   C3        1.0  0.05939514970469872  0.024506376550355907  0.18328769710558387  1.0000
  C   C4        1.0  0.9406051405305008  0.9754990099549731  0.8167086124229641  1.0000
  C   C5        1.0  0.31444769052659893  0.9779089037555483  0.7107214379129018  1.0000
  C   C6        1.0  0.685549070860681  0.022092748516279  0.28927946035317836  1.0000
  C   C7        1.0  0.4417634496309404  0.906372612874364  0.7080614957101686  1.0000
  C   C8        1.0  0.5582386598903497  0.09363404211168812  0.29194378713727076  1.0000
  C   C9        1.0  0.2688899160806457  0.8639052650584064  0.49099595723686207  1.0000
  C   C10       1.0  0.731110148624687  0.13609511454738774  0.5090082480773503  1.0000
  C   C11       1.0  0.5085824863173797  0.7362681110259359  0.5140406323739838  1.0000
  C   C12       1.0  0.4914218131894614  0.2637372909868533  0.4859722264240176  1.0000
  C   C13       1.0  0.4243514462719348  0.6510191320226186  0.3552267443662842  1.0000
  C   C14       1.0  0.5756572071410062  0.34898497063893796  0.644782400454609  1.0000
  C   C15       1.0  0.13119273794347214  0.35699493385742204  0.558409986582376  1.0000
  C   C16       1.0  0.868809306365101  0.6429966247978955  0.4415926977371072  1.0000
  C   C17       1.0  0.2057265738099261  0.509481872018796  0.6693861550123472  1.0000
  C   C18       1.0  0.7942736296806672  0.4905046434904251  0.3306066770126889  1.0000
  C   C19       1.0  0.17197503407766848  0.3066483108106368  0.7494510478375388  1.0000
  C   C20       1.0  0.8280330585512558  0.6933469753239196  0.2505513531793753  1.0000
  C   C21       1.0  0.30376427192722844  0.5977290538301362  0.9334141678226899  1.0000
  C   C22       1.0  0.6962314749343789  0.4022700663800124  0.06657767611194736  1.0000
  C   C23       1.0  0.18005936447848112  0.6911395112762835  0.9589303112760702  1.0000
  C   C24       1.0  0.8199317768821572  0.30885710798085614  0.041054276543114665  1.0000
  N   N1        1.0  0.3194596900064894  0.2791348442754185  0.0774589932145417  1.0000
  N   N2        1.0  0.680534447951331  0.7208705754312278  0.9225329743464883  1.0000
  N   N3        1.0  0.09383463936793389  0.03761606247623211  0.300095387454185  1.0000
  N   N4        1.0  0.9061617836798631  0.962362918495245  0.6998910632158298  1.0000
  N   N5        1.0  0.2077408017740154  0.9504475017491814  0.5743978008381703  1.0000
  N   N6        1.0  0.7922556092115585  0.04955290197285222  0.4256054505692289  1.0000
  N   N7        1.0  0.41015776369531665  0.8343376819039678  0.5683637306601739  1.0000
  N   N8        1.0  0.589847628846279  0.16567147041980954  0.43164390346241543  1.0000
  N   N9        1.0  0.11128824868485052  0.2317371289012159  0.6100768275672123  1.0000
  N   N10       1.0  0.8887153639320076  0.7682556702651554  0.3899238215798846  1.0000
  N   N11       1.0  0.23125167896238707  0.4751208921176088  0.78879286243761  1.0000
  N   N12       1.0  0.7687525932453169  0.5248781718213211  0.21120120727959346  1.0000
