data_image0
_chemical_formula_structural       Zr6H46C88Br10O32
_chemical_formula_sum              "Zr6 H46 C88 Br10 O32"
_cell_length_a       19.209703534044515
_cell_length_b       19.165263630615105
_cell_length_c       19.182722362959883
_cell_angle_alpha    59.51215001716432
_cell_angle_beta     59.893541320973675
_cell_angle_gamma    59.98447403125553

_space_group_name_H-M_alt    "P 1"
_space_group_IT_number       1

loop_
  _space_group_symop_operation_xyz
  'x, y, z'

loop_
  _atom_site_type_symbol
  _atom_site_label
  _atom_site_symmetry_multiplicity
  _atom_site_fract_x
  _atom_site_fract_y
  _atom_site_fract_z
  _atom_site_occupancy
  Zr  Zr1       1.0  0.9072424421599479  0.40852473056033745  0.5914301970295953  1.0000
  Zr  Zr2       1.0  0.0928156110477332  0.5922978985900755  0.4076325427978346  1.0000
  Zr  Zr3       1.0  0.09103058430488897  0.4062965184128942  0.5938135552117032  1.0000
  Zr  Zr4       1.0  0.9088581232729281  0.5946718390638497  0.4054186551966127  1.0000
  Zr  Zr5       1.0  0.9081981894119334  0.5922344539197155  0.5914005946312387  1.0000
  Zr  Zr6       1.0  0.09181210955514273  0.40860133830594236  0.40777441908594625  1.0000
  H   H1        1.0  0.9265971956335337  0.4262912246989999  0.7182041844060338  1.0000
  H   H2        1.0  0.9288882415525851  0.7190616363061295  0.4254990308592641  1.0000
  H   H3        1.0  0.21721089512614353  0.42713171828908986  0.4280612617024175  1.0000
  H   H4        1.0  0.9275806369243041  0.42893282743703065  0.4262981865037148  1.0000
  H   H5        1.0  0.45502373474614927  0.6133161405125379  0.04568103175979145  1.0000
  H   H6        1.0  0.5467655087136761  0.3856438598920705  0.9546748811494083  1.0000
  H   H7        1.0  0.6812588118700443  0.6072366259636298  0.8149633874608215  1.0000
  H   H8        1.0  0.5551814009246102  0.612038301835078  0.9445380228916493  1.0000
  H   H9        1.0  0.31554661301926507  0.3967235619266417  0.18083764895881427  1.0000
  H   H10       1.0  0.44483637994913044  0.38852885251451863  0.054467935447412755  1.0000
  H   H11       1.0  0.11319749666730432  0.9550624722829679  0.3856064043545331  1.0000
  H   H12       1.0  0.8862417957459029  0.04606103533825519  0.6132802647536978  1.0000
  H   H13       1.0  0.10701257513845515  0.18134807983611267  0.396333490076799  1.0000
  H   H14       1.0  0.11243392176311315  0.05474767783034912  0.38846156097806533  1.0000
  H   H15       1.0  0.8967596996659635  0.8153577494359823  0.606856558046232  1.0000
  H   H16       1.0  0.8885461081863608  0.9447448684259216  0.6119949684437317  1.0000
  H   H17       1.0  0.4532716496428435  0.047329549279126595  0.3862762093708056  1.0000
  H   H18       1.0  0.5473535664418775  0.9542607521923685  0.6127096999496118  1.0000
  H   H19       1.0  0.6785073972644823  0.8156588059891308  0.3980543870528663  1.0000
  H   H20       1.0  0.5523349901054003  0.945127827632952  0.38955849238020346  1.0000
  H   H21       1.0  0.3169444273876179  0.18113451100960287  0.6058644203129687  1.0000
  H   H22       1.0  0.4465146861785809  0.055113401352443254  0.6110134039552619  1.0000
  H   H23       1.0  0.8853956661598729  0.6127992276954332  0.9539887834815701  1.0000
  H   H24       1.0  0.11285667173741838  0.38634017501847506  0.047056427300148584  1.0000
  H   H25       1.0  0.8959590812088152  0.6062324448973587  0.18051592013873857  1.0000
  H   H26       1.0  0.8871041455745255  0.6110844152504314  0.054739424928136875  1.0000
  H   H27       1.0  0.10761537725082344  0.39839913267258714  0.8150851168812352  1.0000
  H   H28       1.0  0.11267434821198209  0.38962774678013545  0.9447652232318262  1.0000
  H   H29       1.0  0.8787789781254036  0.8327116831537325  0.18843551737447242  1.0000
  H   H30       1.0  0.12412838323492544  0.8090119312187198  0.1637538096153365  1.0000
  H   H31       1.0  0.10003073803818559  0.18929444003609322  0.831895404821033  1.0000
  H   H32       1.0  0.9031836796731907  0.16447382073666744  0.8081240225774097  1.0000
  H   H33       1.0  0.8137906417153714  0.03512002647968179  0.07409378556506853  1.0000
  H   H34       1.0  0.8184296255094167  0.9410855342157378  0.07293929444544028  1.0000
  H   H35       1.0  0.1879101645729761  0.9259481137798249  0.9646746494461239  1.0000
  H   H36       1.0  0.18081516269646883  0.9279939748108957  0.05927542233025213  1.0000
  H   H37       1.0  0.07692883249952591  0.07501694833430861  0.03426424291529171  1.0000
  H   H38       1.0  0.1675076278804323  0.07382451015287472  0.9402505684114785  1.0000
  H   H39       1.0  0.9214861181776968  0.9654386181877896  0.9250878290346876  1.0000
  H   H40       1.0  0.831975417765399  0.060073724511461736  0.9270861319132565  1.0000
  H   H41       1.0  0.4545893806244406  0.385105394985132  0.6138861288761747  1.0000
  H   H42       1.0  0.5462957673978508  0.6145303984502564  0.3844601231577585  1.0000
  H   H43       1.0  0.6808522331175979  0.3978259147454183  0.6059478824830152  1.0000
  H   H44       1.0  0.5548598723983743  0.3885357917697334  0.6122876684660525  1.0000
  H   H45       1.0  0.3154913317301721  0.6066980457692708  0.3970067322503539  1.0000
  H   H46       1.0  0.44444143192283997  0.612883273104025  0.3878525249114304  1.0000
  C   C1        1.0  0.7631870258961868  0.4997749751134108  0.7313967547219422  1.0000
  C   C2        1.0  0.005671757242041134  0.7321513920688788  0.49907631934888746  1.0000
  C   C3        1.0  0.2327293811097135  0.5053224704191025  0.2632835973280976  1.0000
  C   C4        1.0  0.998620842679628  0.2641165982895616  0.5046135246346993  1.0000
  C   C5        1.0  0.0019290506602230174  0.2620933103490587  0.7338770412824402  1.0000
  C   C6        1.0  0.7635370391832126  0.5075068443060716  0.496745128386415  1.0000
  C   C7        1.0  0.0020773934089746778  0.7347354468671411  0.26124008702983303  1.0000
  C   C8        1.0  0.23218870205011644  0.49760139453864843  0.5066494144268675  1.0000
  C   C9        1.0  0.9986778343516816  0.505213867903322  0.7324064540539722  1.0000
  C   C10       1.0  0.23108234987746804  0.2625672215329046  0.5001320851313908  1.0000
  C   C11       1.0  0.006229869636001593  0.500781446839632  0.26178040619007  1.0000
  C   C12       1.0  0.7635960435102048  0.7331235521027539  0.5045768271221361  1.0000
  C   C13       1.0  0.3109916168503516  0.507986298062427  0.18568401634940562  1.0000
  C   C14       1.0  0.6861355093576048  0.49577113620261326  0.8101835420056814  1.0000
  C   C15       1.0  0.35251842907101144  0.5687334186806867  0.14553549652588776  1.0000
  C   C16       1.0  0.4259267419500503  0.5646838388936573  0.07377188893199359  1.0000
  C   C17       1.0  0.6463674524650712  0.43326603712919365  0.8519339414983804  1.0000
  C   C18       1.0  0.5746379763020286  0.43549651610185713  0.925448623094539  1.0000
  C   C19       1.0  0.6504657611164857  0.5590560462875588  0.8467320712023395  1.0000
  C   C20       1.0  0.5792496231326111  0.5612135569200093  0.9198685658870572  1.0000
  C   C21       1.0  0.34735568470465233  0.44389766076376713  0.14995248712369866  1.0000
  C   C22       1.0  0.42034400766447527  0.4398494697498523  0.0786211187647865  1.0000
  C   C23       1.0  0.46161484723374  0.5007696367095563  0.03831912777847894  1.0000
  C   C24       1.0  0.5389809999608131  0.49928556953997144  0.9610564693460831  1.0000
  C   C25       1.0  0.00806279581043872  0.8107471279580097  0.49533243490616036  1.0000
  C   C26       1.0  0.9954028036535759  0.18633451291792374  0.5075286503097943  1.0000
  C   C27       1.0  0.0686402955163032  0.8524546568678844  0.4329413527436117  1.0000
  C   C28       1.0  0.06467612845523942  0.9258326226953957  0.43537671353510643  1.0000
  C   C29       1.0  0.9333480490412286  0.14611144706707788  0.5683990501921415  1.0000
  C   C30       1.0  0.9358451730228338  0.07417642548400497  0.5645672868443938  1.0000
  C   C31       1.0  0.05894444738419221  0.15044602477443894  0.44357992599580603  1.0000
  C   C32       1.0  0.0614167141233181  0.07897211556659303  0.4397161622293666  1.0000
  C   C33       1.0  0.943962586245803  0.8471459076179717  0.5587599232540371  1.0000
  C   C34       1.0  0.9399508695427912  0.9201525388580766  0.5611092851064684  1.0000
  C   C35       1.0  0.0009518342246578635  0.9613624510319385  0.49922777991893263  1.0000
  C   C36       1.0  0.9995525454646315  0.03864112656074807  0.5007086538074502  1.0000
  C   C37       1.0  0.31017708392683124  0.1859533044167492  0.49569162407892264  1.0000
  C   C38       1.0  0.6856543297882778  0.8109267676784031  0.5079797490197394  1.0000
  C   C39       1.0  0.35117129803263936  0.14658574505956784  0.4334842592777406  1.0000
  C   C40       1.0  0.42471126328221215  0.07499225268640693  0.4357846351744783  1.0000
  C   C41       1.0  0.6464641364618445  0.851985144253689  0.5684560986307899  1.0000
  C   C42       1.0  0.5747080429447775  0.9254228378967325  0.5643916030207449  1.0000
  C   C43       1.0  0.6486457775311296  0.847532131455999  0.4445726556716354  1.0000
  C   C44       1.0  0.5773546827322774  0.9205143878687636  0.440474394178999  1.0000
  C   C45       1.0  0.3478860952357294  0.1502223392718777  0.558345101986994  1.0000
  C   C46       1.0  0.421049447833468  0.07915675270481873  0.5605943372732299  1.0000
  C   C47       1.0  0.4612011518924176  0.039032888128012644  0.49923841742542413  1.0000
  C   C48       1.0  0.5382730544400758  0.9615673540315794  0.5008483187015786  1.0000
  C   C49       1.0  0.995307843495205  0.5083665181332436  0.8103875493352107  1.0000
  C   C50       1.0  0.008087666073514353  0.49608666986308236  0.18536475263186958  1.0000
  C   C51       1.0  0.9329151027572136  0.5687439898549229  0.8515562179208729  1.0000
  C   C52       1.0  0.9352387724926527  0.5645536067578906  0.9250807524903734  1.0000
  C   C53       1.0  0.06861227630591323  0.4337743686849933  0.14612346633755638  1.0000
  C   C54       1.0  0.06428369444875405  0.4359033912952342  0.07465816701795099  1.0000
  C   C55       1.0  0.9433997109454566  0.5586281687388707  0.14970217159103089  1.0000
  C   C56       1.0  0.938960060331773  0.560702692339575  0.0787755704976264  1.0000
  C   C57       1.0  0.059068021923451314  0.44485391131307495  0.8470319308451124  1.0000
  C   C58       1.0  0.061395557403678025  0.44060877352163164  0.9201276494223052  1.0000
  C   C59       1.0  0.9990487222345048  0.500943870220141  0.9612331183643406  1.0000
  C   C60       1.0  0.00026076055581118675  0.49930339930143935  0.03871792214539478  1.0000
  C   C61       1.0  0.8561841090947482  0.981692909687432  0.04876383359754045  1.0000
  C   C62       1.0  0.1442693216462203  0.9514979343730658  0.017835112566423564  1.0000
  C   C63       1.0  0.11331685102225428  0.04965461087534354  0.9808564298008378  1.0000
  C   C64       1.0  0.8864424211787065  0.01861810193815933  0.950610531124049  1.0000
  C   C65       1.0  0.9319931650687748  0.8572451935485078  0.15377693609467286  1.0000
  C   C66       1.0  0.9305691927978119  0.9312352739346752  0.08157143186458166  1.0000
  C   C67       1.0  0.0704543688565098  0.844001361431708  0.13998736497247688  1.0000
  C   C68       1.0  0.07051093094823117  0.917687316356968  0.06741166700082607  1.0000
  C   C69       1.0  0.05697638431990242  0.15460656018220223  0.856389547872574  1.0000
  C   C70       1.0  0.056621151727043226  0.08239471815235075  0.9303891907674854  1.0000
  C   C71       1.0  0.9456235530923677  0.14073658316311824  0.8431149593723077  1.0000
  C   C72       1.0  0.9444607172344777  0.06815998700168537  0.9168029733791202  1.0000
  C   C73       1.0  0.0016154723193934648  0.8132512282195563  0.18340149751698942  1.0000
  C   C74       1.0  0.0003512524299224546  0.9616001065692786  0.03779209857077604  1.0000
  C   C75       1.0  0.0017626734429327382  0.184197314245452  0.8123719713679519  1.0000
  C   C76       1.0  0.0002815879123187522  0.03858906924284611  0.9607493719743233  1.0000
  C   C77       1.0  0.3106245278564759  0.4943315834386724  0.5089580217908107  1.0000
  C   C78       1.0  0.6860319909330029  0.5097730549905038  0.4935696929286167  1.0000
  C   C79       1.0  0.352270385242896  0.4320521984416175  0.5696302147752023  1.0000
  C   C80       1.0  0.4255406774434717  0.43496035803938354  0.5651740378186005  1.0000
  C   C81       1.0  0.6459498990589906  0.5703984439959414  0.43132888459131646  1.0000
  C   C82       1.0  0.5742244012725666  0.5658711715464549  0.434303105428171  1.0000
  C   C83       1.0  0.6501080157866138  0.44509843447232106  0.5577229230274341  1.0000
  C   C84       1.0  0.5788644581504272  0.4404679179416109  0.5607245530054359  1.0000
  C   C85       1.0  0.347148292193708  0.5584302310122099  0.44430005544923296  1.0000
  C   C86       1.0  0.42001896911390474  0.5613438283138095  0.43975676983951933  1.0000
  C   C87       1.0  0.46127882006914694  0.4993804867587741  0.500764495486024  1.0000
  C   C88       1.0  0.5385406580394941  0.5014176761057315  0.49876425105897954  1.0000
  Br  Br1       1.0  0.31636818714643755  0.6615711926170391  0.18153617190654353  1.0000
  Br  Br2       1.0  0.6832591047448416  0.3399927679211744  0.816274807395942  1.0000
  Br  Br3       1.0  0.16063354269910926  0.8169069677843198  0.339602033031575  1.0000
  Br  Br4       1.0  0.8405712722534631  0.18228877624570583  0.6611079883295192  1.0000
  Br  Br5       1.0  0.3142961839267143  0.18342872369702695  0.340759416036704  1.0000
  Br  Br6       1.0  0.6838750294999797  0.8153690637168367  0.6607183415535686  1.0000
  Br  Br7       1.0  0.839865579089796  0.6610708043829449  0.814972106416988  1.0000
  Br  Br8       1.0  0.16141134734895254  0.3411885226425965  0.18295543189497473  1.0000
  Br  Br9       1.0  0.3162482628425919  0.33821202883896706  0.6629656286115876  1.0000
  Br  Br10      1.0  0.6824327178493163  0.6637341531312657  0.33745433582641476  1.0000
  O   O1        1.0  0.7947120632066172  0.44288126410568657  0.6979291453376604  1.0000
  O   O2        1.0  0.06443014555765811  0.6987991527291089  0.4420706792379292  1.0000
  O   O3        1.0  0.20068483340088522  0.5629592749378035  0.2959519910831077  1.0000
  O   O4        1.0  0.9402515800723208  0.29693792149554116  0.5621041607044148  1.0000
  O   O5        1.0  0.060683652417921445  0.2938491283291143  0.7036031537759726  1.0000
  O   O6        1.0  0.7963278107428451  0.5659666101894346  0.43847002676927366  1.0000
  O   O7        1.0  0.9418627151927127  0.7044362946365298  0.2929807920478282  1.0000
  O   O8        1.0  0.19912156751724544  0.4394135901947038  0.5651671544781679  1.0000
  O   O9        1.0  0.9412019624349031  0.5635096743114688  0.6990669446726444  1.0000
  O   O10       1.0  0.1984258660983187  0.2956297176154692  0.4419895872624125  1.0000
  O   O11       1.0  0.06397033114321717  0.4426763528210884  0.2948644052959963  1.0000
  O   O12       1.0  0.7962725603099015  0.6998752502809467  0.562732703790381  1.0000
  O   O13       1.0  0.20242387034161882  0.29036263667951806  0.5607011312560533  1.0000
  O   O14       1.0  0.9466291634103642  0.5614763873959417  0.2894232220371222  1.0000
  O   O15       1.0  0.7928487118265721  0.7061626036488421  0.44326455560909755  1.0000
  O   O16       1.0  0.057710221132730014  0.443952476424073  0.7053712216920262  1.0000
  O   O17       1.0  0.9433582969106594  0.2930816477607721  0.70241828923308  1.0000
  O   O18       1.0  0.20446966443909526  0.5576976700546936  0.4455093053947011  1.0000
  O   O19       1.0  0.06112530184638829  0.7032819178531682  0.2922246260520397  1.0000
  O   O20       1.0  0.7922872413763713  0.4464290877850703  0.556869259375823  1.0000
  O   O21       1.0  0.05855792108214785  0.2932415519922102  0.44419527073242193  1.0000
  O   O22       1.0  0.7929471122871232  0.5589778895822732  0.7036101691389263  1.0000
  O   O23       1.0  0.9444751878953211  0.7043721419569093  0.5582312894205403  1.0000
  O   O24       1.0  0.2040531726129729  0.4449104180199511  0.2924444618125507  1.0000
  O   O25       1.0  0.9481537210646563  0.44978093502763994  0.4466592234565142  1.0000
  O   O26       1.0  0.15542981477864976  0.44751444577123317  0.44889682227075406  1.0000
  O   O27       1.0  0.9488077185890089  0.6568936805619218  0.4469208594132184  1.0000
  O   O28       1.0  0.947377523266681  0.4477795456798575  0.6560371060975358  1.0000
  O   O29       1.0  0.03834951771586509  0.537595152055985  0.5385253716623666  1.0000
  O   O30       1.0  0.8855766037207714  0.5393915085634688  0.536712930564704  1.0000
  O   O31       1.0  0.03865015432121776  0.5395165583739113  0.38418548422009746  1.0000
  O   O32       1.0  0.037660704372072626  0.3850190330032674  0.5386724030630248  1.0000
