data_image0
_chemical_formula_structural       Cu12H60C108N24O12
_chemical_formula_sum              "Cu12 H60 C108 N24 O12"
_cell_length_a       24.972970370899656
_cell_length_b       25.18083935572637
_cell_length_c       25.7746486925375
_cell_angle_alpha    92.49759106880933
_cell_angle_beta     92.88607422344737
_cell_angle_gamma    91.09121901433194

_space_group_name_H-M_alt    "P 1"
_space_group_IT_number       1

loop_
  _space_group_symop_operation_xyz
  'x, y, z'

loop_
  _atom_site_type_symbol
  _atom_site_label
  _atom_site_symmetry_multiplicity
  _atom_site_fract_x
  _atom_site_fract_y
  _atom_site_fract_z
  _atom_site_occupancy
  Cu  Cu1       1.0  0.2116029404322006  0.2057484381719661  0.1802485259299331  1.0000
  Cu  Cu2       1.0  0.19899846036724964  0.11338374352421  0.2640508641741093  1.0000
  Cu  Cu3       1.0  0.14482430707541735  0.21929715812819237  0.2814897060795545  1.0000
  Cu  Cu4       1.0  0.7883019067401804  0.2515755298974157  0.8629189411568349  1.0000
  Cu  Cu5       1.0  0.7413771185333075  0.15295232823548593  0.7928949821751772  1.0000
  Cu  Cu6       1.0  0.8468505614376267  0.2142532349541142  0.7619616709497167  1.0000
  Cu  Cu7       1.0  0.25782213038493745  0.785043497292321  0.8581435600201742  1.0000
  Cu  Cu8       1.0  0.22396379776423458  0.8442588402557831  0.757089209213447  1.0000
  Cu  Cu9       1.0  0.15823814343907827  0.7405979391408976  0.787052442468891  1.0000
  Cu  Cu10      1.0  0.8243430841824945  0.817404423327524  0.0564479118365213  1.0000
  Cu  Cu11      1.0  0.8043971530832862  0.8835558537050047  0.15934633499297488  1.0000
  Cu  Cu12      1.0  0.8746651207910288  0.7761544781828958  0.15888711003752584  1.0000
  H   H1        1.0  0.313492413876311  0.16116688557539055  0.12223174775975558  1.0000
  H   H2        1.0  0.2912306276014077  0.0400907212910653  0.2340170803417934  1.0000
  H   H3        1.0  0.0850286588476266  0.32321113365126314  0.2608414165178132  1.0000
  H   H4        1.0  0.16355499809619536  0.30426013633839943  0.1152151990624546  1.0000
  H   H5        1.0  0.14629184858873148  0.044493724151543304  0.35448178852858797  1.0000
  H   H6        1.0  0.09691065459028889  0.20493969435675302  0.39290439717380105  1.0000
  H   H7        1.0  0.6945520454319478  0.26800175330610904  0.94019627119534  1.0000
  H   H8        1.0  0.6352452832854566  0.1266851700021618  0.8519728210505946  1.0000
  H   H9        1.0  0.9443497139219658  0.2971337508754318  0.7662689362156527  1.0000
  H   H10       1.0  0.8750609440951393  0.33646549298173073  0.9135576038441329  1.0000
  H   H11       1.0  0.7382726824438348  0.0559516077556381  0.7101751342054213  1.0000
  H   H12       1.0  0.8800515933794555  0.1412014355164786  0.6657393362332584  1.0000
  H   H13       1.0  0.345341411719609  0.868514882907569  0.9104436945937877  1.0000
  H   H14       1.0  0.3122392315248845  0.9371049725576627  0.7611247800088421  1.0000
  H   H15       1.0  0.13079038555843428  0.6336437391866385  0.8451510718421887  1.0000
  H   H16       1.0  0.2708581254403981  0.6935038371680095  0.9371234671020616  1.0000
  H   H17       1.0  0.1486527249981009  0.8842678375148412  0.6651908153849604  1.0000
  H   H18       1.0  0.0586540511957026  0.7448788700731372  0.7067485597607258  1.0000
  H   H19       1.0  0.7430417284043495  0.8676321664291323  0.977690009366725  1.0000
  H   H20       1.0  0.7047473232713627  0.9552895547043578  0.11906519866179369  1.0000
  H   H21       1.0  0.9371842858579239  0.6730240767053673  0.11440407909240947  1.0000
  H   H22       1.0  0.8774192529518812  0.7429481724647149  0.9725473240931137  1.0000
  H   H23       1.0  0.8351811001399337  0.928436018229725  0.2747251188544695  1.0000
  H   H24       1.0  0.9036900618653048  0.7718310947698301  0.2787329384499486  1.0000
  H   H25       1.0  0.9496345749259092  0.07253291132047221  0.5423437096752934  1.0000
  H   H26       1.0  0.904841258444037  0.9061939311282573  0.5324510448209168  1.0000
  H   H27       1.0  0.06760798717629508  0.9693098009983032  0.5467358125996071  1.0000
  H   H28       1.0  0.9855729606053669  0.9883821821792868  0.4139579835161271  1.0000
  H   H29       1.0  0.5303161122276663  0.9924876346358362  0.08619298273801229  1.0000
  H   H30       1.0  0.5340562082221112  0.05905844792489753  0.9346532718974316  1.0000
  H   H31       1.0  0.47417876516278296  0.1365399316493807  0.0722857832090469  1.0000
  H   H32       1.0  0.3908814810250476  0.0099089062853395  0.0090966065005347  1.0000
  H   H33       1.0  0.1457365887379751  0.47743195598747706  0.0711010295488563  1.0000
  H   H34       1.0  0.06267913199197749  0.5251348820872225  0.9301030320406909  1.0000
  H   H35       1.0  0.9972690719995253  0.5246889570026952  0.0821801744248916  1.0000
  H   H36       1.0  0.022496968002002397  0.3848100117330445  0.0127215549462818  1.0000
  H   H37       1.0  0.39048541905700057  0.002985759441173703  0.2138515711831062  1.0000
  H   H38       1.0  0.4709073474153271  0.978745633192979  0.1494576723061485  1.0000
  H   H39       1.0  0.5864971010388657  0.2765366670743249  0.9746728061182992  1.0000
  H   H40       1.0  0.5076321780125213  0.2269438389572116  0.025559211094538598  1.0000
  H   H41       1.0  0.42124186633082417  0.9879901655627776  0.783038324147391  1.0000
  H   H42       1.0  0.48466851443140496  0.05048814739875951  0.8515767305393921  1.0000
  H   H43       1.0  0.685910230929089  0.943418609619407  0.9238174131641798  1.0000
  H   H44       1.0  0.5938301708147405  0.9986925295666327  0.9086807083967797  1.0000
  H   H45       1.0  0.0369861753807115  0.4103388243236169  0.22754596365493998  1.0000
  H   H46       1.0  0.0030421669155132006  0.4817812120381151  0.15708470954751158  1.0000
  H   H47       1.0  0.9441036181006266  0.6760912938407486  0.9180657769271646  1.0000
  H   H48       1.0  0.004270046946182013  0.5878507418466087  0.9036856166257081  1.0000
  H   H49       1.0  0.9984865513246601  0.403012571972262  0.7843956600891244  1.0000
  H   H50       1.0  0.06083904199001469  0.46913019904975795  0.850471471271092  1.0000
  H   H51       1.0  0.28072660217436857  0.591024516647167  0.9737995585508158  1.0000
  H   H52       1.0  0.2332351334237401  0.5115757837651671  0.0252460823351086  1.0000
  H   H53       1.0  0.1115046595577454  0.16431412055683137  0.5014783361382911  1.0000
  H   H54       1.0  0.04690590436962339  0.10526996639222831  0.561258414285781  1.0000
  H   H55       1.0  0.9754630074346196  0.774830696330902  0.6430236988250613  1.0000
  H   H56       1.0  0.9216642937598962  0.8367576450836439  0.5751121567787507  1.0000
  H   H57       1.0  0.8584688703026585  0.7843206679440231  0.38816726736074253  1.0000
  H   H58       1.0  0.8930825063972846  0.8337239234564822  0.48059796931177345  1.0000
  H   H59       1.0  0.7607573153829319  0.9756373833665467  0.6359534838205932  1.0000
  H   H60       1.0  0.8213130987249355  0.9247953793965705  0.5646881177409354  1.0000
  C   C1        1.0  0.3004696072392292  0.1360149691743473  0.152520772486227  1.0000
  C   C2        1.0  0.32291669728772376  0.08903695549537362  0.1706105659523161  1.0000
  C   C3        1.0  0.28923883697025576  0.07423085072095861  0.2097785798574634  1.0000
  C   C4        1.0  0.10898111320317126  0.3113654130975619  0.22849755601381358  1.0000
  C   C5        1.0  0.11218203829538709  0.33357733889146596  0.17970108693164383  1.0000
  C   C6        1.0  0.149014537737628  0.30150143531403023  0.15398286331508607  1.0000
  C   C7        1.0  0.13790547716408239  0.08664345101815481  0.3561268874642707  1.0000
  C   C8        1.0  0.11176204941141069  0.11706684664454774  0.39384015126366734  1.0000
  C   C9        1.0  0.11338759223389867  0.16895879020640348  0.3760183901527725  1.0000
  C   C10       1.0  0.6872661100228541  0.23424263023525074  0.9129760818854962  1.0000
  C   C11       1.0  0.6444937914722714  0.19695336038971337  0.9093746376476447  1.0000
  C   C12       1.0  0.6571655378604361  0.16164387398517024  0.8682620255264552  1.0000
  C   C13       1.0  0.9201545327765144  0.3008258574545906  0.7999780666698088  1.0000
  C   C14       1.0  0.9282028423631344  0.3334865966730122  0.8453782514935639  1.0000
  C   C15       1.0  0.8849546707499627  0.32034626650536074  0.8756001152294386  1.0000
  C   C16       1.0  0.771415929240426  0.08355000755580022  0.7055976255835861  1.0000
  C   C17       1.0  0.8127671922147072  0.08089008518549433  0.6705934339768335  1.0000
  C   C18       1.0  0.8438766737389114  0.12726937334279143  0.6828945469282529  1.0000
  C   C19       1.0  0.33054164836926964  0.8784268934714704  0.8718437682447941  1.0000
  C   C20       1.0  0.3461130270858419  0.9205140577594906  0.8414325017190978  1.0000
  C   C21       1.0  0.3142264538447249  0.9132076742163309  0.7951577495190705  1.0000
  C   C22       1.0  0.16554595817496678  0.6555901106990591  0.862333294089936  1.0000
  C   C23       1.0  0.20013445123046128  0.6434110667922113  0.9046982396467554  1.0000
  C   C24       1.0  0.23751616538682893  0.6860290027987687  0.908958002822942  1.0000
  C   C25       1.0  0.1337372711554252  0.8480933214257437  0.6812784156407475  1.0000
  C   C26       1.0  0.08520657343011351  0.8199665535699056  0.6696699589757458  1.0000
  C   C27       1.0  0.08758417552018467  0.7769099479458036  0.7026236784260219  1.0000
  C   C28       1.0  0.7410521773130936  0.8851896567189571  0.0167255153091048  1.0000
  C   C29       1.0  0.7057097879781862  0.9230435921711762  0.0360372402716109  1.0000
  C   C30       1.0  0.7210890112981115  0.9295441731644802  0.08922898735812622  1.0000
  C   C31       1.0  0.917997003101618  0.6965565505470508  0.0848076911383657  1.0000
  C   C32       1.0  0.9189634690992532  0.6906676442297838  0.030331980249442805  1.0000
  C   C33       1.0  0.8877656960581034  0.7324636366738276  0.0121348833353778  1.0000
  C   C34       1.0  0.8499871748512078  0.8888673294542716  0.2665183889843448  1.0000
  C   C35       1.0  0.8751207512720637  0.8537208655546992  0.3003986911050589  1.0000
  C   C36       1.0  0.8842385961157146  0.8084218917381494  0.2686319103870005  1.0000
  C   C37       1.0  0.9995120831302131  0.009820556119123606  0.5009946853122571  1.0000
  C   C38       1.0  0.9526053201742709  0.03040912349294441  0.5321053954489159  1.0000
  C   C39       1.0  0.917832331175965  0.9919834360214492  0.5441480197299454  1.0000
  C   C40       1.0  0.9336051043375162  0.9370124502162939  0.523024038724273  1.0000
  C   C41       1.0  0.025259270400503898  0.9664528886724427  0.5346788604477622  1.0000
  C   C42       1.0  0.9901665092636519  0.9282705714484508  0.5470560708008776  1.0000
  C   C43       1.0  0.9737757974372554  0.9794595870845909  0.4526992629850567  1.0000
  C   C44       1.0  0.9394119822622639  0.9403807828764955  0.4644038487299724  1.0000
  C   C45       1.0  0.4646032754956194  0.04706791699103971  0.05453064379376829  1.0000
  C   C46       1.0  0.516933544785452  0.0157071498750554  0.05362314981267959  1.0000
  C   C47       1.0  0.5424091621623502  0.0195579754398452  0.009060556925256  1.0000
  C   C48       1.0  0.5129822811828575  0.05529406657737471  0.970434078354131  1.0000
  C   C49       1.0  0.4812431254520461  0.10452459666975501  0.043922218706868  1.0000
  C   C50       1.0  0.5078720234984359  0.10893650897492792  9.242015575949998e-05  1.0000
  C   C51       1.0  0.4310206628629131  0.02648611463861531  0.0057061505642366  1.0000
  C   C52       1.0  0.4567197103898976  0.030424935354268722  0.9613515741417233  1.0000
  C   C53       1.0  0.05611331093698618  0.46176438897794025  0.05405452927833209  1.0000
  C   C54       1.0  0.1128468449816182  0.48103854984085376  0.042247981811115685  1.0000
  C   C55       1.0  0.11531970325018648  0.505563058923741  0.9970428111923438  1.0000
  C   C56       1.0  0.06070171159851869  0.5060066800931652  0.9671961391998778  1.0000
  C   C57       1.0  0.021289507563182  0.5113107684399836  0.050340225744776  1.0000
  C   C58       1.0  0.023342241528567297  0.5346936058922938  0.0044553507177767  1.0000
  C   C59       1.0  0.0368050671818381  0.4251254451263407  0.0071819248937075  1.0000
  C   C60       1.0  0.03882758634590999  0.4485575159426532  0.9613418067292726  1.0000
  C   C61       1.0  0.3696486485169359  0.060857758343161095  0.1551865505936192  1.0000
  C   C62       1.0  0.3983600163022701  0.020948457169083706  0.1774293436424657  1.0000
  C   C63       1.0  0.4407274981804362  0.008656319604988  0.1439642890394595  1.0000
  C   C64       1.0  0.43587460998841  0.04161027908640591  0.10324159224783358  1.0000
  C   C65       1.0  0.5993753385758251  0.19601017301222612  0.9420157287103733  1.0000
  C   C66       1.0  0.5757050470698813  0.23452768862914303  0.9722648864963901  1.0000
  C   C67       1.0  0.5345310197736453  0.20883936686794874  0.9985198053513926  1.0000
  C   C68       1.0  0.5347795831113797  0.15564375126396612  0.9833955141517805  1.0000
  C   C69       1.0  0.38646588918307856  0.961179901940682  0.8541993823114424  1.0000
  C   C70       1.0  0.4200525827099568  0.990407067065604  0.8250976335680845  1.0000
  C   C71       1.0  0.45363692777090847  0.022210823600026713  0.8608735450004446  1.0000
  C   C72       1.0  0.4386376759870031  0.011287136894246402  0.9101712427187749  1.0000
  C   C73       1.0  0.6649358500339984  0.9489003139034795  0.005592962076697501  1.0000
  C   C74       1.0  0.6587259088108794  0.9566109208624669  0.9530491491305497  1.0000
  C   C75       1.0  0.6113181915227627  0.9860889756371735  0.9453756506468733  1.0000
  C   C76       1.0  0.5904109434603626  0.9947113090823978  0.9935419717861933  1.0000
  C   C77       1.0  0.08262459147028518  0.3787793958766984  0.16276222155136108  1.0000
  C   C78       1.0  0.04812194728479108  0.4121088321150808  0.18750890096015374  1.0000
  C   C79       1.0  0.030361761982454993  0.4494941415988833  0.150589499866463  1.0000
  C   C80       1.0  0.054797902834145894  0.4371987343825766  0.10540135155207508  1.0000
  C   C81       1.0  0.9465561234606097  0.6523828335674013  0.99925053306616  1.0000
  C   C82       1.0  0.957051817099092  0.6486273608022446  0.9472341673924872  1.0000
  C   C83       1.0  0.9888407827553465  0.6030043328570187  0.939896420159421  1.0000
  C   C84       1.0  0.9960662622782621  0.5807304438422917  0.9877137932937073  1.0000
  C   C85       1.0  0.9699493814613263  0.3730580109561502  0.857039327915551  1.0000
  C   C86       1.0  0.0002253463982669111  0.4042673830062783  0.826580608639766  1.0000
  C   C87       1.0  0.0318897956633108  0.43929923611136706  0.8610087230780721  1.0000
  C   C88       1.0  0.019977466608146706  0.4274716959122956  0.9109670775330301  1.0000
  C   C89       1.0  0.19966024439015936  0.5990721211062464  0.9381251789063825  1.0000
  C   C90       1.0  0.23893615324733014  0.5781552738117455  0.9702417986542997  1.0000
  C   C91       1.0  0.21441009088460558  0.5367117335859463  0.9967946460765517  1.0000
  C   C92       1.0  0.16108265346422707  0.5340818612757445  0.9800058527717397  1.0000
  C   C93       1.0  0.08887031460234597  0.1023795623232999  0.441736659867729  1.0000
  C   C94       1.0  0.08930521226774599  0.12791294963687255  0.4898952606526449  1.0000
  C   C95       1.0  0.05599263300489098  0.09701860825931871  0.5210180599198394  1.0000
  C   C96       1.0  0.03712753238010439  0.05426636174961171  0.4903473392535247  1.0000
  C   C97       1.0  0.04106600405398099  0.8328267294888008  0.6349500841037639  1.0000
  C   C98       1.0  0.9906728194443559  0.8101843825826408  0.6256171993422156  1.0000
  C   C99       1.0  0.9627248900349129  0.8426457529984291  0.5902330856143507  1.0000
  C   C100      1.0  0.9972675906991597  0.8836879598131592  0.579074000614483  1.0000
  C   C101      1.0  0.8857706801232866  0.8586646738312071  0.3560378604140695  1.0000
  C   C102      1.0  0.8765705609277957  0.8237456832155062  0.39430673027180047  1.0000
  C   C103      1.0  0.8934127086549422  0.8500419955938343  0.4423892769360762  1.0000
  C   C104      1.0  0.9128328366008911  0.8997650260907906  0.4312505695697125  1.0000
  C   C105      1.0  0.8225394829568484  0.03866922335953401  0.6331848306913557  1.0000
  C   C106      1.0  0.7974142914492858  0.990360470901287  0.6202420329316709  1.0000
  C   C107      1.0  0.8292388052192547  0.9637040419530296  0.583503509538545  1.0000
  C   C108      1.0  0.8722076265322369  0.9970363166616495  0.575276902306065  1.0000
  N   N1        1.0  0.24992868305815816  0.1097094478702516  0.21472238760976126  1.0000
  N   N2        1.0  0.25677301097429245  0.1481805330488584  0.17929418459560506  1.0000
  N   N3        1.0  0.1661921370513681  0.26297492469644373  0.1854324113596562  1.0000
  N   N4        1.0  0.14130095054876077  0.269326338578857  0.2315445051763731  1.0000
  N   N5        1.0  0.1387645932154982  0.16941168527120712  0.33118034567441157  1.0000
  N   N6        1.0  0.15400840888064235  0.11845771443996972  0.3187820265298882  1.0000
  N   N7        1.0  0.7039092117439267  0.17712346633459225  0.8488584583481824  1.0000
  N   N8        1.0  0.7225942304074947  0.22203039165659533  0.8766839352249036  1.0000
  N   N9        1.0  0.8534550229724471  0.28280596247167017  0.8497791218966314  1.0000
  N   N10       1.0  0.8753504502308969  0.2706444157162765  0.802996334143252  1.0000
  N   N11       1.0  0.8225369283459968  0.15515353537561086  0.7223790792647408  1.0000
  N   N12       1.0  0.777693036839011  0.12803477098895402  0.7364734022523364  1.0000
  N   N13       1.0  0.28214756453312617  0.8698874323760039  0.7978852827189655  1.0000
  N   N14       1.0  0.292303697656493  0.8482620319684743  0.8453103012731945  1.0000
  N   N15       1.0  0.22608582120518145  0.7207439531106916  0.8719076474803984  1.0000
  N   N16       1.0  0.18155295935126498  0.7019389695795937  0.8428780112324218  1.0000
  N   N17       1.0  0.13390287841230017  0.7795149718313682  0.7318190265565007  1.0000
  N   N18       1.0  0.16254604932819205  0.8235511036304148  0.7185295881058307  1.0000
  N   N19       1.0  0.7628055851224146  0.8978944635608032  0.1003990494430482  1.0000
  N   N20       1.0  0.7749466096676939  0.8704630094504895  0.055448092383393495  1.0000
  N   N21       1.0  0.8697819396692166  0.7610422831776305  0.0527659944282846  1.0000
  N   N22       1.0  0.8884115705811979  0.7389486649685256  0.09779603988787498  1.0000
  N   N23       1.0  0.865742955281071  0.815951038850024  0.2195438451241145  1.0000
  N   N24       1.0  0.8442491840265305  0.8658047442416436  0.2182353971365742  1.0000
  O   O1        1.0  0.39239880395675886  0.07392461638473691  0.1095605652549878  1.0000
  O   O2        1.0  0.5741322229917643  0.14769285859730272  0.947923050610882  1.0000
  O   O3        1.0  0.3973248421712938  0.9737944124116212  0.9062333567518976  1.0000
  O   O4        1.0  0.6232969134141583  0.971874772267192  0.030799806751794296  1.0000
  O   O5        1.0  0.0870447769803278  0.39384800008105003  0.11228426849417869  1.0000
  O   O6        1.0  0.9699569680622486  0.6109293720819197  0.024318597011266298  1.0000
  O   O7        1.0  0.9819510903989154  0.38666746750781306  0.9087248544270565  1.0000
  O   O8        1.0  0.15191139839230766  0.5718782514954344  0.9431849844878356  1.0000
  O   O9        1.0  0.0572013026442306  0.05665356046930011  0.44170539641756085  1.0000
  O   O10       1.0  0.045747647053531196  0.8775994529823167  0.606426479152681  1.0000
  O   O11       1.0  0.9080668565818398  0.9054846633704514  0.37813610541066817  1.0000
  O   O12       1.0  0.8680223773090955  0.043392645612932816  0.6055125148462963  1.0000
