data_image0
_chemical_formula_structural       Cu2H40C32N4O8
_chemical_formula_sum              "Cu2 H40 C32 N4 O8"
_cell_length_a       8.600090182278262
_cell_length_b       8.780897991269397
_cell_length_c       11.969480421338897
_cell_angle_alpha    96.60014464142719
_cell_angle_beta     104.49181241636381
_cell_angle_gamma    106.63247601528607

_space_group_name_H-M_alt    "P 1"
_space_group_IT_number       1

loop_
  _space_group_symop_operation_xyz
  'x, y, z'

loop_
  _atom_site_type_symbol
  _atom_site_label
  _atom_site_symmetry_multiplicity
  _atom_site_fract_x
  _atom_site_fract_y
  _atom_site_fract_z
  _atom_site_occupancy
  Cu  Cu1       1.0  0.46879535892486496  0.023393301225397102  0.39235681999762306  1.0000
  Cu  Cu2       1.0  0.5312137500146362  0.976606001038171  0.6076578185066596  1.0000
  H   H1        1.0  0.48265722610830863  0.5018050670210032  0.6223578616812447  1.0000
  H   H2        1.0  0.5173384352998056  0.4982014703674196  0.37762329305036263  1.0000
  H   H3        1.0  0.22658815718743602  0.5466757336492736  0.5278166695973497  1.0000
  H   H4        1.0  0.7733967707320987  0.4533198921900452  0.4721825593171189  1.0000
  H   H5        1.0  0.2739209869287649  0.42882966954083923  0.4192442678184989  1.0000
  H   H6        1.0  0.7260669953637092  0.5711962725311679  0.5807472280365289  1.0000
  H   H7        1.0  0.9631073798073474  0.32732422386684606  0.40256158507337864  1.0000
  H   H8        1.0  0.03688503391333604  0.6726968789042334  0.5974386274909307  1.0000
  H   H9        1.0  0.05980508958022309  0.17876982289530471  0.4324634768409652  1.0000
  H   H10       1.0  0.9401757715983193  0.8212318514508967  0.567522189792868  1.0000
  H   H11       1.0  0.9927045931123999  0.4043878361452898  0.6160470682689976  1.0000
  H   H12       1.0  0.007287157792021034  0.5956174925554195  0.3839441595780926  1.0000
  H   H13       1.0  0.1392234865280599  0.12719809622983294  0.6421586161123614  1.0000
  H   H14       1.0  0.8607815235561844  0.8728108869408404  0.3578352459193114  1.0000
  H   H15       1.0  0.0859554149516413  0.23192916108590822  0.7538618206856214  1.0000
  H   H16       1.0  0.9140544859437443  0.768083469927639  0.24613738712106686  1.0000
  H   H17       1.0  0.2914905347735015  0.49508000041596745  0.7402583674929559  1.0000
  H   H18       1.0  0.7085229397185913  0.5049399024856456  0.2597303913978237  1.0000
  H   H19       1.0  0.3960949868218719  0.35296003837994766  0.7758025400627703  1.0000
  H   H20       1.0  0.6039094551418103  0.6470404486581958  0.22418381188877853  1.0000
  H   H21       1.0  0.69251593420082  0.0022028945922870006  0.24285948436184415  1.0000
  H   H22       1.0  0.30746949223686226  0.9977939515160518  0.7571482909989771  1.0000
  H   H23       1.0  0.7999724439003444  0.1399079772605134  0.09132405555354946  1.0000
  H   H24       1.0  0.19999797887442136  0.8600767188790288  0.9086758760580196  1.0000
  H   H25       1.0  0.3683636962452468  0.3089909869813213  0.02655843014047581  1.0000
  H   H26       1.0  0.6316359556377762  0.6910192217012466  0.9734579919181243  1.0000
  H   H27       1.0  0.2806562434202675  0.16775260710223713  0.1816572126883855  1.0000
  H   H28       1.0  0.719340962385452  0.8322539600758959  0.8183584695764808  1.0000
  H   H29       1.0  0.6004002017655524  0.24097053686984546  0.8700159062307407  1.0000
  H   H30       1.0  0.39959871769880095  0.7590166218788356  0.12999256747688295  1.0000
  H   H31       1.0  0.5996965248410788  0.42486993099650766  0.9475421375552386  1.0000
  H   H32       1.0  0.4003104023351369  0.5751269306712886  0.05245687157066931  1.0000
  H   H33       1.0  0.8815931595532688  0.4663124343857846  0.16266830529651338  1.0000
  H   H34       1.0  0.11841402521962864  0.5336674523607102  0.8373351451824861  1.0000
  H   H35       1.0  0.874569222669635  0.6171597078465254  0.0753500794032291  1.0000
  H   H36       1.0  0.1254456108054001  0.38282140297260275  0.9246573214416075  1.0000
  H   H37       1.0  0.8444730420322415  0.536797201326685  0.8586674085180732  1.0000
  H   H38       1.0  0.15553854205460027  0.4631814785191111  0.1413375444782261  1.0000
  H   H39       1.0  0.8317315255246243  0.3327300284619953  0.8067596996008107  1.0000
  H   H40       1.0  0.16827688579741112  0.6672498617994479  0.19324647236937417  1.0000
  C   C1        1.0  0.4198465865384124  0.2510920712765242  0.5592488962312887  1.0000
  C   C2        1.0  0.5801607568550935  0.7489096389118687  0.4407464231423576  1.0000
  C   C3        1.0  0.3656942993057086  0.3956580484883931  0.597970921989301  1.0000
  C   C4        1.0  0.6343090094610703  0.6043460778066533  0.402018049295684  1.0000
  C   C5        1.0  0.23247030434670535  0.4254865126558586  0.49876656031362643  1.0000
  C   C6        1.0  0.7675254644555736  0.5745163985553036  0.5012293416199186  1.0000
  C   C7        1.0  0.0564805687760099  0.2980743955527815  0.4700981471797975  1.0000
  C   C8        1.0  0.9435139831850423  0.7019321480008786  0.5298920040761176  1.0000
  C   C9        1.0  0.9986694216115595  0.2844804117451005  0.5808140659392792  1.0000
  C   C10       1.0  0.0013327971239576579  0.7155309924300541  0.4191778434971454  1.0000
  C   C11       1.0  0.1291795774839599  0.24531218037398622  0.6756684691125727  1.0000
  C   C12       1.0  0.8708283019158499  0.7547016583471661  0.32432714614923  1.0000
  C   C13       1.0  0.3022109304996192  0.37775327956009624  0.7062082853478486  1.0000
  C   C14       1.0  0.6977993531553253  0.6222641972082812  0.29378388470215105  1.0000
  C   C15       1.0  0.8164921749081273  0.17095065394006073  0.5553937177418932  1.0000
  C   C16       1.0  0.1835140339450092  0.8290510603392464  0.44460808715274425  1.0000
  C   C17       1.0  0.6243188794466903  0.07157924111285752  0.1925054725986541  1.0000
  C   C18       1.0  0.3756722856221231  0.9284273160964319  0.8075058092224268  1.0000
  C   C19       1.0  0.6836263584200283  0.1476846354740218  0.10860551374985053  1.0000
  C   C20       1.0  0.3163541076041128  0.8523012869279328  0.8913979522021975  1.0000
  C   C21       1.0  0.5933462382648927  0.23703686311368  0.04707310050695671  1.0000
  C   C22       1.0  0.40664800621649994  0.7629648409081257  0.9529316215156101  1.0000
  C   C23       1.0  0.44426751000970904  0.24173649970948932  0.07227584613438147  1.0000
  C   C24       1.0  0.5557284789547766  0.7582736998111415  0.9277340854528546  1.0000
  C   C25       1.0  0.39415641142917923  0.16263716567752343  0.1581347864913951  1.0000
  C   C26       1.0  0.6058347215253691  0.8373730239319884  0.8418692811377114  1.0000
  C   C27       1.0  0.6535353711937192  0.3241188719280146  0.9566557557131077  1.0000
  C   C28       1.0  0.3464583372813763  0.6758707035610315  0.043348670421302415  1.0000
  C   C29       1.0  0.9185478403164353  0.5109496590193814  0.08794233174496925  1.0000
  C   C30       1.0  0.08145891151030328  0.4890253778236442  0.9120631344840646  1.0000
  C   C31       1.0  0.8891491572270879  0.4343170691517742  0.8830391203592214  1.0000
  C   C32       1.0  0.11085801783790569  0.5656591817372956  0.11696735930620861  1.0000
  N   N1        1.0  0.48303353496429224  0.07948476397029221  0.2186727850494279  1.0000
  N   N2        1.0  0.5169619012650344  0.9205133056346925  0.7813351766474385  1.0000
  N   N3        1.0  0.8374618385799196  0.3813424313615172  0.9832812570672687  1.0000
  N   N4        1.0  0.16253255207358575  0.6186350184182604  0.016724757669081252  1.0000
  O   O1        1.0  0.4737085680702293  0.17917351396499012  0.6397707424596746  1.0000
  O   O2        1.0  0.5263243344920383  0.8208573340790438  0.36022987370098747  1.0000
  O   O3        1.0  0.4100138905007569  0.21571989605728703  0.450975742710682  1.0000
  O   O4        1.0  0.5899651120831777  0.7842587331373849  0.5490092980942621  1.0000
  O   O5        1.0  0.7750645250979248  0.11104665494440982  0.6398909789282072  1.0000
  O   O6        1.0  0.2249566315003761  0.8889393033010862  0.3601037405904464  1.0000
  O   O7        1.0  0.7183445078479594  0.15076154770978437  0.45190397156876844  1.0000
  O   O8        1.0  0.2816515256256338  0.8492559256000335  0.5481024126489089  1.0000
