data_image0
_chemical_formula_structural       Sr2H28C12N20O14
_chemical_formula_sum              "Sr2 H28 C12 N20 O14"
_cell_length_a       7.701639140335075
_cell_length_b       9.72777986294985
_cell_length_c       11.234010806769888
_cell_angle_alpha    90.19308876712569
_cell_angle_beta     102.89665134389995
_cell_angle_gamma    92.28209781932807

_space_group_name_H-M_alt    "P 1"
_space_group_IT_number       1

loop_
  _space_group_symop_operation_xyz
  'x, y, z'

loop_
  _atom_site_type_symbol
  _atom_site_label
  _atom_site_symmetry_multiplicity
  _atom_site_fract_x
  _atom_site_fract_y
  _atom_site_fract_z
  _atom_site_occupancy
  Sr  Sr1       1.0  0.2599487235585372  0.007683307048211003  0.02971611470125879  1.0000
  Sr  Sr2       1.0  0.7400490755552483  0.992307976731382  0.9702918092288187  1.0000
  H   H1        1.0  0.6799241671674564  0.27689324115780056  0.3933831574585583  1.0000
  H   H2        1.0  0.3200931834942722  0.723104752163266  0.606606102312533  1.0000
  H   H3        1.0  0.5819958559491027  0.365662387816208  0.4984835535768184  1.0000
  H   H4        1.0  0.41800263932988463  0.6343331437448895  0.5015013481399749  1.0000
  H   H5        1.0  0.9692885388629193  0.48829607010323167  0.6207602086908395  1.0000
  H   H6        1.0  0.030690724428268396  0.5117134412117111  0.37923281099596556  1.0000
  H   H7        1.0  0.8668201911540122  0.5965228500445932  0.7090620820196918  1.0000
  H   H8        1.0  0.1331777633164322  0.40348707071233747  0.29093436580522797  1.0000
  H   H9        1.0  0.03684086013517878  0.7505471340357202  0.1012344862648575  1.0000
  H   H10       1.0  0.9631593857460602  0.24943996382217642  0.8987703040728479  1.0000
  H   H11       1.0  0.2414786021162456  0.7151494759794516  0.14686182894840982  1.0000
  H   H12       1.0  0.7585298782597859  0.2848487293876829  0.8531391717692145  1.0000
  H   H13       1.0  0.6164937005698121  0.9962085062903795  0.2572385748291168  1.0000
  H   H14       1.0  0.3834933652897021  0.003790395312208301  0.7427611764499602  1.0000
  H   H15       1.0  0.5032310988500228  0.8572012433515255  0.25380672855415304  1.0000
  H   H16       1.0  0.49676957042056097  0.1427930287828474  0.7462035163976211  1.0000
  H   H17       1.0  0.14105755905437428  0.20580196912339224  0.7796948422505139  1.0000
  H   H18       1.0  0.8589399935193854  0.7941975928475812  0.22031039852070225  1.0000
  H   H19       1.0  0.2694718666670184  0.28776978913791135  0.8863286027497993  1.0000
  H   H20       1.0  0.7305330345863582  0.7122233437452933  0.11367706669651775  1.0000
  H   H21       1.0  0.7725977455520975  0.3097101938539736  0.2055974436238515  1.0000
  H   H22       1.0  0.22740260827205108  0.6902862242598787  0.794401168679798  1.0000
  H   H23       1.0  0.7035285800788104  0.4098876225079805  0.0729722890678559  1.0000
  H   H24       1.0  0.29646745151833187  0.5900914233523762  0.9270218926155068  1.0000
  H   H25       1.0  0.7335650269806282  0.811814334777182  0.7106866313213018  1.0000
  H   H26       1.0  0.2664177419435205  0.18819399487168195  0.2893123724155018  1.0000
  H   H27       1.0  0.7518414462871732  0.9700329193921602  0.6370502042285865  1.0000
  H   H28       1.0  0.24817814300902089  0.029986653311553403  0.3629413399774394  1.0000
  C   C1        1.0  0.5703363627803313  0.459948936545338  0.3360327649996364  1.0000
  C   C2        1.0  0.4296480312643567  0.5400592446608596  0.6639816842733168  1.0000
  C   C3        1.0  0.6597227387102292  0.3629324717520602  0.1504481533242696  1.0000
  C   C4        1.0  0.34027804750996876  0.6370629502466938  0.8495425143361715  1.0000
  C   C5        1.0  0.5075981900958553  0.25594802646114795  0.10410146358520933  1.0000
  C   C6        1.0  0.4923961247227738  0.7440568182772791  0.8959005329313572  1.0000
  C   C7        1.0  0.9052634100399432  0.676978846424042  0.549659897104043  1.0000
  C   C8        1.0  0.0947381453605445  0.3230258127728901  0.45033451519780243  1.0000
  C   C9        1.0  0.8201151965523152  0.8746425928861896  0.6646108261650738  1.0000
  C   C10       1.0  0.17988245527236302  0.1253673101978663  0.3353900214746162  1.0000
  C   C11       1.0  6.59391318932828e-05  0.9083339422339235  0.7546364594591425  1.0000
  C   C12       1.0  0.9999451692843238  0.0916672373496965  0.2453703821319948  1.0000
  N   N1        1.0  0.6064472221441192  0.4694998573414538  0.2230967608458059  1.0000
  N   N2        1.0  0.39355070671994946  0.5304904126501596  0.7769076182558409  1.0000
  N   N3        1.0  0.5491687189652694  0.5916063270166063  0.1743274135941633  1.0000
  N   N4        1.0  0.450844067038112  0.4083814294471323  0.8256725497631978  1.0000
  N   N5        1.0  0.48384424943904486  0.6538471169360633  0.2559735155930696  1.0000
  N   N6        1.0  0.5161578982924196  0.34615132699119033  0.7440218698949723  1.0000
  N   N7        1.0  0.4929821273446677  0.5769481545634745  0.35732367297345047  1.0000
  N   N8        1.0  0.5070018736551916  0.42305706126741416  0.6426719790646445  1.0000
  N   N9        1.0  0.6032192476249634  0.35322712085425667  0.41150024686885445  1.0000
  N   N10       1.0  0.39678844618681103  0.6467638890289463  0.5885005790124326  1.0000
  N   N11       1.0  0.8424595050811303  0.8045284766485988  0.5564225512208694  1.0000
  N   N12       1.0  0.15754418970290368  0.19548742081789777  0.44357853864744357  1.0000
  N   N13       1.0  0.8382062378425914  0.8695721238768143  0.4492583325964646  1.0000
  N   N14       1.0  0.1617965061736868  0.13043452578776984  0.5507416525193065  1.0000
  N   N15       1.0  0.8956664340310426  0.7833772001360442  0.3805841541238237  1.0000
  N   N16       1.0  0.10433090677062037  0.2166265565978094  0.6194112638784192  1.0000
  N   N17       1.0  0.9391155695232314  0.6622814742720634  0.4381740517840527  1.0000
  N   N18       1.0  0.06087716332005039  0.3377255641578643  0.5618151890384766  1.0000
  N   N19       1.0  0.932848475805507  0.5858628479670998  0.6411441652980301  1.0000
  N   N20       1.0  0.06714190525267578  0.4141514460250588  0.35885180389854554  1.0000
  O   O1        1.0  0.359874661158578  0.26704787351934567  0.1329915484694411  1.0000
  O   O2        1.0  0.6401393518676388  0.7329593605250011  0.8670220888880209  1.0000
  O   O3        1.0  0.14371034095726287  0.8925158538402299  0.7225004325721543  1.0000
  O   O4        1.0  0.8563055178134461  0.10749443040922559  0.2775108829092687  1.0000
  O   O5        1.0  0.15614728124253927  0.7573796800650853  0.0809607354751378  1.0000
  O   O6        1.0  0.8438486206043122  0.2426003795832443  0.9190369910366627  1.0000
  O   O7        1.0  0.4941773476491065  0.9560403322332788  0.2359886754286649  1.0000
  O   O8        1.0  0.505812368057974  0.04395120954185929  0.7640195499295431  1.0000
  O   O9        1.0  0.9830809865922491  0.9515055557761726  0.8590997584630531  1.0000
  O   O10       1.0  0.01693776050353079  0.04847581224266408  0.14090127044941173  1.0000
  O   O11       1.0  0.17087659321350657  0.21816115255419533  0.8708522375253622  1.0000
  O   O12       1.0  0.8291246639646347  0.7818351966401805  0.12915277760193083  1.0000
  O   O13       1.0  0.5441085861627641  0.15870677899610536  0.03854096988118981  1.0000
  O   O14       1.0  0.4558832087134377  0.8412888479795625  0.9614631986516925  1.0000
