data_image0
_chemical_formula_structural       Zn2H24C48N16O24
_chemical_formula_sum              "Zn2 H24 C48 N16 O24"
_cell_length_a       8.934900395370649
_cell_length_b       12.461901676787429
_cell_length_c       13.182071211368193
_cell_angle_alpha    101.4391083976604
_cell_angle_beta     92.6848070392212
_cell_angle_gamma    102.05463873744942

_space_group_name_H-M_alt    "P 1"
_space_group_IT_number       1

loop_
  _space_group_symop_operation_xyz
  'x, y, z'

loop_
  _atom_site_type_symbol
  _atom_site_label
  _atom_site_symmetry_multiplicity
  _atom_site_fract_x
  _atom_site_fract_y
  _atom_site_fract_z
  _atom_site_occupancy
  Zn  Zn1       1.0  0.39887411214100865  0.6516773464304676  0.5574732000869957  1.0000
  Zn  Zn2       1.0  0.6011251821339982  0.34832308540948276  0.4425291327985689  1.0000
  H   H1        1.0  0.14202911877530508  0.766283991204041  0.5239236176974913  1.0000
  H   H2        1.0  0.8579635630665832  0.23371305543950877  0.47608013971645835  1.0000
  H   H3        1.0  0.5395435108640996  0.8441184668659927  0.7294230295199852  1.0000
  H   H4        1.0  0.46046203517745  0.15588032897587564  0.27057847350888403  1.0000
  H   H5        1.0  0.11591865340658808  0.5051086638800368  0.5901566120137857  1.0000
  H   H6        1.0  0.8840849036313044  0.49489094628736996  0.4098434496375986  1.0000
  H   H7        1.0  0.5609278807988572  0.5794093614485971  0.7397332229128535  1.0000
  H   H8        1.0  0.4390805992047788  0.4205877321298246  0.2602604910755559  1.0000
  H   H9        1.0  0.09258545917003859  0.30068021419725705  0.26581756824693764  1.0000
  H   H10       1.0  0.9074172408323805  0.6993126999266719  0.7341835254292162  1.0000
  H   H11       1.0  0.6761280945666144  0.17485647541558075  0.08037026853906326  1.0000
  H   H12       1.0  0.3238696121853834  0.8251347363974231  0.9196318542037287  1.0000
  H   H13       1.0  0.09167019311853859  0.14364735725170158  0.5737708322914797  1.0000
  H   H14       1.0  0.908325270104129  0.8563513475258728  0.42622725659997934  1.0000
  H   H15       1.0  0.8785798550242558  0.29440515911432635  0.8352725736660458  1.0000
  H   H16       1.0  0.12141498737984335  0.7055952077917665  0.1647242767021452  1.0000
  H   H17       1.0  0.892078688886059  0.9425373060389715  0.7862524847751684  1.0000
  H   H18       1.0  0.10792087326554167  0.05746394683150408  0.21374697195782488  1.0000
  H   H19       1.0  0.33668344032128056  0.06293314301985477  0.010294844914120894  1.0000
  H   H20       1.0  0.6633083380447288  0.9370722678111887  0.9897088778970511  1.0000
  H   H21       1.0  0.3555097194518666  0.4131975332791098  0.01611355447112567  1.0000
  H   H22       1.0  0.6444917128800397  0.5868062375593508  0.9838849084841426  1.0000
  H   H23       1.0  0.5462126873512291  0.2169220485531298  0.7684834868258646  1.0000
  H   H24       1.0  0.453788122063841  0.783075875376312  0.23151768767480252  1.0000
  C   C1        1.0  0.17135453889809318  0.9187820678502159  0.64571604206494  1.0000
  C   C2        1.0  0.8286434968607919  0.08122170229874827  0.35428609161067465  1.0000
  C   C3        1.0  0.2129452688965969  0.822515105672366  0.5904988157070645  1.0000
  C   C4        1.0  0.7870532836382224  0.17748281155209603  0.4095037935686818  1.0000
  C   C5        1.0  0.433988714419037  0.8661490437950761  0.7052142379865457  1.0000
  C   C6        1.0  0.5660150654848408  0.13385142487479126  0.2947890217431918  1.0000
  C   C7        1.0  0.3874215523759616  0.9617877513337801  0.7560752013439254  1.0000
  C   C8        1.0  0.612576128342674  0.038210992936704685  0.24392676772452396  1.0000
  C   C9        1.0  0.15966884449748867  0.395651041844303  0.692779593418315  1.0000
  C   C10       1.0  0.8403340860955026  0.6043502351356195  0.30721998898865616  1.0000
  C   C11       1.0  0.19754389743861367  0.48696027516768925  0.6444862256321569  1.0000
  C   C12       1.0  0.8024617751508814  0.5130426927341887  0.35551300320439333  1.0000
  C   C13       1.0  0.44459313968644654  0.5280179658536922  0.727999322160002  1.0000
  C   C14       1.0  0.5554164462520104  0.4719791498131796  0.27199671155633337  1.0000
  C   C15       1.0  0.3979647149989489  0.4382087209374531  0.777151200253243  1.0000
  C   C16       1.0  0.6020368586616129  0.5617916988715166  0.22284666074178008  1.0000
  C   C17       1.0  0.883185139041707  0.16215241947631392  0.002595596542249682  1.0000
  C   C18       1.0  0.11681218310861395  0.8378488126372116  0.9974030171292224  1.0000
  C   C19       1.0  0.10855501184089181  0.23035676053407877  0.10245476774131389  1.0000
  C   C20       1.0  0.8914450466796068  0.7696461671853924  0.8975442516385993  1.0000
  C   C21       1.0  0.030648874409514776  0.26024827914035586  0.19038528106378289  1.0000
  C   C22       1.0  0.9693489476377692  0.7397471141006446  0.809616086044414  1.0000
  C   C23       1.0  0.8013643546723656  0.1906959432805734  0.08810476856877607  1.0000
  C   C24       1.0  0.19863296537969424  0.8092977797954217  0.9118977951713629  1.0000
  C   C25       1.0  0.994576534807457  0.034634130664990395  0.6744779927534877  1.0000
  C   C26       1.0  0.005420296600298886  0.9653654219155496  0.3255202989921954  1.0000
  C   C27       1.0  0.030964414480585793  0.13577828485142618  0.6424636979795082  1.0000
  C   C28       1.0  0.9690333871596621  0.8642246361630651  0.3575367561754844  1.0000
  C   C29       1.0  0.9876522730035046  0.2276175025218946  0.7021556683276626  1.0000
  C   C30       1.0  0.012348395082909677  0.7723837724370383  0.2978461081332497  1.0000
  C   C31       1.0  0.9114305350581515  0.22092919021185503  0.7907599206242607  1.0000
  C   C32       1.0  0.08856429046696226  0.779071190746208  0.20923920758053063  1.0000
  C   C33       1.0  0.8791661518203995  0.11762356307754367  0.8200925725352516  1.0000
  C   C34       1.0  0.12083477851628291  0.8823785375959118  0.17990708705195854  1.0000
  C   C35       1.0  0.91752086485009  0.022615081465950492  0.7623475024056247  1.0000
  C   C36       1.0  0.08248317730404853  0.977386212918439  0.2376536404504107  1.0000
  C   C37       1.0  0.44395087671782807  0.12996932334505826  0.8851644441607929  1.0000
  C   C38       1.0  0.5560522598621701  0.8700328261892946  0.11484061416113883  1.0000
  C   C39       1.0  0.3709869377905122  0.13625230334344707  0.9764854003570488  1.0000
  C   C40       1.0  0.6290103674808377  0.8637489428220559  0.02351549115101645  1.0000
  C   C41       1.0  0.33946040947904516  0.23917231249730964  0.021594537206382776  1.0000
  C   C42       1.0  0.660541011600209  0.7608314677091311  0.9784054443066166  1.0000
  C   C43       1.0  0.3815512890204431  0.3337887609705845  0.9794896154358381  1.0000
  C   C44       1.0  0.6184487695000555  0.6662141667488867  0.02050940394407517  1.0000
  C   C45       1.0  0.45517414794213107  0.3230100680904043  0.8885386841476614  1.0000
  C   C46       1.0  0.5448312736497484  0.6769920647289707  0.11146114300485978  1.0000
  C   C47       1.0  0.48847352417048734  0.22215028360945147  0.839752154317928  1.0000
  C   C48       1.0  0.5115291497985692  0.7778501629719654  0.1602487856838905  1.0000
  N   N1        1.0  0.25842223383394713  0.9882245713429609  0.7264674016269267  1.0000
  N   N2        1.0  0.741577294559697  0.011776709631462299  0.27353661077926006  1.0000
  N   N3        1.0  0.34488839086048984  0.7990374924446187  0.6223752085566474  1.0000
  N   N4        1.0  0.6551120374809682  0.2009629380638315  0.3776256476625121  1.0000
  N   N5        1.0  0.3413946768499939  0.5494232357675057  0.6614660483376653  1.0000
  N   N6        1.0  0.6586106575782295  0.4505746922039221  0.3385307380551196  1.0000
  N   N7        1.0  0.25814882137305506  0.3718886619574276  0.7586560119619888  1.0000
  N   N8        1.0  0.7418535959720598  0.6281109542254767  0.2413462856346554  1.0000
  N   N9        1.0  0.8771209946506743  0.23957394859049683  0.1814012486554829  1.0000
  N   N10       1.0  0.12287870673131346  0.7604164442129641  0.8186015561859319  1.0000
  N   N11       1.0  0.0356664420825865  0.18212193435839907  0.009379605698562396  1.0000
  N   N12       1.0  0.9643327389953952  0.8178818250910852  0.9906195327529159  1.0000
  N   N13       1.0  0.7077479180317852  0.6964401626188772  0.5641235640581994  1.0000
  N   N14       1.0  0.2922489358812754  0.30355937122570237  0.43587169057201436  1.0000
  N   N15       1.0  0.2625362839286183  0.5944444162840695  0.3547728335423627  1.0000
  N   N16       1.0  0.7374645704970604  0.4055534701734516  0.6452222667273799  1.0000
  O   O1        1.0  0.03629618047516193  0.940736834994851  0.6144461606220373  1.0000
  O   O2        1.0  0.9637044932375858  0.05926443528009167  0.3855548565600131  1.0000
  O   O3        1.0  0.47933404729405976  0.027321850226698488  0.840024691950674  1.0000
  O   O4        1.0  0.520661593783984  0.9726777505252495  0.15998266925007687  1.0000
  O   O5        1.0  0.26595007669879317  0.2503335415376781  0.11363083490056879  1.0000
  O   O6        1.0  0.73404896305054  0.7496735689412969  0.8863689055111548  1.0000
  O   O7        1.0  0.802094546780907  0.10861960071616748  0.9090523995577867  1.0000
  O   O8        1.0  0.19790301511437744  0.891382475847841  0.09094713435543866  1.0000
  O   O9        1.0  0.5015687832864302  0.41830659491935757  0.8461570019672775  1.0000
  O   O10       1.0  0.4984397670018836  0.5816947175589815  0.15384203061746857  1.0000
  O   O11       1.0  0.016763538251787186  0.3292380419327613  0.6685689788732957  1.0000
  O   O12       1.0  0.9832389015986324  0.6707615555141826  0.33143028160789356  1.0000
  O   O13       1.0  0.8422499218037912  0.708918624765559  0.5425378692208864  1.0000
  O   O14       1.0  0.15774925927419758  0.2910851346839251  0.4574612692305917  1.0000
  O   O15       1.0  0.5959455341084733  0.6539173267770194  0.4895884090375659  1.0000
  O   O16       1.0  0.4040497118745421  0.3460805148141119  0.5104057224966708  1.0000
  O   O17       1.0  0.6695395307899972  0.7227675436963991  0.6553741532284219  1.0000
  O   O18       1.0  0.3304537093103832  0.27723112627224816  0.34462081476491585  1.0000
  O   O19       1.0  0.20478143117232145  0.5325937226477178  0.2707960205241732  1.0000
  O   O20       1.0  0.7952251561457048  0.46740087169868605  0.7292017243574235  1.0000
  O   O21       1.0  0.33117080078089595  0.6953707181030352  0.3658968255678943  1.0000
  O   O22       1.0  0.6688289364573164  0.3046271556340159  0.6340974735316536  1.0000
  O   O23       1.0  0.2514601624569011  0.5515616442361093  0.43938717004611044  1.0000
  O   O24       1.0  0.7485357971346643  0.44843873539045365  0.5606104814922757  1.0000
