data_image0
_chemical_formula_structural       Zn16H16C96S16N16O88
_chemical_formula_sum              "Zn16 H16 C96 S16 N16 O88"
_cell_length_a       19.612167949325514
_cell_length_b       19.58524867536633
_cell_length_c       33.304623681144925
_cell_angle_alpha    79.09655211789232
_cell_angle_beta     79.01259149710091
_cell_angle_gamma    63.84007601456846

_space_group_name_H-M_alt    "P 1"
_space_group_IT_number       1

loop_
  _space_group_symop_operation_xyz
  'x, y, z'

loop_
  _atom_site_type_symbol
  _atom_site_label
  _atom_site_symmetry_multiplicity
  _atom_site_fract_x
  _atom_site_fract_y
  _atom_site_fract_z
  _atom_site_occupancy
  Zn  Zn1       1.0  0.05452588881696131  0.3996514609595111  0.4776585637507083  1.0000
  Zn  Zn2       1.0  0.9887884777245192  0.48190403638379575  0.5597170178392972  1.0000
  Zn  Zn3       1.0  0.05789204016721782  0.5635766937222539  0.48119607387097574  1.0000
  Zn  Zn4       1.0  0.9023142956968898  0.5549193119427615  0.4778023128196551  1.0000
  Zn  Zn5       1.0  0.6945289057554194  0.34865751592138833  0.2718323769227524  1.0000
  Zn  Zn6       1.0  0.6901087086169257  0.18999472185151217  0.2637953571741107  1.0000
  Zn  Zn7       1.0  0.7721949968576711  0.2647459478547133  0.1890185997584695  1.0000
  Zn  Zn8       1.0  0.8504251972151737  0.19691464634617958  0.2709711744710717  1.0000
  Zn  Zn9       1.0  0.2687340355531235  0.7633317219786588  0.6885782877969433  1.0000
  Zn  Zn10      1.0  0.35076541114420945  0.696766047164857  0.7700351464446484  1.0000
  Zn  Zn11      1.0  0.1937582060319657  0.8475512034194637  0.7713456804056733  1.0000
  Zn  Zn12      1.0  0.1904264223302975  0.6880324958331486  0.764478201840916  1.0000
  Zn  Zn13      1.0  0.5586845055718612  0.06288991041445513  0.9823867974542607  1.0000
  Zn  Zn14      1.0  0.403137803307672  0.053691928564532525  0.9762184628698022  1.0000
  Zn  Zn15      1.0  0.5551611925120528  0.8995824687062706  0.9779105936249052  1.0000
  Zn  Zn16      1.0  0.4861669301856538  0.9850624768863557  0.059780950604910274  1.0000
  H   H1        1.0  0.9525721893977349  0.24599477007591722  0.35217538595603765  1.0000
  H   H2        1.0  0.7441799144389238  0.45392299787100404  0.3512261358609337  1.0000
  H   H3        1.0  0.99925831024553  0.2968977349068355  0.3996342344966805  1.0000
  H   H4        1.0  0.0935612602474976  0.6011094802960101  0.6979990776392953  1.0000
  H   H5        1.0  0.20471246639206703  0.7018961233936238  0.5959903761655738  1.0000
  H   H6        1.0  0.04611756746824371  0.5560723281739897  0.648113399642483  1.0000
  H   H7        1.0  0.5535048609945646  0.0507788126563327  0.15056938106696544  1.0000
  H   H8        1.0  0.6526961923145367  0.15695552748235986  0.04528163697378322  1.0000
  H   H9        1.0  0.6042363043326446  0.099176208452775  0.19719591017436502  1.0000
  H   H10       1.0  0.5010536177909799  0.791134874682804  0.8998898655304544  1.0000
  H   H11       1.0  0.29504886889209564  0.0013786580164066298  0.9013318697553744  1.0000
  H   H12       1.0  0.4497505968575838  0.7460981840827752  0.8518435733406877  1.0000
  H   H13       1.0  0.802285584221309  0.5255346887323781  0.42158377267585223  1.0000
  H   H14       1.0  0.15024441359781807  0.6302674618718315  0.523891112808144  1.0000
  H   H15       1.0  0.7166521478091002  0.2364095306831047  0.1088614530505723  1.0000
  H   H16       1.0  0.22294323005984043  0.9449299188922705  0.830318365176133  1.0000
  C   C1        1.0  0.0651681014500625  0.31577364935255764  0.5603364956577934  1.0000
  C   C2        1.0  0.07204424609919613  0.5725169344297072  0.5664378333504771  1.0000
  C   C3        1.0  0.17958482493450845  0.4400448475512351  0.4370355309424808  1.0000
  C   C4        1.0  0.9362999369004259  0.6852562230064477  0.43821122413123687  1.0000
  C   C5        1.0  0.9275381258758844  0.42973101476625425  0.4308997441958197  1.0000
  C   C6        1.0  0.8223222212706177  0.5578437525113814  0.5609390373659411  1.0000
  C   C7        1.0  0.5671949297066448  0.30961651458188305  0.3100487024794134  1.0000
  C   C8        1.0  0.6832921832696285  0.18356232501229647  0.1766146592456153  1.0000
  C   C9        1.0  0.6915061500074986  0.43119650298315537  0.18933112880438333  1.0000
  C   C10       1.0  0.9367588040565027  0.18882413987453356  0.18885415690406399  1.0000
  C   C11       1.0  0.8177129690035516  0.31883130403850396  0.31989493160028104  1.0000
  C   C12       1.0  0.8107837683942948  0.06883352918525518  0.3075205428912184  1.0000
  C   C13       1.0  0.4349283248240142  0.6869217293403478  0.6879877408802457  1.0000
  C   C14       1.0  0.31795327518624833  0.8203920728807998  0.8198590129695233  1.0000
  C   C15       1.0  0.19384800941928407  0.9299596392170885  0.6889082883823647  1.0000
  C   C16       1.0  0.06636365587370822  0.809728074838965  0.8096068333685693  1.0000
  C   C17       1.0  0.18001969959352954  0.6820230242943381  0.6789991509644439  1.0000
  C   C18       1.0  0.31153201577706113  0.5694832067799283  0.8098011729578757  1.0000
  C   C19       1.0  0.43816141902743777  0.18319767808132076  0.937729770337171  1.0000
  C   C20       1.0  0.4303927515313291  0.9267696364537347  0.9319688112615195  1.0000
  C   C21       1.0  0.6805622272184237  0.9401907895251824  0.9381384626891105  1.0000
  C   C22       1.0  0.5623225527416978  0.8174909632945102  0.061279228305551214  1.0000
  C   C23       1.0  0.571443492356309  0.07155704831667715  0.067209575873207  1.0000
  C   C24       1.0  0.32147336541998334  0.061732024399866206  0.0594572778591029  1.0000
  C   C25       1.0  0.8978233945697199  0.4022670682189328  0.4029420697008277  1.0000
  C   C26       1.0  0.845770641476861  0.3474498590536611  0.3488652736216693  1.0000
  C   C27       1.0  0.8243717617206842  0.44697534603541567  0.3895666108225839  1.0000
  C   C28       1.0  0.9179232472257655  0.30206349718682896  0.3625799259887827  1.0000
  C   C29       1.0  0.7998335487806898  0.41905423183073504  0.36196790373340093  1.0000
  C   C30       1.0  0.9433387496716252  0.330168870771317  0.38892004120882717  1.0000
  C   C31       1.0  0.100804099588963  0.600826151546883  0.594432217552793  1.0000
  C   C32       1.0  0.151717881847631  0.6542649644542494  0.6497235488844026  1.0000
  C   C33       1.0  0.14703580409327802  0.641585738862311  0.5793986502417283  1.0000
  C   C34       1.0  0.1073301011800751  0.6125170516287498  0.6649154442016112  1.0000
  C   C35       1.0  0.17068637340251772  0.6693146229873862  0.6075598323402644  1.0000
  C   C36       1.0  0.08161708273121351  0.5873385416149333  0.6373037053955811  1.0000
  C   C37       1.0  0.3056801832947401  0.45258446290009147  0.40197879814095927  1.0000
  C   C38       1.0  0.44711285867727213  0.29208264471998996  0.3513777037270104  1.0000
  C   C39       1.0  0.2580297201505033  0.41478036522240563  0.41469350323023246  1.0000
  C   C40       1.0  0.49367806955306304  0.3307566878853476  0.3375234156117131  1.0000
  C   C41       1.0  0.37694830422476144  0.3377552298185549  0.37322889093093886  1.0000
  C   C42       1.0  0.3730897278577744  0.40942837763667944  0.3772564616904218  1.0000
  C   C43       1.0  0.7294587304374645  0.5770095705394527  0.6300038830680919  1.0000
  C   C44       1.0  0.5284062878353383  0.6756673115248334  0.6195314096252814  1.0000
  C   C45       1.0  0.7478882748470924  0.5854498107200071  0.5873728891117125  1.0000
  C   C46       1.0  0.5099736610347138  0.6660050026044858  0.6620754374355541  1.0000
  C   C47       1.0  0.6082980912330456  0.6399990456199092  0.6075889973105293  1.0000
  C   C48       1.0  0.6493991361250695  0.6065334606895475  0.6416669152089228  1.0000
  C   C49       1.0  0.07536899542616032  0.22337325035743308  0.6289658757076211  1.0000
  C   C50       1.0  0.17438216361576764  0.021684369507987376  0.6194939004338522  1.0000
  C   C51       1.0  0.0853103904836701  0.24099992698010203  0.5863635457789798  1.0000
  C   C52       1.0  0.16597775148914456  0.0041196860377254955  0.6621676307301527  1.0000
  C   C53       1.0  0.14457149790838036  0.10169289370352888  0.6074118707085958  1.0000
  C   C54       1.0  0.11101348695882512  0.14360614355083362  0.641249002508836  1.0000
  C   C55       1.0  0.8387799470593793  0.8065807356840792  0.39816571687641295  1.0000
  C   C56       1.0  0.9034668543751752  0.9531275710015877  0.3531651899480223  1.0000
  C   C57       1.0  0.9073275194734479  0.7627108992647109  0.41486463420574893  1.0000
  C   C58       1.0  0.8358202361617376  0.995950506167304  0.3354544776600221  1.0000
  C   C59       1.0  0.9061264845865015  0.8823702818279529  0.37440464765212067  1.0000
  C   C60       1.0  0.8386174528023462  0.874338262619787  0.37399260003000734  1.0000
  C   C61       1.0  0.6545428309883264  0.1568185850213695  0.14783198103030062  1.0000
  C   C62       1.0  0.6005612122831965  0.10100405009860948  0.09524484129652681  1.0000
  C   C63       1.0  0.6674936919262252  0.1745677364477771  0.10442001403077938  1.0000
  C   C64       1.0  0.5859101813369918  0.0846880085123942  0.13823087854567007  1.0000
  C   C65       1.0  0.6413201086635996  0.1447517030686639  0.07852418768380427  1.0000
  C   C66       1.0  0.6136477906626326  0.11178662302446446  0.16386030630933848  1.0000
  C   C67       1.0  0.6711925305910214  0.5232835847427141  0.12020748097634738  1.0000
  C   C68       1.0  0.5719835359245807  0.7247761347128477  0.12999720800101494  1.0000
  C   C69       1.0  0.6626389768645639  0.5054839310475004  0.16284465496316608  1.0000
  C   C70       1.0  0.5821291227261939  0.7427086528439019  0.087446549428094  1.0000
  C   C71       1.0  0.6075728720232689  0.6449325282534419  0.14212471886612119  1.0000
  C   C72       1.0  0.6413058382122473  0.6033186978237095  0.10819902114893411  1.0000
  C   C73       1.0  0.08611383818311683  0.11879711803696576  0.17684615608055052  1.0000
  C   C74       1.0  0.1715964505958212  0.12192453668956925  0.0712166234335427  1.0000
  C   C75       1.0  0.013214888511825503  0.1586768951493767  0.16458180131024136  1.0000
  C   C76       1.0  0.2446171554636507  0.08351926506655624  0.08346510505571561  1.0000
  C   C77       1.0  0.1138859427036749  0.13793776849867362  0.1053277429763568  1.0000
  C   C78       1.0  0.14419850809935042  0.10841540019674768  0.1430037782769915  1.0000
  C   C79       1.0  0.3453297861757036  0.8486869046386193  0.8486290153963694  1.0000
  C   C80       1.0  0.400839124111137  0.8988885413186409  0.9033425663775175  1.0000
  C   C81       1.0  0.3012429536122739  0.9219583053472322  0.862490130812148  1.0000
  C   C82       1.0  0.44531537020421313  0.8266199560773801  0.889411947464474  1.0000
  C   C83       1.0  0.32942517226010887  0.9457047199190857  0.8903458546327698  1.0000
  C   C84       1.0  0.4170177146670398  0.8020752779315002  0.8627386160715886  1.0000
  C   C85       1.0  0.4045512098564716  0.4527782504441262  0.8547333321973198  1.0000
  C   C86       1.0  0.3402382870519959  0.305574692135508  0.8984966807258276  1.0000
  C   C87       1.0  0.33643565235249895  0.4964480406040509  0.8375549937966014  1.0000
  C   C88       1.0  0.40899350568803783  0.26113832717148716  0.9147982071595565  1.0000
  C   C89       1.0  0.339779471030191  0.3739449900287965  0.8749541107251702  1.0000
  C   C90       1.0  0.40751641214108514  0.3815633846786426  0.8753306753054275  1.0000
  C   C91       1.0  0.9464112658032637  0.7922887550217227  0.8512152124377437  1.0000
  C   C92       1.0  0.806086287868304  0.9530011868515442  0.9020151044260699  1.0000
  C   C93       1.0  0.9929492682502005  0.8309393479244844  0.8370277450390802  1.0000
  C   C94       1.0  0.758666480491222  0.9150973305500897  0.915346324757131  1.0000
  C   C95       1.0  0.8729304853595538  0.909780228660857  0.8769868020999141  1.0000
  C   C96       1.0  0.8765740055244466  0.83806391930959  0.8732552324364634  1.0000
  S   S1        1.0  0.29704969428646416  0.32541028759160895  0.39744809035702394  1.0000
  S   S2        1.0  0.45249862337429664  0.42217283783585924  0.35247440514403644  1.0000
  S   S3        1.0  0.6670847953480106  0.6315248461175856  0.5617782484953651  1.0000
  S   S4        1.0  0.5906223897208632  0.6150250317331545  0.6875140239751261  1.0000
  S   S5        1.0  0.13631780859208936  0.15959326541447888  0.5613353285221052  1.0000
  S   S6        1.0  0.1196324841184975  0.08564330925864282  0.6873143736006356  1.0000
  S   S7        1.0  0.9705911151617815  0.8057609747124914  0.4019698840635684  1.0000
  S   S8        1.0  0.774614118257773  0.9506284736366196  0.3459850062021276  1.0000
  S   S9        1.0  0.6160572031377002  0.5867575300193907  0.18811554552591048  1.0000
  S   S10       1.0  0.633258421465854  0.6615915233217822  0.062248957311773274  1.0000
  S   S11       1.0  0.015789756379909606  0.1815399324177775  0.11149160760497522  1.0000
  S   S12       1.0  0.24237888565524912  0.06513895666984841  0.1366515038944129  1.0000
  S   S13       1.0  0.2752358107244035  0.45118733552596524  0.8477412773992299  1.0000
  S   S14       1.0  0.4723188211504877  0.304061497388176  0.9022765307071196  1.0000
  S   S15       1.0  0.9520358497196285  0.9225127896449407  0.8517668575717892  1.0000
  S   S16       1.0  0.797076885823266  0.8257079086241461  0.8982001822238743  1.0000
  N   N1        1.0  0.2957580713935784  0.5249975718373036  0.41330837260561276  1.0000
  N   N2        1.0  0.4647666618160785  0.2127509470527045  0.3480158838067736  1.0000
  N   N3        1.0  0.7808206886543091  0.5484303870025825  0.6616972001749346  1.0000
  N   N4        1.0  0.47701119087153654  0.721087508659167  0.5885985278044785  1.0000
  N   N5        1.0  0.029771698455270706  0.27534890123337863  0.6597086360584399  1.0000
  N   N6        1.0  0.2032795395553251  0.96948021849267  0.5881062291058754  1.0000
  N   N7        1.0  0.7700389287275302  0.792656234335972  0.4050852950334658  1.0000
  N   N8        1.0  0.964941287960855  0.9750982812503892  0.3545941423261779  1.0000
  N   N9        1.0  0.7011761327411749  0.4708741401672826  0.08896999884328952  1.0000
  N   N10       1.0  0.5270232953368322  0.7765117727943933  0.16091449770927108  1.0000
  N   N11       1.0  0.10642532968177684  0.08471293440869941  0.21817843090897074  1.0000
  N   N12       1.0  0.1500120920553415  0.1406437744178817  0.029620440362300802  1.0000
  N   N13       1.0  0.4664751643664787  0.4741398903435154  0.8558298891059763  1.0000
  N   N14       1.0  0.2715812325323911  0.29153520109254316  0.9053937654280445  1.0000
  N   N15       1.0  0.9637322695777828  0.7129201051495783  0.8480774980784177  1.0000
  N   N16       1.0  0.7965911246543199  0.025532294316420266  0.9129567016392031  1.0000
  O   O1        1.0  0.0015044190688656002  0.49946745957594646  0.49897076843099336  1.0000
  O   O2        1.0  0.06609744583691682  0.3137659769201804  0.5220284489812171  1.0000
  O   O3        1.0  0.0249539144838664  0.5431752204978295  0.5818711154917794  1.0000
  O   O4        1.0  0.14012013873708182  0.5113093379516727  0.4384783009576623  1.0000
  O   O5        1.0  0.05136188842270431  0.37371184830965387  0.5776248971149656  1.0000
  O   O6        1.0  0.15860763483629373  0.3860042937279644  0.4517366559565161  1.0000
  O   O7        1.0  0.09638784088344472  0.5794914211943052  0.5274026078930447  1.0000
  O   O8        1.0  0.9955652480164049  0.6673485750403003  0.45582513253621926  1.0000
  O   O9        1.0  0.8809662177799711  0.4931291495093291  0.44595153441571267  1.0000
  O   O10       1.0  0.9024923365023486  0.6431195217108222  0.43788105918148545  1.0000
  O   O11       1.0  0.9963467748035628  0.3906831381293116  0.43871238446906347  1.0000
  O   O12       1.0  0.879990580682126  0.5054338902732808  0.5766977264149631  1.0000
  O   O13       1.0  0.8198389200563554  0.589210044990608  0.5234576701413474  1.0000
  O   O14       1.0  0.7506658273130073  0.2504152131887523  0.24912270737069525  1.0000
  O   O15       1.0  0.6025839211773273  0.3511356872423409  0.30985297209785756  1.0000
  O   O16       1.0  0.6761576834859043  0.15906178433071008  0.21474518720488328  1.0000
  O   O17       1.0  0.7467555384870437  0.3748899905225472  0.1737481539048886  1.0000
  O   O18       1.0  0.586789409223627  0.2552757555123222  0.2887141891950904  1.0000
  O   O19       1.0  0.6585297155876477  0.43243822862385856  0.2264432170474393  1.0000
  O   O20       1.0  0.7147355094570643  0.23046326754075622  0.1612285493972294  1.0000
  O   O21       1.0  0.8806119802465845  0.20792756477465707  0.1684233345172501  1.0000
  O   O22       1.0  0.8560307279874666  0.24867150968112373  0.3137257687438719  1.0000
  O   O23       1.0  0.9329195474927588  0.19540496452262351  0.22646467744422694  1.0000
  O   O24       1.0  0.7577813593049784  0.36671347919762803  0.303579645491638  1.0000
  O   O25       1.0  0.7391053404690525  0.10087941760389899  0.30396360705729114  1.0000
  O   O26       1.0  0.8613802754164087  0.09127616757401563  0.2890323730588165  1.0000
  O   O27       1.0  0.25048904435874425  0.7494598084267353  0.7493723984637481  1.0000
  O   O28       1.0  0.3771506475365385  0.7002373450730844  0.6708365237663898  1.0000
  O   O29       1.0  0.3577930410378869  0.7523786465610415  0.8107970896419019  1.0000
  O   O30       1.0  0.16160608397515835  0.9325702841840025  0.7262358392678722  1.0000
  O   O31       1.0  0.43677269774774896  0.6871118787022823  0.7261661760434848  1.0000
  O   O32       1.0  0.24731454654767765  0.8725186997143483  0.6734125972418497  1.0000
  O   O33       1.0  0.25414238061366495  0.8671547454349878  0.8053682652802578  1.0000
  O   O34       1.0  0.10104365596271953  0.8522397823327169  0.8088668968779159  1.0000
  O   O35       1.0  0.174959629112287  0.6542475033537516  0.7168543367488596  1.0000
  O   O36       1.0  0.08691630061767341  0.7544601118477416  0.7888467838028888  1.0000
  O   O37       1.0  0.2073426342056379  0.7311356946459497  0.6639107793365682  1.0000
  O   O38       1.0  0.362354393746621  0.5919126997320205  0.7916017491366816  1.0000
  O   O39       1.0  0.24001611909267953  0.6015646347501189  0.8059481921403774  1.0000
  O   O40       1.0  0.5014623404648831  0.9990606637669688  0.9992962156330734  1.0000
  O   O41       1.0  0.4958079777481785  0.16617670248011504  0.9564812666039516  1.0000
  O   O42       1.0  0.38326841642855675  0.9874070062744236  0.9479712101547051  1.0000
  O   O43       1.0  0.6601745365525248  0.8859307439176335  0.9533398621637589  1.0000
  O   O44       1.0  0.40602024079513654  0.14035619080460293  0.935822685954676  1.0000
  O   O45       1.0  0.6409235387923147  0.011438247148063869  0.9393416886388408  1.0000
  O   O46       1.0  0.5005078024958679  0.887992738559298  0.9380687446235427  1.0000
  O   O47       1.0  0.5659710911007848  0.8143378188742644  0.022867278002102906  1.0000
  O   O48       1.0  0.5237779534075601  0.04318886068722354  0.08390571167193168  1.0000
  O   O49       1.0  0.5462932762289158  0.8758688089348182  0.07865443559480674  1.0000
  O   O50       1.0  0.596154540873471  0.07715015320967204  0.02889988106474559  1.0000
  O   O51       1.0  0.3259782721552398  0.09474785499114093  0.0230795242244639  1.0000
  O   O52       1.0  0.3767021193635714  0.012454004958875884  0.0790547071423404  1.0000
  O   O53       1.0  0.776331986194677  0.5158493321743192  0.40178692118639964  1.0000
  O   O54       1.0  0.16966392866724792  0.6556635815694278  0.5391470783876215  1.0000
  O   O55       1.0  0.7042006020217713  0.21862588013438966  0.08633398513866551  1.0000
  O   O56       1.0  0.2326683428803379  0.9706616844350504  0.8502611346456279  1.0000
  O   O57       1.0  0.33182817054581204  0.5578153940254892  0.3889769189166614  1.0000
  O   O58       1.0  0.2565935591151175  0.5471901311624948  0.4458876557731131  1.0000
  O   O59       1.0  0.407893709244128  0.19933117767645575  0.348949008664249  1.0000
  O   O60       1.0  0.5319049807955312  0.1647978834590517  0.34642723434866707  1.0000
  O   O61       1.0  0.7544213861925615  0.5252556027940899  0.6958621421679823  1.0000
  O   O62       1.0  0.8431791119820746  0.5521935577661593  0.6538343816644955  1.0000
  O   O63       1.0  0.5005853893625841  0.7010691334414431  0.5533205012672155  1.0000
  O   O64       1.0  0.41738532268618667  0.7765177351773578  0.5983480362493907  1.0000
  O   O65       1.0  0.050074042196357006  0.25278815158173273  0.694910180050762  1.0000
  O   O66       1.0  0.9738809116281008  0.33437075430067137  0.6499182267926643  1.0000
  O   O67       1.0  0.22554928190304224  0.995787491289498  0.5536394360970363  1.0000
  O   O68       1.0  0.20069750087510846  0.9065681761212899  0.5964999686989927  1.0000
  O   O69       1.0  0.7282008723203577  0.8221658916515935  0.3769653692036883  1.0000
  O   O70       1.0  0.7560848238629562  0.7568897366480839  0.4378417772678204  1.0000
  O   O71       1.0  0.027693592343851502  0.9203701846264706  0.36079929404719013  1.0000
  O   O72       1.0  0.951051007266635  0.043533328796271906  0.35176598968783424  1.0000
  O   O73       1.0  0.7239635586146351  0.4969426476719363  0.05459664800780927  1.0000
  O   O74       1.0  0.6994262013569427  0.40748265409417417  0.09738085000923755  1.0000
  O   O75       1.0  0.547846459658679  0.7535409791973039  0.19601696751163195  1.0000
  O   O76       1.0  0.47118729380574126  0.8358430040324693  0.1514430647683298  1.0000
  O   O77       1.0  0.17048853822524992  0.0766942920227294  0.22426552687564077  1.0000
  O   O78       1.0  0.06232380250769151  0.06356885905847069  0.2431044979509167  1.0000
  O   O79       1.0  0.08515585492318681  0.19353498529851276  0.02581104068422489  1.0000
  O   O80       1.0  0.19356041302788196  0.10237823639422318  0.0022599836800977938  1.0000
  O   O81       1.0  0.5298022728933703  0.41917405695654236  0.8604832372217786  1.0000
  O   O82       1.0  0.4527004824390772  0.542421061762795  0.8540532183123447  1.0000
  O   O83       1.0  0.22891399940278487  0.3224379016838982  0.877671787930062  1.0000
  O   O84       1.0  0.2586428293763135  0.25428300051881786  0.9377546174998842  1.0000
  O   O85       1.0  0.9066615721307301  0.6996517226269318  0.8493460494197292  1.0000
  O   O86       1.0  0.030813765718129108  0.6648123070840127  0.8463530845630771  1.0000
  O   O87       1.0  0.832152879413748  0.0583047081268545  0.8880896501562744  1.0000
  O   O88       1.0  0.7582934804379919  0.04786074255571994  0.945661096371161  1.0000
