data_image0
_chemical_formula_structural       Cu4H60C32S8I4N4O4
_chemical_formula_sum              "Cu4 H60 C32 S8 I4 N4 O4"
_cell_length_a       8.093891206387022
_cell_length_b       10.469867960000318
_cell_length_c       14.435859065364106
_cell_angle_alpha    90.00002813889307
_cell_angle_beta     90.48755416969541
_cell_angle_gamma    89.99999614975721

_space_group_name_H-M_alt    "P 1"
_space_group_IT_number       1

loop_
  _space_group_symop_operation_xyz
  'x, y, z'

loop_
  _atom_site_type_symbol
  _atom_site_label
  _atom_site_symmetry_multiplicity
  _atom_site_fract_x
  _atom_site_fract_y
  _atom_site_fract_z
  _atom_site_occupancy
  Cu  Cu1       1.0  0.0326326169974109  0.6299114801686443  0.009580906398930696  1.0000
  Cu  Cu2       1.0  0.9673638242353565  0.12991104041077506  0.49041905082330556  1.0000
  Cu  Cu3       1.0  0.9673655922177673  0.37008997906686864  0.990419836340983  1.0000
  Cu  Cu4       1.0  0.0326343808571963  0.8700885085807427  0.5095809991810325  1.0000
  H   H1        1.0  0.4183000260435747  0.7137406094998013  0.019510881728820092  1.0000
  H   H2        1.0  0.5816988763531087  0.21374114104348507  0.48048841972156686  1.0000
  H   H3        1.0  0.5816981749262596  0.2862598946133659  0.980488475540454  1.0000
  H   H4        1.0  0.41830056427691187  0.7862603181917576  0.5195116338664432  1.0000
  H   H5        1.0  0.3150511494295714  0.8597185855422396  0.04828575211192289  1.0000
  H   H6        1.0  0.6849489825474678  0.3597200465663661  0.45171429754417847  1.0000
  H   H7        1.0  0.6849482912005841  0.1402790532054752  0.9517143014754122  1.0000
  H   H8        1.0  0.31505169362012003  0.6402804575469645  0.5482857596269921  1.0000
  H   H9        1.0  0.45339729202358814  0.8568086316920327  0.9528910658013954  1.0000
  H   H10       1.0  0.5466026819683661  0.35680982663501476  0.5471097650003143  1.0000
  H   H11       1.0  0.5466046238042991  0.14318996217772909  0.04710968768799969  1.0000
  H   H12       1.0  0.453397994199193  0.6431916326001924  0.45289029217101956  1.0000
  H   H13       1.0  0.3568972560370582  0.5821785921865654  0.8735776536845062  1.0000
  H   H14       1.0  0.6431027286728579  0.08217888004440971  0.626421694031002  1.0000
  H   H15       1.0  0.6431034118851215  0.4178228670481729  0.12642101801635863  1.0000
  H   H16       1.0  0.3568979474947014  0.9178225791908046  0.3735783631403321  1.0000
  H   H17       1.0  0.19786288907182842  0.6179918190978597  0.7911665684459945  1.0000
  H   H18       1.0  0.8021383245800494  0.11799119825577256  0.70883210284704  1.0000
  H   H19       1.0  0.8021377788503586  0.3820096401368858  0.20883210325487053  1.0000
  H   H20       1.0  0.19786358712511293  0.8820083507356383  0.2911679579072909  1.0000
  H   H21       1.0  0.3549282366907818  0.8136446947239832  0.7411939505205892  1.0000
  H   H22       1.0  0.6450729758192892  0.31364316197048936  0.7588068685216169  1.0000
  H   H23       1.0  0.6450724435994318  0.18635771963334238  0.25880679938615697  1.0000
  H   H24       1.0  0.35492646068808403  0.6863573421426422  0.2411924923309811  1.0000
  H   H25       1.0  0.5130007820965689  0.7773157012871579  0.8214298659611996  1.0000
  H   H26       1.0  0.48699795772423476  0.277315078650659  0.6785702402663458  1.0000
  H   H27       1.0  0.4869949477981592  0.2226857579479642  0.17856948414158316  1.0000
  H   H28       1.0  0.5130027184433531  0.7226854254626717  0.32142981690481776  1.0000
  H   H29       1.0  0.7277829762649973  0.6730716825757597  0.5270565533883482  1.0000
  H   H30       1.0  0.2722182418289592  0.173071272268146  0.9729435229530022  1.0000
  H   H31       1.0  0.2722164602423689  0.32692882153737196  0.4729428074642497  1.0000
  H   H32       1.0  0.7277836657534777  0.8269292318449146  0.027055845066264794  1.0000
  H   H33       1.0  0.6635424210719877  0.5324109054800061  0.5881097256599472  1.0000
  H   H34       1.0  0.3364551001220448  0.032410449965318805  0.9118902899343906  1.0000
  H   H35       1.0  0.3364533129454941  0.46758864351158275  0.411890317177729  1.0000
  H   H36       1.0  0.6635468115831175  0.9675890990260925  0.08810977081994047  1.0000
  H   H37       1.0  0.9741572938873803  0.5476001968790172  0.5802074523149726  1.0000
  H   H38       1.0  0.0258402262577917  0.047600720296713896  0.919792568678481  1.0000
  H   H39       1.0  0.025838436007418905  0.4523993521123373  0.41979189778746206  1.0000
  H   H40       1.0  0.9741604581552111  0.9523988286952018  0.08020887396300216  1.0000
  H   H41       1.0  0.9020620429442943  0.554503859445802  0.6966044715156199  1.0000
  H   H42       1.0  0.09793669989365132  0.05450429966884939  0.8033934773092992  1.0000
  H   H43       1.0  0.09793615390287871  0.44549568954523977  0.3033941930182421  1.0000
  H   H44       1.0  0.9020639680285997  0.9454952493221285  0.19660519439122476  1.0000
  H   H45       1.0  0.8640283167242941  0.7849662051134981  0.7859434855577802  1.0000
  H   H46       1.0  0.1359728895206587  0.28496467226669614  0.7140559378203545  1.0000
  H   H47       1.0  0.13597111566038933  0.21503429899939164  0.21405518255958356  1.0000
  H   H48       1.0  0.8640277866469648  0.7150348767247507  0.2859441193506455  1.0000
  H   H49       1.0  0.9084456249589863  0.9309632492854191  0.7264461749843532  1.0000
  H   H50       1.0  0.09155803815710332  0.43096462477867453  0.7735526147194702  1.0000
  H   H51       1.0  0.09155628262349323  0.06903629970575761  0.2735531930347363  1.0000
  H   H52       1.0  0.9084413942275803  0.5690358793342227  0.2264460533978933  1.0000
  H   H53       1.0  0.6079472348793759  0.8864889595559903  0.7167147249026511  1.0000
  H   H54       1.0  0.39205643955317987  0.3864865033073884  0.7832854344628611  1.0000
  H   H55       1.0  0.3920509743357314  0.11351440992329738  0.2832860178376108  1.0000
  H   H56       1.0  0.6079454639066031  0.6135130456835542  0.21671324082099364  1.0000
  H   H57       1.0  0.698115423464735  0.8774802095002839  0.6052676744236506  1.0000
  H   H58       1.0  0.30188702017500185  0.3774787892856253  0.8947331708918396  1.0000
  H   H59       1.0  0.30188525270282446  0.12252124973493045  0.3947323827476835  1.0000
  H   H60       1.0  0.6981136559926285  0.6225207597058214  0.10526688627915345  1.0000
  C   C1        1.0  0.3621231221603552  0.8010858816968919  0.9914361626044933  1.0000
  C   C2        1.0  0.6378768515566193  0.3010860899638104  0.5085639556554965  1.0000
  C   C3        1.0  0.637876314347011  0.19891462241623967  0.008563198248104696  1.0000
  C   C4        1.0  0.3621250642711971  0.6989144141497191  0.4914367978342396  1.0000
  C   C5        1.0  0.29575011220259745  0.6591604494738661  0.8347207373185906  1.0000
  C   C6        1.0  0.7042511027292522  0.1591598049200016  0.6652786413428158  1.0000
  C   C7        1.0  0.7042493243047049  0.3408419648830332  0.16527862353434836  1.0000
  C   C8        1.0  0.29575080897587475  0.8408406991932865  0.3347214194116858  1.0000
  C   C9        1.0  0.417937620460151  0.7339607964666612  0.7767824570807418  1.0000
  C   C10       1.0  0.5820635934294316  0.23395924332914564  0.7232176409030655  1.0000
  C   C11       1.0  0.5820618201699049  0.26603970764670487  0.22321759650709785  1.0000
  C   C12       1.0  0.4179370786155446  0.766039350540183  0.2767817235325224  1.0000
  C   C13       1.0  0.5008980352170058  0.6497371669199482  0.7050255439593724  1.0000
  C   C14       1.0  0.499105659685938  0.1497375776021954  0.7949752239899082  1.0000
  C   C15       1.0  0.4991014054132138  0.350258561583999  0.29497450962762156  1.0000
  C   C16       1.0  0.5008987313397669  0.8502591060239691  0.2050262294010493  1.0000
  C   C17       1.0  0.7264949362189486  0.6245343217427503  0.5948364750204289  1.0000
  C   C18       1.0  0.2735038141514679  0.12453386540758521  0.9051635769019482  1.0000
  C   C19       1.0  0.27350326475092146  0.37546522724853304  0.4051628822486747  1.0000
  C   C20       1.0  0.7264943991864997  0.8754647284625177  0.09483785857270276  1.0000
  C   C21       1.0  0.9026973943811714  0.6045254799666252  0.6295985072828001  1.0000
  C   C22       1.0  0.09730259290842722  0.104524055410721  0.8704015411107091  1.0000
  C   C23       1.0  0.09730081071134583  0.3954750241467763  0.3704015427217086  1.0000
  C   C24       1.0  0.9026943766465934  0.8954754935808324  0.12959850531029815  1.0000
  C   C25       1.0  0.8638541634525012  0.8327356479631617  0.7180664981872764  1.0000
  C   C26       1.0  0.13614457254153223  0.3327351162451038  0.7819336277389721  1.0000
  C   C27       1.0  0.13614897554482042  0.167263901027745  0.28193218067990944  1.0000
  C   C28       1.0  0.8638573391635946  0.6672653878681912  0.2180664330155294  1.0000
  C   C29       1.0  0.6925419959289343  0.8311405844935253  0.673774303622501  1.0000
  C   C30       1.0  0.3074604467878501  0.33114007262564377  0.826225832486784  1.0000
  C   C31       1.0  0.30745868436131474  0.16886087474192377  0.3262264462840746  1.0000
  C   C32       1.0  0.6925439359923828  0.6688594763656966  0.17377423543420883  1.0000
  S   S1        1.0  0.1896633394827489  0.7593623174187984  0.9174865343138803  1.0000
  S   S2        1.0  0.8103366371153201  0.25936065533016966  0.5825135691153916  1.0000
  S   S3        1.0  0.8103336341949615  0.24063723157298966  0.08251420484236857  1.0000
  S   S4        1.0  0.18966650188210116  0.7406360282950857  0.41748510975128267  1.0000
  S   S5        1.0  0.0146516789035331  0.7543478403589319  0.6449777008541486  1.0000
  S   S6        1.0  0.9853483062861912  0.25434539749783613  0.8550237862630962  1.0000
  S   S7        1.0  0.9853502410469731  0.2456526637548322  0.355023745370829  1.0000
  S   S8        1.0  0.014651134343871804  0.7456551066155227  0.1449762673247433  1.0000
  I   I1        1.0  0.2245132860038055  0.44695121791054493  0.08619561545575748  1.0000
  I   I2        1.0  0.7754856002896632  0.9469499773341498  0.4138037688875967  1.0000
  I   I3        1.0  0.7754861505035324  0.5530502413244633  0.9138037453970111  1.0000
  I   I4        1.0  0.22451260068020673  0.053049571657133796  0.5861955883815068  1.0000
  N   N1        1.0  0.6322214307247975  0.7012812553042524  0.6600392793856  1.0000
  N   N2        1.0  0.36777978954393836  0.20128170428654366  0.8399614997180574  1.0000
  N   N3        1.0  0.36777800990529397  0.29871829368723  0.3399607742020691  1.0000
  N   N4        1.0  0.6322221262839136  0.7987178447051022  0.16003925377150804  1.0000
  O   O1        1.0  0.4492994303649169  0.5399105625328885  0.6874220213194489  1.0000
  O   O2        1.0  0.5507005778770875  0.0399100269628718  0.8125807750481966  1.0000
  O   O3        1.0  0.5506987788502615  0.4600908967026314  0.3125787214204648  1.0000
  O   O4        1.0  0.4493013503187556  0.9600914322732449  0.18742205664742775  1.0000
