data_image0
_chemical_formula_structural       Cu4H12C24N16O8
_chemical_formula_sum              "Cu4 H12 C24 N16 O8"
_cell_length_a       7.5130321802283895
_cell_length_b       10.531811127016343
_cell_length_c       10.969289458852241
_cell_angle_alpha    75.46945228676519
_cell_angle_beta     69.96454961703112
_cell_angle_gamma    69.1141781474474

_space_group_name_H-M_alt    "P 1"
_space_group_IT_number       1

loop_
  _space_group_symop_operation_xyz
  'x, y, z'

loop_
  _atom_site_type_symbol
  _atom_site_label
  _atom_site_symmetry_multiplicity
  _atom_site_fract_x
  _atom_site_fract_y
  _atom_site_fract_z
  _atom_site_occupancy
  Cu  Cu1       1.0  0.3331568753654254  0.5858975874934274  0.4265044665085965  1.0000
  Cu  Cu2       1.0  0.8455231000983472  0.914021076145332  0.07349768897462634  1.0000
  Cu  Cu3       1.0  0.6668531048372088  0.41409836286870655  0.5734928712234789  1.0000
  Cu  Cu4       1.0  0.15447096899023915  0.08599027898176811  0.9264983297029799  1.0000
  H   H1        1.0  0.35097970346709667  0.5179686922889957  0.15121858944846872  1.0000
  H   H2        1.0  0.5200446470098045  0.9817357719706339  0.34882355407691523  1.0000
  H   H3        1.0  0.6490082919586944  0.48204366087359324  0.8487815229253141  1.0000
  H   H4        1.0  0.4799571265253419  0.018265302885325206  0.6511748371676374  1.0000
  H   H5        1.0  0.19202033154536513  0.5957033557144201  0.7364514528382171  1.0000
  H   H6        1.0  0.02422679571960639  0.9042813516061444  0.7635633456222946  1.0000
  H   H7        1.0  0.8079855545943532  0.4042895234220012  0.2635446366851397  1.0000
  H   H8        1.0  0.9757766513619546  0.0957125507792682  0.23643318680306183  1.0000
  H   H9        1.0  0.1181565859683075  0.43973056318688475  0.08580617815515267  1.0000
  H   H10       1.0  0.1435903395394007  0.059954123547520104  0.4142384713928564  1.0000
  H   H11       1.0  0.8818465077110816  0.5602766841586089  0.9141902265113655  1.0000
  H   H12       1.0  0.856404685549059  0.9400407897135139  0.5857602454307338  1.0000
  C   C1        1.0  0.21710273795149956  0.4982595914296512  0.22103471052479048  1.0000
  C   C2        1.0  0.4363196415570698  0.0014970298323860002  0.27900940886487285  1.0000
  C   C3        1.0  0.7828991454696351  0.5017425340677094  0.7789601406277737  1.0000
  C   C4        1.0  0.5636714523825149  0.9985040583304894  0.7209869052800427  1.0000
  C   C5        1.0  0.01791415131084056  0.49096789875761715  0.43261627865312835  1.0000
  C   C6        1.0  0.4414905922924603  0.009019671708138298  0.0673696264856929  1.0000
  C   C7        1.0  0.9820963068917264  0.5090198306714839  0.5673824081519354  1.0000
  C   C8        1.0  0.5585037969448765  0.9909855320184707  0.932625308474506  1.0000
  C   C9        1.0  0.08114056477281659  0.5654034181988054  0.7168654003952283  1.0000
  C   C10       1.0  0.8634561082476961  0.9346283438560262  0.7831413915766772  1.0000
  C   C11       1.0  0.9188654983762276  0.4345894524553273  0.2831319340264712  1.0000
  C   C12       1.0  0.136535856026768  0.06536862850972369  0.21685638565380563  1.0000
  C   C13       1.0  0.08706862080155277  0.456267724211493  0.18609339309469417  1.0000
  C   C14       1.0  0.22931418446172105  0.0434996601403839  0.3139166436533144  1.0000
  C   C15       1.0  0.9129431434499722  0.5437354323169857  0.8139009077640579  1.0000
  C   C16       1.0  0.7706777798127437  0.956497312225366  0.6860811335771684  1.0000
  C   C17       1.0  0.6023691989394564  0.6705378578324287  0.16583984958116085  1.0000
  C   C18       1.0  0.9385236492880151  0.8293131129339244  0.3342654131806525  1.0000
  C   C19       1.0  0.397635129358882  0.32947134247242366  0.8341712186719618  1.0000
  C   C20       1.0  0.06147103204719445  0.1706879030127624  0.6657415245505971  1.0000
  C   C21       1.0  0.4145846854872771  0.7549976492690577  0.5573674331079131  1.0000
  C   C22       1.0  0.22674306520818274  0.744978465944435  0.9425115446312161  1.0000
  C   C23       1.0  0.5854289913804821  0.24498595152279284  0.44263462608065396  1.0000
  C   C24       1.0  0.773250253080434  0.25503081334674954  0.057487819535339164  1.0000
  N   N1        1.0  0.180935663071132  0.5152210980059451  0.3454141609394269  1.0000
  N   N2        1.0  0.5415294071806116  0.9846613772174282  0.15459680751841628  1.0000
  N   N3        1.0  0.8190741209640393  0.4847727997882316  0.6545831197863662  1.0000
  N   N4        1.0  0.45846770801019704  0.015343845419295104  0.8453953893461443  1.0000
  N   N5        1.0  0.11465203478800856  0.5483451170083098  0.5927999396484792  1.0000
  N   N6        1.0  0.7557904143800793  0.9516137280870466  0.9072298784682146  1.0000
  N   N7        1.0  0.8853599493752002  0.4516435952038406  0.40720516625134434  1.0000
  N   N8        1.0  0.24419741813166954  0.048389378947995  0.09277138837551749  1.0000
  N   N9        1.0  0.45454221186264465  0.6423697366412499  0.5291903345307885  1.0000
  N   N10       1.0  0.1260412492786214  0.857598896855457  0.970759216983019  1.0000
  N   N11       1.0  0.5454753149353593  0.3576180029822851  0.47080694297783776  1.0000
  N   N12       1.0  0.8739597497123481  0.14241659904887166  0.0292317717156934  1.0000
  N   N13       1.0  0.46007186314584203  0.6659730754822492  0.2572455471407337  1.0000
  N   N14       1.0  0.883289818931608  0.8340062831889983  0.24274701221747813  1.0000
  N   N15       1.0  0.5399159508242592  0.3340412984980432  0.7427592696329128  1.0000
  N   N16       1.0  0.11671323704798914  0.1660101700515  0.7572541302710148  1.0000
  O   O1        1.0  0.7398023713886986  0.6822928253478224  0.06959880753044695  1.0000
  O   O2        1.0  0.9911701773562671  0.8175020132140816  0.43062162743581206  1.0000
  O   O3        1.0  0.26021255987264197  0.3177081174491292  0.9304190893905255  1.0000
  O   O4        1.0  0.008817984953154357  0.1824877001460337  0.5693869043569961  1.0000
  O   O5        1.0  0.3769570570059387  0.8651902124169767  0.5892640329288668  1.0000
  O   O6        1.0  0.3311177393345021  0.6348230085610567  0.9104866438885464  1.0000
  O   O7        1.0  0.6230513066479162  0.13478921997183588  0.4107471231334257  1.0000
  O   O8        1.0  0.6688591222400005  0.3651810819571964  0.08952079034739306  1.0000
