data_image0
_chemical_formula_structural       Cu2H28C28N16O18
_chemical_formula_sum              "Cu2 H28 C28 N16 O18"
_cell_length_a       7.307760652555647
_cell_length_b       10.111809477830644
_cell_length_c       12.80545185997832
_cell_angle_alpha    95.50981373465677
_cell_angle_beta     90.020210521395
_cell_angle_gamma    111.15080528536978

_space_group_name_H-M_alt    "P 1"
_space_group_IT_number       1

loop_
  _space_group_symop_operation_xyz
  'x, y, z'

loop_
  _atom_site_type_symbol
  _atom_site_label
  _atom_site_symmetry_multiplicity
  _atom_site_fract_x
  _atom_site_fract_y
  _atom_site_fract_z
  _atom_site_occupancy
  Cu  Cu1       1.0  0.0914817353657753  3.291770445909829e-05  0.7499565476920298  1.0000
  Cu  Cu2       1.0  0.9085176283970634  0.99996707268108  0.25004373338396846  1.0000
  H   H1        1.0  0.39014910591686197  0.7505935752071977  0.2513788478746832  1.0000
  H   H2        1.0  0.6398727923584389  0.24937306983378693  0.2487263991396773  1.0000
  H   H3        1.0  0.609850267921182  0.24940643679380503  0.7486190921435921  1.0000
  H   H4        1.0  0.36012353862191293  0.7506290678634001  0.7512724933037377  1.0000
  H   H5        1.0  0.6808866794296617  0.9606399335921763  0.8023768873667764  1.0000
  H   H6        1.0  0.7202250416013456  0.039401666825817486  0.6976354852260442  1.0000
  H   H7        1.0  0.3191135165900789  0.0393589832773173  0.19762408796736256  1.0000
  H   H8        1.0  0.2797762163667627  0.9605993749012213  0.3023664428821178  1.0000
  H   H9        1.0  0.49187130698284415  0.24448815814110245  0.4018999865900029  1.0000
  H   H10       1.0  0.24719161785940705  0.7553693808584683  0.0981778416556622  1.0000
  H   H11       1.0  0.508128892395298  0.7555107659335433  0.5981002083915642  1.0000
  H   H12       1.0  0.7528074395831152  0.24463273466416513  0.9018233920780648  1.0000
  H   H13       1.0  0.2816439236793328  0.2629239241225889  0.3690777598496525  1.0000
  H   H14       1.0  0.018555897588043952  0.7370442333601588  0.1308887108827577  1.0000
  H   H15       1.0  0.7183557497622317  0.737073948331009  0.6309207882160451  1.0000
  H   H16       1.0  0.9814417915857874  0.2629578824420236  0.8691125227346745  1.0000
  H   H17       1.0  0.2504644753140255  0.033327738626716986  0.5117817566968627  1.0000
  H   H18       1.0  0.21706172835401813  0.966651103265896  0.9882198063830004  1.0000
  H   H19       1.0  0.7495324515149591  0.9666701127705223  0.4882191321939686  1.0000
  H   H20       1.0  0.7829376387672227  0.0333488943247957  0.0117796943404258  1.0000
  H   H21       1.0  0.3510366742514392  0.47026607652463753  0.5923691101797814  1.0000
  H   H22       1.0  0.8809419063722146  0.5297853275100692  0.9075362983244375  1.0000
  H   H23       1.0  0.6489616309214341  0.5297317962085089  0.4076294377696216  1.0000
  H   H24       1.0  0.11905797661040643  0.4702157000862072  0.09246719037258089  1.0000
  H   H25       1.0  0.9035203312585836  0.5558929274173677  0.6791063728450839  1.0000
  H   H26       1.0  0.34797292105410793  0.444171785666576  0.8207763212786221  1.0000
  H   H27       1.0  0.09648366996369619  0.44410812816087736  0.3208939947905236  1.0000
  H   H28       1.0  0.6520218018908821  0.5558271323211058  0.17922465359034592  1.0000
  C   C1        1.0  0.25156740951045004  0.1311038562630387  0.5553189904715055  1.0000
  C   C2        1.0  0.12041009830374345  0.8688977341516093  0.9446715886929837  1.0000
  C   C3        1.0  0.7484281524082447  0.8688940026189014  0.4446811179504593  1.0000
  C   C4        1.0  0.8795908567024426  0.13110543991766826  0.0553305117203351  1.0000
  C   C5        1.0  0.2995322563249943  0.3559742731456979  0.5976100432075668  1.0000
  C   C6        1.0  0.9436880763128316  0.6440694673890518  0.9022997917074421  1.0000
  C   C7        1.0  0.7004676434496347  0.6440267904763388  0.402389543726578  1.0000
  C   C8        1.0  0.05631264900188878  0.3559305083066349  0.09770205018999431  1.0000
  C   C9        1.0  0.07390125239538739  0.6412145891835549  0.5487012906396913  1.0000
  C   C10       1.0  0.4331217545813146  0.3588199502021324  0.9512150708229046  1.0000
  C   C11       1.0  0.9261010843130889  0.3587886134267889  0.4512976884796275  1.0000
  C   C12       1.0  0.5668800494737878  0.6411821863768664  0.04878382208568869  1.0000
  C   C13       1.0  0.12842309417786876  0.6099382463430414  0.44665043692177164  1.0000
  C   C14       1.0  0.5186465580005971  0.3900549669583739  0.0533563917291318  1.0000
  C   C15       1.0  0.8715768089551617  0.39006282448415414  0.5533483696598012  1.0000
  C   C16       1.0  0.4813582821953943  0.6099450295141295  0.9466431094594654  1.0000
  C   C17       1.0  0.9449833167411936  0.5309177293824802  0.600124671070198  1.0000
  C   C18       1.0  0.4143135006657559  0.4691257653963277  0.8997953645041293  1.0000
  C   C19       1.0  0.05501658975023815  0.4690833486498676  0.3998733551588032  1.0000
  C   C20       1.0  0.5856896649412207  0.5308763564928184  0.10020508922590211  1.0000
  C   C21       1.0  0.15101371592923118  0.7851985112954692  0.6120672395911698  1.0000
  C   C22       1.0  0.36670144684175915  0.2148513125823399  0.8878069291674253  1.0000
  C   C23       1.0  0.8489883877293849  0.2148014857361318  0.3879322613648385  1.0000
  C   C24       1.0  0.6333001241634759  0.7851476184179091  0.1121924855778644  1.0000
  C   C25       1.0  0.25013653709980577  0.7248491682234642  0.3840226336133981  1.0000
  C   C26       1.0  0.5254827185670408  0.27512474725796204  0.11604956839975242  1.0000
  C   C27       1.0  0.7498660992121983  0.27515189483948177  0.6159769535533358  1.0000
  C   C28       1.0  0.4745177138609689  0.7248773823954335  0.8839501047451179  1.0000
  N   N1        1.0  0.323965157358181  0.2622070097515774  0.5198461366498677  1.0000
  N   N2        1.0  0.061720009429180156  0.737789734280568  0.9801360710087579  1.0000
  N   N3        1.0  0.6760312401758244  0.737789782819469  0.4801538856776589  1.0000
  N   N4        1.0  0.9382785153599542  0.2622113152107132  0.019865076514243196  1.0000
  N   N5        1.0  0.1883308590156929  0.14637714799472684  0.6509846761652939  1.0000
  N   N6        1.0  0.04201991132814677  0.8536835611631657  0.8489603820745729  1.0000
  N   N7        1.0  0.8116671398368636  0.8536228498755133  0.3490148244418378  1.0000
  N   N8        1.0  0.9579816596770883  0.14631536983708324  0.1510390326707167  1.0000
  N   N9        1.0  0.21611425343964188  0.2878269640844948  0.6779007309655044  1.0000
  N   N10       1.0  0.9284656655114742  0.7122604709422404  0.8219932515794994  1.0000
  N   N11       1.0  0.78388404837483  0.7121709014434998  0.3220985973364705  1.0000
  N   N12       1.0  0.07153590213535206  0.28773845285285654  0.17800694351836205  1.0000
  N   N13       1.0  0.39960366550518955  0.2991097306370207  0.4218652711290717  1.0000
  N   N14       1.0  0.10034580872046202  0.7008344586385035  0.07814296622128579  1.0000
  N   N15       1.0  0.6003946396676909  0.7008881420961258  0.5781332768203313  1.0000
  N   N16       1.0  0.8996537780170326  0.2991687157103227  0.9218591340757316  1.0000
  O   O1        1.0  0.027608407558368096  0.8472847243235434  0.6269029339359165  1.0000
  O   O2        1.0  0.18124091947227325  0.1527438914975647  0.8729475404553925  1.0000
  O   O3        1.0  0.9723909629212741  0.15271528047230018  0.37309578643493785  1.0000
  O   O4        1.0  0.8187578982035788  0.8472550040360145  0.12705577582017466  1.0000
  O   O5        1.0  0.32244463002237467  0.8302716627914178  0.6537644654912144  1.0000
  O   O6        1.0  0.49315399280179417  0.1698331431579092  0.8461842113998516  1.0000
  O   O7        1.0  0.6775588385465242  0.16972832675548225  0.3462358159336603  1.0000
  O   O8        1.0  0.5068443123710793  0.8301647295752446  0.15381433654955154  1.0000
  O   O9        1.0  0.2869845270743453  0.85303018297202  0.4105497613533231  1.0000
  O   O10       1.0  0.43414297506021166  0.14698682094407192  0.0895235156001064  1.0000
  O   O11       1.0  0.7130222140437183  0.1469708792522866  0.5894498261622872  1.0000
  O   O12       1.0  0.565855250125409  0.8530163680946072  0.9104770238754725  1.0000
  O   O13       1.0  0.3104511313647149  0.6742585688107423  0.2963502777729516  1.0000
  O   O14       1.0  0.6363416992377678  0.3257058683800976  0.20374868540758231  1.0000
  O   O15       1.0  0.6895477064615461  0.3257403699537491  0.7036483563871699  1.0000
  O   O16       1.0  0.36365765109146503  0.6742940931848336  0.7962547170787104  1.0000
  O   O17       1.0  0.7788701483671189  0.9998839458764478  0.749958288456483  1.0000
  O   O18       1.0  0.22113004429422034  0.0001149637878867998  0.2500434672302276  1.0000
