data_image0
_chemical_formula_structural       Cu12H48C84N60
_chemical_formula_sum              "Cu12 H48 C84 N60"
_cell_length_a       25.204264988267536
_cell_length_b       25.92163519796674
_cell_length_c       26.962134559511053
_cell_angle_alpha    92.26312549832691
_cell_angle_beta     93.49705752056909
_cell_angle_gamma    94.51342649335517

_space_group_name_H-M_alt    "P 1"
_space_group_IT_number       1

loop_
  _space_group_symop_operation_xyz
  'x, y, z'

loop_
  _atom_site_type_symbol
  _atom_site_label
  _atom_site_symmetry_multiplicity
  _atom_site_fract_x
  _atom_site_fract_y
  _atom_site_fract_z
  _atom_site_occupancy
  Cu  Cu1       1.0  0.7654324820249415  0.7468492673587406  0.8131874982721071  1.0000
  Cu  Cu2       1.0  0.8428253152002372  0.7515138693508308  0.7294647358774711  1.0000
  Cu  Cu3       1.0  0.7848641147230854  0.8534974497508049  0.7618364838412576  1.0000
  Cu  Cu4       1.0  0.752478579571026  0.21274539431174594  0.1665785567530236  1.0000
  Cu  Cu5       1.0  0.8668140199146492  0.23051480459679408  0.22668522722197787  1.0000
  Cu  Cu6       1.0  0.7817055531623966  0.1362597934031342  0.2476778009865299  1.0000
  Cu  Cu7       1.0  0.16408306866259895  0.8083120119265391  0.1276434303947411  1.0000
  Cu  Cu8       1.0  0.12692029210713682  0.7896338679474441  0.23544323828566863  1.0000
  Cu  Cu9       1.0  0.2163151132102499  0.8812095641967801  0.2136204978901546  1.0000
  Cu  Cu10      1.0  0.26007883156015776  0.24381320875730947  0.9061171696145324  1.0000
  Cu  Cu11      1.0  0.16684732185210294  0.22823762775855982  0.8208005444492414  1.0000
  Cu  Cu12      1.0  0.27663917517857334  0.18615525588503354  0.8007964737758827  1.0000
  H   H1        1.0  0.8026220762067741  0.6506779014923865  0.871542905159224  1.0000
  H   H2        1.0  0.9085527513630185  0.6512699377874187  0.7507688567880636  1.0000
  H   H3        1.0  0.6976524146410767  0.9185406886178458  0.8135907796812987  1.0000
  H   H4        1.0  0.6592255710793966  0.7648258815568527  0.8654675919561612  1.0000
  H   H5        1.0  0.8883862107036364  0.7888678141260146  0.6295736370775842  1.0000
  H   H6        1.0  0.8403514293337724  0.9339128686032511  0.6902981249019362  1.0000
  H   H7        1.0  0.7598983280085324  0.3057787243006943  0.0951469812303358  1.0000
  H   H8        1.0  0.918933370772244  0.3241092958685173  0.1675141291761051  1.0000
  H   H9        1.0  0.6923018671278816  0.04257282429833959  0.22136393881680763  1.0000
  H   H10       1.0  0.6486455332040819  0.152991879881192  0.1125368818428143  1.0000
  H   H11       1.0  0.9594385142816506  0.2116428099331601  0.30978983552499534  1.0000
  H   H12       1.0  0.8390431091785898  0.08993320396941579  0.33929041139866456  1.0000
  H   H13       1.0  0.10597537992097733  0.7127786395564897  0.06809608525849599  1.0000
  H   H14       1.0  0.06629486268950302  0.6737075592656653  0.2169579304263891  1.0000
  H   H15       1.0  0.3158266819533467  0.9348482254765431  0.15961525312638264  1.0000
  H   H16       1.0  0.22613610144282606  0.8503863896061078  0.0357046263355016  1.0000
  H   H17       1.0  0.0897706378133094  0.8335622787068004  0.3375514033170788  1.0000
  H   H18       1.0  0.21368846403964176  0.9525145994365617  0.309929045739878  1.0000
  H   H19       1.0  0.20807228503978342  0.32136430198399063  0.9823590226823101  1.0000
  H   H20       1.0  0.0824422506535356  0.29711255409610976  0.8648023326011227  1.0000
  H   H21       1.0  0.3806600260108228  0.13193643729538712  0.8275853141548879  1.0000
  H   H22       1.0  0.3591922114462989  0.20759455054110992  0.9703118027856733  1.0000
  H   H23       1.0  0.09653083686432502  0.17985423903483178  0.7250041334333659  1.0000
  H   H24       1.0  0.25429004517520337  0.14309726987209365  0.6872050630836668  1.0000
  H   H25       1.0  0.9178920258099837  0.0167732012226978  0.4946520025141083  1.0000
  H   H26       1.0  0.08384200809489072  0.07180464649521671  0.4794336651052902  1.0000
  H   H27       1.0  0.022548233910200107  0.9125460056867994  0.4982483940358264  1.0000
  H   H28       1.0  0.022307737075671203  0.009847931243378098  0.6134302201732708  1.0000
  H   H29       1.0  0.004035894336269095  0.4713058687250468  0.8919072781271069  1.0000
  H   H30       1.0  0.9959648918100472  0.45825820820392965  0.051856727533696294  1.0000
  H   H31       1.0  0.862361585771602  0.4789617333511558  0.9461399068150841  1.0000
  H   H32       1.0  0.973661560230312  0.5962054491113948  0.9700733167691952  1.0000
  H   H33       1.0  0.4563156154441757  0.8752647487776671  0.9468033921297235  1.0000
  H   H34       1.0  0.4683859204910662  0.01793826486565561  0.0389952952500394  1.0000
  H   H35       1.0  0.5294101129690604  0.9988334383099304  0.893061771548652  1.0000
  H   H36       1.0  0.6005038758699401  0.928147958299327  0.0051254324378646856  1.0000
  H   H37       1.0  0.8673910029313135  0.5816712489880161  0.9206403884527958  1.0000
  H   H38       1.0  0.9451761864264513  0.3957521653446464  0.0834342644898953  1.0000
  H   H39       1.0  0.04455006446156064  0.6315359356764606  0.029258345270889705  1.0000
  H   H40       1.0  0.046595123290437426  0.39192901536855385  0.8983688915515272  1.0000
  H   H41       1.0  0.622126470308132  0.9503845308037455  0.8970899878399906  1.0000
  H   H42       1.0  0.438380100648459  0.058082027141757905  0.882659415555942  1.0000
  H   H43       1.0  0.5650918038462223  0.07619901199947071  0.07202665469989711  1.0000
  H   H44       1.0  0.4054256367527458  0.9444769556494491  0.08987494298244059  1.0000
  H   H45       1.0  0.9428775059544919  0.9744734534459315  0.6311913018404526  1.0000
  H   H46       1.0  0.05945344938263021  0.9003916445987344  0.4171751012385343  1.0000
  H   H47       1.0  0.059280410437594404  0.09569947107742391  0.6486488247255693  1.0000
  H   H48       1.0  0.9063836678374602  0.056678725299306607  0.41426827310012737  1.0000
  C   C1        1.0  0.8243099622586173  0.6576530172037495  0.8385796095188169  1.0000
  C   C2        1.0  0.8669028200842634  0.6326772060036633  0.82014953038086  1.0000
  C   C3        1.0  0.8781853765259343  0.6580914451889087  0.7765203958861946  1.0000
  C   C4        1.0  0.6959654297320697  0.8781383836942852  0.8229346114854438  1.0000
  C   C5        1.0  0.6590980469894419  0.8493692592082526  0.8499805825512965  1.0000
  C   C6        1.0  0.676333086899291  0.799205258722438  0.8488287132247692  1.0000
  C   C7        1.0  0.8725398090752847  0.8196559966481518  0.6511402422751047  1.0000
  C   C8        1.0  0.8750128843828551  0.8728384421188905  0.6429309309128045  1.0000
  C   C9        1.0  0.8487940114514033  0.8941219886053918  0.6823082513998955  1.0000
  C   C10       1.0  0.7962685225865088  0.30319947634117744  0.118233302132154  1.0000
  C   C11       1.0  0.84523713266983  0.33286795517811646  0.1174076880186306  1.0000
  C   C12       1.0  0.8778471473196846  0.31271517348401556  0.15473939959949945  1.0000
  C   C13       1.0  0.6881923044895686  0.076008261265784  0.1988853998081908  1.0000
  C   C14       1.0  0.6524693045328009  0.08184959972830799  0.15787817367596801  1.0000
  C   C15       1.0  0.6654779593086744  0.13237807194999357  0.1432056255620466  1.0000
  C   C16       1.0  0.9243247898104628  0.1847170327144525  0.31032186987985716  1.0000
  C   C17       1.0  0.9141623461314341  0.1439075043288298  0.34204529066527567  1.0000
  C   C18       1.0  0.8629660630638514  0.1223938172455235  0.32569207889856244  1.0000
  C   C19       1.0  0.10005136935041041  0.7113068369963855  0.10757308814944369  1.0000
  C   C20       1.0  0.07497919832621144  0.6719189727609705  0.13421989181141214  1.0000
  C   C21       1.0  0.0802326002603166  0.6913338338112568  0.18380822750617648  1.0000
  C   C22       1.0  0.287657233796061  0.9110008315478098  0.1346949490386109  1.0000
  C   C23       1.0  0.2875937906995318  0.9007788041868283  0.08318344884624201  1.0000
  C   C24       1.0  0.2411959655871314  0.8679133085247202  0.0715131263511495  1.0000
  C   C25       1.0  0.12222586344315545  0.8578590218568396  0.32382273134953016  1.0000
  C   C26       1.0  0.1466097618522468  0.9057360568517724  0.3427396507226206  1.0000
  C   C27       1.0  0.18576364833211306  0.918428326489881  0.3094741587740586  1.0000
  C   C28       1.0  0.1825942183008991  0.30955210563967483  0.9493374512373974  1.0000
  C   C29       1.0  0.13180920855697312  0.3245518630614797  0.9348405691686282  1.0000
  C   C30       1.0  0.11850684285456481  0.2976425685817503  0.8890354836623188  1.0000
  C   C31       1.0  0.3683265468003398  0.15463406318654194  0.8589147395594239  1.0000
  C   C32       1.0  0.3887327489671933  0.15866644509142702  0.9086123851857765  1.0000
  C   C33       1.0  0.3572566600181375  0.1937111387126293  0.9317111936966214  1.0000
  C   C34       1.0  0.13864039943793932  0.1740817242167552  0.7237486609833752  1.0000
  C   C35       1.0  0.16608976218358154  0.15142140883674673  0.6858749125544037  1.0000
  C   C36       1.0  0.21957908236920792  0.15597963802124332  0.7044046036428213  1.0000
  C   C37       1.0  0.9884721266469968  0.9823210104092867  0.5349649371988505  1.0000
  C   C38       1.0  0.9610325096218164  0.019809031519663702  0.5008324329322988  1.0000
  C   C39       1.0  0.9964901274578113  0.05190152335698881  0.47983469143182594  1.0000
  C   C40       1.0  0.05515972836488461  0.04498735508779111  0.4961274758425418  1.0000
  C   C41       1.0  0.027015175765051004  0.9544286346185161  0.503058963586092  1.0000
  C   C42       1.0  0.060814354709016534  0.9877248357569361  0.48170422266616697  1.0000
  C   C43       1.0  0.023794144081911398  0.0156359191531195  0.5738478792336466  1.0000
  C   C44       1.0  0.05826454874864601  0.0487970309865915  0.5528939663742918  1.0000
  C   C45       1.0  0.9478794520967996  0.5145452542338944  0.9381949810766983  1.0000
  C   C46       1.0  0.9907679856078816  0.47730834237624725  0.9290885383764831  1.0000
  C   C47       1.0  0.00736024937567951  0.45621878990542103  0.9711860225569566  1.0000
  C   C48       1.0  0.9805959498266577  0.47477061672826437  0.017776396378039305  1.0000
  C   C49       1.0  0.9029027749927395  0.48343054208142183  0.9627080179140038  1.0000
  C   C50       1.0  0.9205262654050657  0.46256796381824483  0.004654843805610685  1.0000
  C   C51       1.0  0.9724239592219421  0.5552824814869269  0.9776161827892835  1.0000
  C   C52       1.0  0.9895105582688615  0.534028011121123  0.019394747791160693  1.0000
  C   C53       1.0  0.5284062668655737  0.9350889510221448  0.9502942948640083  1.0000
  C   C54       1.0  0.47365925423144273  0.9119006135593962  0.9636427344396309  1.0000
  C   C55       1.0  0.4517687972565201  0.9426971835900562  0.996101282495765  1.0000
  C   C56       1.0  0.4867597674328581  0.9926221571954061  0.012810723421019094  1.0000
  C   C57       1.0  0.5196505874072628  0.9891229981406939  0.9304811062728576  1.0000
  C   C58       1.0  0.4965530047391057  0.018542377678137704  0.963409155698578  1.0000
  C   C59       1.0  0.5624418501498172  0.944772844581607  0.9995814891293548  1.0000
  C   C60       1.0  0.5405023124030067  0.9756316022911592  0.031851682060981476  1.0000
  C   C61       1.0  0.8953597792904376  0.5925391061888734  0.8429996892911831  1.0000
  C   C62       1.0  0.8919185853313325  0.5734196393725811  0.8901222132473237  1.0000
  C   C63       1.0  0.8566096145234213  0.3735156123088856  0.08338111519986312  1.0000
  C   C64       1.0  0.9040081364339374  0.39883672334383385  0.0707714207290806  1.0000
  C   C65       1.0  0.04936850196068582  0.6236181740935155  0.11258119762922553  1.0000
  C   C66       1.0  0.03772807265399791  0.6108512177517795  0.0626448610567181  1.0000
  C   C67       1.0  0.1001851716850979  0.36140951210310135  0.958782634419407  1.0000
  C   C68       1.0  0.06185388416027141  0.3898363942556813  0.9365703863865136  1.0000
  C   C69       1.0  0.6133048044287934  0.8646789875586764  0.8751281982634396  1.0000
  C   C70       1.0  0.6011895442960552  0.9121327282092366  0.8950742456103526  1.0000
  C   C71       1.0  0.4277197619261132  0.1283021006497904  0.9327331392762019  1.0000
  C   C72       1.0  0.4462335683080172  0.0820504615698496  0.9165176592346214  1.0000
  C   C73       1.0  0.6166401246222151  0.041746957137505106  0.132204528479015  1.0000
  C   C74       1.0  0.5799597451526637  0.04436927552136891  0.09219758354104358  1.0000
  C   C75       1.0  0.3272786225742196  0.9151267219313938  0.048600883092205976  1.0000
  C   C76       1.0  0.3802047745859341  0.9340700202060719  0.05643764229137099  1.0000
  C   C77       1.0  0.901466938059194  0.8976397297857944  0.6028395832372057  1.0000
  C   C78       1.0  0.932495202024555  0.944254746151529  0.6026410041563325  1.0000
  C   C79       1.0  0.1328182553301431  0.9376138468632577  0.38444873873041263  1.0000
  C   C80       1.0  0.09129433219614923  0.930651158535163  0.415256931055012  1.0000
  C   C81       1.0  0.1443509596430204  0.12635385700619386  0.6392831284667224  1.0000
  C   C82       1.0  0.09433463754271541  0.1016156864846707  0.6276454378825278  1.0000
  C   C83       1.0  0.9483933210829039  0.1267800485514314  0.3820430788034059  1.0000
  C   C84       1.0  0.939368855113351  0.08575268618997713  0.41250408844948794  1.0000
  N   N1        1.0  0.8446973698090547  0.6956448447289605  0.7697153348203757  1.0000
  N   N2        1.0  0.8112738004501169  0.6952869813667278  0.8081264598023026  1.0000
  N   N3        1.0  0.7203525367055621  0.7982996607270751  0.8230991916212105  1.0000
  N   N4        1.0  0.7325876007228305  0.847146754620326  0.806817026271638  1.0000
  N   N5        1.0  0.8318716729316195  0.856137662253758  0.7118955458660423  1.0000
  N   N6        1.0  0.8469510811085074  0.8099936783382731  0.692589116835805  1.0000
  N   N7        1.0  0.8501261864735952  0.2737869828324122  0.1761743070436594  1.0000
  N   N8        1.0  0.7995632802814825  0.2679250287817041  0.1533965380280051  1.0000
  N   N9        1.0  0.706252598142328  0.1549151376410691  0.17318791368499123  1.0000
  N   N10       1.0  0.7202430867846276  0.11995181306297555  0.20772429710361004  1.0000
  N   N11       1.0  0.8440712524377505  0.14846088913229494  0.2870739097685302  1.0000
  N   N12       1.0  0.8820831007685187  0.18714685400371417  0.2775060684158248  1.0000
  N   N13       1.0  0.10655271829337212  0.7389186984068206  0.1862124255212194  1.0000
  N   N14       1.0  0.11878910306948143  0.7511792667919011  0.1388605498571422  1.0000
  N   N15       1.0  0.21570180038121126  0.858981339338328  0.11316462111424389  1.0000
  N   N16       1.0  0.24441500614696582  0.8857277057024221  0.1523361490561044  1.0000
  N   N17       1.0  0.18451616139861932  0.8808811487243987  0.2732997354566677  1.0000
  N   N18       1.0  0.14510891120794872  0.8431986367153501  0.2821430784330659  1.0000
  N   N19       1.0  0.15843952081729645  0.26883502218774424  0.8770669422859215  1.0000
  N   N20       1.0  0.19831900256680512  0.27635275832104617  0.9143563337743359  1.0000
  N   N21       1.0  0.3204292231022308  0.2089097842702259  0.8981817687478327  1.0000
  N   N22       1.0  0.32739618831094225  0.18479916064595875  0.8529415711460828  1.0000
  N   N23       1.0  0.2235375085400761  0.17945180008485556  0.7501500014824315  1.0000
  N   N24       1.0  0.17338464923978594  0.19090257600253577  0.7620830780815524  1.0000
  N   N25       1.0  0.9558444189570354  0.5364961056523398  0.8508454925489843  1.0000
  N   N26       1.0  0.9348099959774103  0.5684919531951423  0.8203371370163169  1.0000
  N   N27       1.0  0.9296626507002872  0.538876671749847  0.8933676168730784  1.0000
  N   N28       1.0  0.8347919681989495  0.42669326287227705  0.025418127866252915  1.0000
  N   N29       1.0  0.8156970811992965  0.3922416683084152  0.0546735306237309  1.0000
  N   N30       1.0  0.889250371069551  0.4314514549553652  0.03457285705287211  1.0000
  N   N31       1.0  0.011342420020916708  0.544144246689804  0.10845107779493901  1.0000
  N   N32       1.0  0.03250262907869942  0.5814877778661727  0.1390418176588923  1.0000
  N   N33       1.0  0.014327032912277103  0.5616044009311097  0.061103589451576616  1.0000
  N   N34       1.0  0.07013160315674581  0.40842910147764405  0.018883480645186496  1.0000
  N   N35       1.0  0.10376591404082092  0.37415624925603913  0.009157949157149401  1.0000
  N   N36       1.0  0.0439493206090873  0.41857508550091194  0.97456358041827  1.0000
  N   N37       1.0  0.5375867638120724  0.8505351455915645  0.9102445058541734  1.0000
  N   N38       1.0  0.5729766097089809  0.8283501803404294  0.8852641282824223  1.0000
  N   N39       1.0  0.5538441279209965  0.901788295525414  0.9160164858173873  1.0000
  N   N40       1.0  0.4757126446242383  0.10158043444213401  0.9959388330399933  1.0000
  N   N41       1.0  0.44744557586944483  0.13876223509961252  0.9812766593856708  1.0000
  N   N42       1.0  0.47561058347202595  0.06627330951921101  0.956517090826246  1.0000
  N   N43       1.0  0.5904138064956542  0.9610936844158361  0.1087264283165226  1.0000
  N   N44       1.0  0.6205959309548702  0.9900954288280062  0.14132005217211938  1.0000
  N   N45       1.0  0.5649083113664873  0.9938032000200964  0.0781125956722519  1.0000
  N   N46       1.0  0.3595396554642606  0.9166183963220647  0.974756037120855  1.0000
  N   N47       1.0  0.3167903400056744  0.9057102287144475  0.9980897508530191  1.0000
  N   N48       1.0  0.39937395323164543  0.934096952704792  0.010135347459396395  1.0000
  N   N49       1.0  0.9325315080780999  0.9017030947371298  0.528894103109856  1.0000
  N   N50       1.0  0.9025869487895336  0.8731242205927147  0.5567983792824762  1.0000
  N   N51       1.0  0.9512789465739218  0.9450823825168727  0.5564086585306427  1.0000
  N   N52       1.0  0.13714692497093492  0.007791486213704998  0.4335159133504547  1.0000
  N   N53       1.0  0.15973489445202924  0.9853082469149687  0.3972953167124658  1.0000
  N   N54       1.0  0.09486005290374071  0.9747548174917782  0.4451743285529162  1.0000
  N   N55       1.0  0.14473618088029383  0.09666050717596163  0.5618485219974546  1.0000
  N   N56       1.0  0.1735913441219736  0.12224530850588172  0.5977671011873014  1.0000
  N   N57       1.0  0.09561778737420923  0.08360033937776021  0.5795176155105608  1.0000
  N   N58       1.0  0.021006577083625206  0.12569291303367444  0.4313208862013624  1.0000
  N   N59       1.0  0.9988437752902116  0.14994277347528856  0.39518061358271694  1.0000
  N   N60       1.0  0.9849591436472949  0.085916215131526  0.44261508190076887  1.0000
