data_image0
_chemical_formula_structural       Cd4H40C64N32O4
_chemical_formula_sum              "Cd4 H40 C64 N32 O4"
_cell_length_a       7.721891133663208
_cell_length_b       12.858413452339397
_cell_length_c       18.40500307700713
_cell_angle_alpha    89.9999921191361
_cell_angle_beta     90.00009893126
_cell_angle_gamma    92.4213894101143

_space_group_name_H-M_alt    "P 1"
_space_group_IT_number       1

loop_
  _space_group_symop_operation_xyz
  'x, y, z'

loop_
  _atom_site_type_symbol
  _atom_site_label
  _atom_site_symmetry_multiplicity
  _atom_site_fract_x
  _atom_site_fract_y
  _atom_site_fract_z
  _atom_site_occupancy
  Cd  Cd1       1.0  0.6269067571774869  0.5560608903005999  0.7097322177147234  1.0000
  Cd  Cd2       1.0  0.37309328413745385  0.9439403047663363  0.20973273731410558  1.0000
  Cd  Cd3       1.0  0.3730929314385989  0.44394045687108996  0.2902695565309372  1.0000
  Cd  Cd4       1.0  0.6269088823940692  0.056059484116723006  0.7902679502714562  1.0000
  H   H1        1.0  0.4872619068140979  0.45278664797152157  0.5976088553166148  1.0000
  H   H2        1.0  0.5127404518486999  0.04721409128545421  0.09760842250633317  1.0000
  H   H3        1.0  0.5127314749883141  0.5472170381308531  0.4023907456045989  1.0000
  H   H4        1.0  0.4872603637045857  0.952784919950922  0.9023900917566792  1.0000
  H   H5        1.0  0.5155519641099389  0.5492097321236359  0.547135628596095  1.0000
  H   H6        1.0  0.48444610188835213  0.9507914810964594  0.04713568343398579  1.0000
  H   H7        1.0  0.48443522290499896  0.45079784970027953  0.4528672323059054  1.0000
  H   H8        1.0  0.5155569675620768  0.049202858268721214  0.9528671774742392  1.0000
  H   H9        1.0  0.6406149499091498  0.7537752167644882  0.7973040547094425  1.0000
  H   H10       1.0  0.35937650508052593  0.7462275309613133  0.2973040386528325  1.0000
  H   H11       1.0  0.35938220478406896  0.24622691030025123  0.2026988061963308  1.0000
  H   H12       1.0  0.6406283073921061  0.2537730348197442  0.7026971922641606  1.0000
  H   H13       1.0  0.737339216906385  0.8290656599219589  0.916231531257473  1.0000
  H   H14       1.0  0.26265116070320005  0.6709331838448165  0.4162303664036315  1.0000
  H   H15       1.0  0.2626588407011923  0.17093101762502272  0.08377132964886157  1.0000
  H   H16       1.0  0.7373523568008835  0.3290673826850749  0.5837697778518487  1.0000
  H   H17       1.0  0.7999644209792934  0.7099697186625777  0.018401771353410392  1.0000
  H   H18       1.0  0.20002688193302023  0.7900291661903937  0.5184009276252439  1.0000
  H   H19       1.0  0.20003250968311906  0.2900292948199166  0.981600546221898  1.0000
  H   H20       1.0  0.7999752285910804  0.209969844297099  0.48159975996033205  1.0000
  H   H21       1.0  0.8617574462434238  0.6035773733545257  0.09594647398807149  1.0000
  H   H22       1.0  0.13823665905740506  0.8964199449093043  0.5959466636108671  1.0000
  H   H23       1.0  0.13823300958988943  0.3964216438717685  0.9040569302459929  1.0000
  H   H24       1.0  0.8617705193169698  0.1035775057919608  0.40405402397657747  1.0000
  H   H25       1.0  0.9183274391317015  0.4626429717312845  0.18472344824878917  1.0000
  H   H26       1.0  0.0816673462275972  0.0373554275067391  0.68472525928577  1.0000
  H   H27       1.0  0.08166436767416489  0.5373568231418346  0.8152794126551939  1.0000
  H   H28       1.0  0.9183397761439096  0.9626412447988385  0.3152776016237908  1.0000
  H   H29       1.0  0.8425317220251998  0.27914049392970247  0.15262617857491986  1.0000
  H   H30       1.0  0.15746805289021643  0.2208571273532911  0.652629113993946  1.0000
  H   H31       1.0  0.1574665036023504  0.7208585188040431  0.8473755956703286  1.0000
  H   H32       1.0  0.8425287657562279  0.779140329338084  0.3473726602508691  1.0000
  H   H33       1.0  0.6351611780289163  0.2714651814116992  0.9213964194819084  1.0000
  H   H34       1.0  0.3648387065686337  0.22853630382866907  0.4214002121786606  1.0000
  H   H35       1.0  0.36484763135283066  0.7285369389143029  0.078602638114333  1.0000
  H   H36       1.0  0.6351414455339253  0.7714634977835714  0.5785993887380201  1.0000
  H   H37       1.0  0.5835761030026633  0.3984745171630806  0.8237430568062081  1.0000
  H   H38       1.0  0.4164258509004314  0.1015254202415221  0.32374526738239945  1.0000
  H   H39       1.0  0.4164325383602332  0.6015252679761218  0.1762576307816559  1.0000
  H   H40       1.0  0.5835672508694357  0.8984743738828842  0.6762565068609873  1.0000
  C   C1        1.0  0.9704458975235539  0.4004483296839398  0.7241181090330073  1.0000
  C   C2        1.0  0.029557214527216  0.0995555096135377  0.2241216747096431  1.0000
  C   C3        1.0  0.029555366085659795  0.5995569087170907  0.27587877523831134  1.0000
  C   C4        1.0  0.9704575656271006  0.9004396014082662  0.7758811862027101  1.0000
  C   C5        1.0  0.2662894744585386  0.3969267595784203  0.7172626576151727  1.0000
  C   C6        1.0  0.7337095559859464  0.10307474751247271  0.21726618030643854  1.0000
  C   C7        1.0  0.7337039073381817  0.6030769265240964  0.2827342266534102  1.0000
  C   C8        1.0  0.2663041532249508  0.8969234778405593  0.7827334206222432  1.0000
  C   C9        1.0  0.9879508015786557  0.680559403300933  0.6552286822107973  1.0000
  C   C10       1.0  0.012045462824616479  0.8194464702197947  0.15522949940783795  1.0000
  C   C11       1.0  0.0120439312008571  0.31944506044815313  0.34477254870243706  1.0000
  C   C12       1.0  0.9879582227028508  0.18055643149678255  0.8447711881781286  1.0000
  C   C13       1.0  0.28487513892402927  0.6832568470734018  0.6591931149948138  1.0000
  C   C14       1.0  0.7151207500212069  0.8167435772538384  0.1591966056402114  1.0000
  C   C15       1.0  0.7151178508241858  0.3167413902600417  0.3408053992654487  1.0000
  C   C16       1.0  0.28488935432113044  0.1832585423235358  0.840799735303861  1.0000
  C   C17       1.0  0.6645509135998467  0.7032001432178703  0.8434594502872342  1.0000
  C   C18       1.0  0.33544197347680443  0.7968018204230846  0.3434599560860788  1.0000
  C   C19       1.0  0.33544866299912707  0.2967996471627288  0.1565412372974038  1.0000
  C   C20       1.0  0.6645603050684203  0.2031995252511507  0.6565401881689255  1.0000
  C   C21       1.0  0.7194405878460871  0.7450836332146269  0.9102706493960397  1.0000
  C   C22       1.0  0.2805511718026281  0.7549167672325653  0.4102694898674031  1.0000
  C   C23       1.0  0.28056017170887065  0.25491459962594837  0.0897322115111905  1.0000
  C   C24       1.0  0.7194535846614443  0.24508302015295413  0.5897311977190753  1.0000
  C   C25       1.0  0.7531602907683351  0.6781278915413581  0.9668172454805414  1.0000
  C   C26       1.0  0.2468342954218414  0.8218725013554788  0.4668171427384848  1.0000
  C   C27       1.0  0.2468378788506628  0.32187034279684923  0.033183985434192195  1.0000
  C   C28       1.0  0.7531679271159606  0.1781280659231825  0.5331830015165335  1.0000
  C   C29       1.0  0.7271812420711754  0.5698013108340946  0.9573040668412601  1.0000
  C   C30       1.0  0.2728157262269447  0.930196746396689  0.4573056030162661  1.0000
  C   C31       1.0  0.27281962949634664  0.4301984787976778  0.0426977074048907  1.0000
  C   C32       1.0  0.7271797974498071  0.0698007110435483  0.5426945412365072  1.0000
  C   C33       1.0  0.6666706741608409  0.5334183292698641  0.8882326105043319  1.0000
  C   C34       1.0  0.3333288190831071  0.9665828474391347  0.3882330998358369  1.0000
  C   C35       1.0  0.3333287904221649  0.46657990431963026  0.11176753374981269  1.0000
  C   C36       1.0  0.6666708135210089  0.033417721337094995  0.6117665010877359  1.0000
  C   C37       1.0  0.7607062875506687  0.4948598416443489  0.013726407700829698  1.0000
  C   C38       1.0  0.2392942011324665  0.005137793757818101  0.5137277903175672  1.0000
  C   C39       1.0  0.239299707872263  0.5051391665968268  0.9862742798861245  1.0000
  C   C40       1.0  0.7606974936506106  0.9948604443243668  0.4862712672727625  1.0000
  C   C41       1.0  0.8302528472835109  0.5224865114014962  0.0822849636195073  1.0000
  C   C42       1.0  0.169745253776  0.9775131412650283  0.5822857118275948  1.0000
  C   C43       1.0  0.16974678532287873  0.4775140573746768  0.9177157239651166  1.0000
  C   C44       1.0  0.8302515088596183  0.0224835370308725  0.4177144324256545  1.0000
  C   C45       1.0  0.8607077059368538  0.44483861463442753  0.13196983780359517  1.0000
  C   C46       1.0  0.1392919825444139  0.055159008859689614  0.6319716882410518  1.0000
  C   C47       1.0  0.13928781774103532  0.5551588428057812  0.8680308497797069  1.0000
  C   C48       1.0  0.8607100719722711  0.9448392232322291  0.36802899934453137  1.0000
  C   C49       1.0  0.8194502104397827  0.34058270573236626  0.1133727104918378  1.0000
  C   C50       1.0  0.18054928821454302  0.15941336296115338  0.6133762110671626  1.0000
  C   C51       1.0  0.1805542659883415  0.65941318967527  0.8866285204252405  1.0000
  C   C52       1.0  0.8194424625816338  0.8405856535164558  0.38662556317577657  1.0000
  C   C53       1.0  0.7261221033201226  0.3867600364659793  0.9997409052513857  1.0000
  C   C54       1.0  0.27387794106793  0.11323910520173538  0.49974355677454707  1.0000
  C   C55       1.0  0.2738865940513335  0.6132405270687615  0.0002603256669858  1.0000
  C   C56       1.0  0.7261059839209025  0.886759137372991  0.5002571308045987  1.0000
  C   C57       1.0  0.6600939398734483  0.3544514234904526  0.9303586617126314  1.0000
  C   C58       1.0  0.33990446322864903  0.14554694795709372  0.4303624439951719  1.0000
  C   C59       1.0  0.33991464547748523  0.6455475832532969  0.069639852553145  1.0000
  C   C60       1.0  0.6600846976315681  0.8544520700181478  0.5696377002552779  1.0000
  C   C61       1.0  0.6326037112468085  0.42465272132000825  0.8764309208342737  1.0000
  C   C62       1.0  0.36739598519919536  0.0753487687335621  0.3764330988578876  1.0000
  C   C63       1.0  0.36740098920871134  0.5753462876699658  0.12356922342169697  1.0000
  C   C64       1.0  0.6325972285820997  0.9246525821820695  0.6235670453938907  1.0000
  N   N1        1.0  0.8307685622489702  0.43123885525259453  0.715035201620246  1.0000
  N   N2        1.0  0.16923828468059554  0.06876342597966101  0.21503886932270427  1.0000
  N   N3        1.0  0.1692377692127849  0.5687648233621517  0.2849627693139922  1.0000
  N   N4        1.0  0.8307690617171702  0.9312363599082903  0.7849623615952267  1.0000
  N   N5        1.0  0.11695452241947629  0.35886390937783114  0.737280532767322  1.0000
  N   N6        1.0  0.8830524735958036  0.1411391478689055  0.23728307162338777  1.0000
  N   N7        1.0  0.8830532720273895  0.6411421036749375  0.2627158081757557  1.0000
  N   N8        1.0  0.11695324178776902  0.8588559683944796  0.7627165293025868  1.0000
  N   N9        1.0  0.409454129476849  0.423315201188352  0.7008035957281749  1.0000
  N   N10       1.0  0.5905564307871957  0.07668552252980732  0.2008070189587414  1.0000
  N   N11       1.0  0.5905550159425844  0.5766915895112419  0.2991922018848214  1.0000
  N   N12       1.0  0.40945316948269556  0.9233095914875804  0.799186605332835  1.0000
  N   N13       1.0  0.8440902537468346  0.6724146013642667  0.6764896982339295  1.0000
  N   N14       1.0  0.1559113914963248  0.8275928236767741  0.176489530339154  1.0000
  N   N15       1.0  0.15590324007040832  0.32759064152924827  0.32350990268725605  1.0000
  N   N16       1.0  0.8440908310426211  0.17240774360185904  0.8235111572463865  1.0000
  N   N17       1.0  0.13949137064337694  0.6933600584308978  0.6258803816649348  1.0000
  N   N18       1.0  0.8605031959631548  0.8066419270019837  0.12588506322941836  1.0000
  N   N19       1.0  0.8605004361545311  0.30663973644242765  0.3741186759253664  1.0000
  N   N20       1.0  0.13949677268319502  0.19336331214772426  0.8741134510330184  1.0000
  N   N21       1.0  0.42565409374922347  0.6774773523416613  0.6835930525511955  1.0000
  N   N22       1.0  0.5743339594686176  0.8225207386798132  0.18359481259883378  1.0000
  N   N23       1.0  0.5743374330127369  0.3225185505537808  0.3164065483696987  1.0000
  N   N24       1.0  0.4256619562589279  0.17748216752944762  0.816404788323318  1.0000
  N   N25       1.0  0.6405313773927119  0.6010850630763117  0.8323602902659174  1.0000
  N   N26       1.0  0.35946410918194965  0.8989176786507258  0.33236080414437896  1.0000
  N   N27       1.0  0.3594721401125086  0.39891550345355153  0.16764039732009184  1.0000
  N   N28       1.0  0.6405355794295885  0.1010836685210776  0.6676387967791795  1.0000
  N   N29       1.0  0.7539475102277677  0.31100529232371343  0.049617741275710586  1.0000
  N   N30       1.0  0.24605324065291975  0.18899389602768932  0.5496207424867876  1.0000
  N   N31       1.0  0.2460597801625752  0.6889937151686638  0.9503834896422274  1.0000
  N   N32       1.0  0.7539320353084662  0.811005124193869  0.45037940176227653  1.0000
  O   O1        1.0  0.5777867808483704  0.49732032410837956  0.5742603428488451  1.0000
  O   O2        1.0  0.4222167750895807  0.0026804168989116007  0.07426256625289798  1.0000
  O   O3        1.0  0.4222049699262059  0.5026786923697842  0.4257311081141069  1.0000
  O   O4        1.0  0.5777881493853841  0.9973217056736062  0.9257326880282761  1.0000
