data_image0
_chemical_formula_structural       Zn4H48C96N8O24
_chemical_formula_sum              "Zn4 H48 C96 N8 O24"
_cell_length_a       13.08591709545306
_cell_length_b       13.139454221353471
_cell_length_c       22.325593132989113
_cell_angle_alpha    95.9426846740865
_cell_angle_beta     91.94054900725794
_cell_angle_gamma    114.44147089221123

_space_group_name_H-M_alt    "P 1"
_space_group_IT_number       1

loop_
  _space_group_symop_operation_xyz
  'x, y, z'

loop_
  _atom_site_type_symbol
  _atom_site_label
  _atom_site_symmetry_multiplicity
  _atom_site_fract_x
  _atom_site_fract_y
  _atom_site_fract_z
  _atom_site_occupancy
  Zn  Zn1       1.0  0.8601430742107609  0.7609706865345343  0.2975177533220047  1.0000
  Zn  Zn2       1.0  0.8530078896608444  0.7145459423675149  0.16909202471273224  1.0000
  Zn  Zn3       1.0  0.1398528933778138  0.2390267369665366  0.7024813860726835  1.0000
  Zn  Zn4       1.0  0.14698371645163635  0.2854463887230168  0.8309076183044153  1.0000
  H   H1        1.0  0.704501520053654  0.6307861315515026  0.38070744558771696  1.0000
  H   H2        1.0  0.6985560560916185  0.6208360929601399  0.4928679767252716  1.0000
  H   H3        1.0  0.02436037024373413  0.9048528742942706  0.5176736010459634  1.0000
  H   H4        1.0  0.017437978838906135  0.9029299115999481  0.40542728849158033  1.0000
  H   H5        1.0  0.8425668336672488  0.005000011201154598  0.6972278103735048  1.0000
  H   H6        1.0  0.8447324557224293  0.0012647796355408968  0.8094799817619315  1.0000
  H   H7        1.0  0.8735985435519922  0.49762093846455707  0.771749988176104  1.0000
  H   H8        1.0  0.875222091843284  0.5032720789155078  0.6594116892831321  1.0000
  H   H9        1.0  0.19910327959067337  0.8068144026959984  0.3451030623806658  1.0000
  H   H10       1.0  0.3801759399256285  0.7869448026646497  0.35712879117006924  1.0000
  H   H11       1.0  0.5324973430974324  0.7466617380971383  0.31030174752383727  1.0000
  H   H12       1.0  0.5021224041441101  0.6394646117802694  0.11996954677925936  1.0000
  H   H13       1.0  0.3152960508847755  0.6490564072702156  0.10871127112850587  1.0000
  H   H14       1.0  0.1691722892708967  0.7009137859539578  0.15431132762824967  1.0000
  H   H15       1.0  0.8622959856747983  0.09483403892906492  0.31783735672428987  1.0000
  H   H16       1.0  0.8418353332135737  0.26872062401702124  0.35979523428263593  1.0000
  H   H17       1.0  0.8259704365684399  0.4467271655893795  0.3428449344034944  1.0000
  H   H18       1.0  0.8430801053302375  0.37861378153208153  0.152150511664054  1.0000
  H   H19       1.0  0.8596808690106386  0.20315116961123186  0.11013239441414407  1.0000
  H   H20       1.0  0.8764499200100531  0.02482329519789059  0.12720345360713733  1.0000
  H   H21       1.0  0.700774979156371  0.5853672713596579  0.059624932305794666  1.0000
  H   H22       1.0  0.6953452361849414  0.5950696563232327  0.9473775203601488  1.0000
  H   H23       1.0  0.01871411967992758  0.8821085880008185  0.9795771427651015  1.0000
  H   H24       1.0  0.011553377969342127  0.8596929786866382  0.08961170637958558  1.0000
  H   H25       1.0  0.29549564507910037  0.36921047427002673  0.6192916689277081  1.0000
  H   H26       1.0  0.30144042479633987  0.37915882695666175  0.5071310231932384  1.0000
  H   H27       1.0  0.9756387615083285  0.09514292327126128  0.4823246087578068  1.0000
  H   H28       1.0  0.9825592718823515  0.09706502095326638  0.5945717276365271  1.0000
  H   H29       1.0  0.15744025423641989  0.9950059714004811  0.3027729601436987  1.0000
  H   H30       1.0  0.15527771166191692  0.9987487911437827  0.19052175246237366  1.0000
  H   H31       1.0  0.1264011896574929  0.5023857671510755  0.22825246962757714  1.0000
  H   H32       1.0  0.1247789233616174  0.49673213093297613  0.34058930119098096  1.0000
  H   H33       1.0  0.8008910656280219  0.19317714401994832  0.6548988282813822  1.0000
  H   H34       1.0  0.6198213107956222  0.21305012988856478  0.642870224958038  1.0000
  H   H35       1.0  0.46749785389967263  0.25333566955467285  0.6896964796192717  1.0000
  H   H36       1.0  0.49787510098401094  0.36054036498710934  0.8800278357773833  1.0000
  H   H37       1.0  0.6846964948691293  0.3509401211264347  0.891287298108352  1.0000
  H   H38       1.0  0.8308145287918549  0.29907428786127344  0.8456902041632045  1.0000
  H   H39       1.0  0.13771631822107377  0.9051678346062888  0.6821610330820248  1.0000
  H   H40       1.0  0.15817278015161662  0.7312803465967903  0.6402039132192312  1.0000
  H   H41       1.0  0.1740334855078842  0.5532728988900288  0.6571540747519362  1.0000
  H   H42       1.0  0.1569190268009137  0.6213820176398811  0.8478481461607144  1.0000
  H   H43       1.0  0.14032117127669605  0.7968480266429906  0.8898665250236417  1.0000
  H   H44       1.0  0.12355254722999838  0.9751750675275233  0.872794528699799  1.0000
  H   H45       1.0  0.2992273184230427  0.41463444432810087  0.9403750388597483  1.0000
  H   H46       1.0  0.30465637767625964  0.4049379126982872  0.052623683098197184  1.0000
  H   H47       1.0  0.9812912595071949  0.1178931878711467  0.020425581364790397  1.0000
  H   H48       1.0  0.9884526860732521  0.1403029486708505  0.9103911295204835  1.0000
  C   C1        1.0  0.8816825062766043  0.9449476995437749  0.2331745669772259  1.0000
  C   C2        1.0  0.06733405198968248  0.7695734881961156  0.24170964512380508  1.0000
  C   C3        1.0  0.8269122448528847  0.530328069118525  0.23746988734543342  1.0000
  C   C4        1.0  0.6424748379427072  0.6945070753898718  0.22189797853412324  1.0000
  C   C5        1.0  0.7727836384020536  0.6896960596870727  0.4131167148767218  1.0000
  C   C6        1.0  0.7699584112856002  0.6846860623972902  0.47490162746306197  1.0000
  C   C7        1.0  0.8610491422153502  0.7627580299852281  0.5132254575321014  1.0000
  C   C8        1.0  0.9518553760947412  0.8428931884297766  0.4889863616532819  1.0000
  C   C9        1.0  0.9481795636930458  0.8422535579265968  0.4265690134925249  1.0000
  C   C10       1.0  0.8507412351021628  0.8502971005284508  0.6128817821152237  1.0000
  C   C11       1.0  0.8492343670493555  0.8447842497594281  0.6785577162712284  1.0000
  C   C12       1.0  0.8442392537966942  0.9329494909986668  0.7166373898835656  1.0000
  C   C13       1.0  0.845572853184656  0.9308355326895706  0.779406911420949  1.0000
  C   C14       1.0  0.8509932670347099  0.8400725345994643  0.8040549573284888  1.0000
  C   C15       1.0  0.8559724655973041  0.8413236888865115  0.8704655289213219  1.0000
  C   C16       1.0  0.8641965060395193  0.6517833793471935  0.855736007033094  1.0000
  C   C17       1.0  0.8614530394612315  0.6553760724338176  0.7898943655490668  1.0000
  C   C18       1.0  0.8677967977283245  0.5676059193239738  0.7519594638705482  1.0000
  C   C19       1.0  0.8684422591162501  0.5706847601698186  0.6894110204306825  1.0000
  C   C20       1.0  0.8620324923869022  0.6611185418877598  0.6647758248189601  1.0000
  C   C21       1.0  0.8656868763648548  0.6638395257926889  0.5989007227118959  1.0000
  C   C22       1.0  0.8545905719978252  0.7510774088983608  0.7024509887199455  1.0000
  C   C23       1.0  0.8545198530971023  0.7482838634224935  0.766071237020476  1.0000
  C   C24       1.0  0.17577780759449985  0.75724637804867  0.2483865528515351  1.0000
  C   C25       1.0  0.23460579871500897  0.779971486716974  0.30636663986991397  1.0000
  C   C26       1.0  0.33403919990274744  0.7683266309945793  0.3127682197858874  1.0000
  C   C27       1.0  0.3793112458020503  0.7328733864693292  0.2618743328414012  1.0000
  C   C28       1.0  0.4834959699900239  0.7245008421711248  0.2666589332638053  1.0000
  C   C29       1.0  0.5269625808935245  0.6921833695477346  0.21622770815519485  1.0000
  C   C30       1.0  0.4651982143927711  0.6639355741975594  0.1588011405124519  1.0000
  C   C31       1.0  0.3631493776903271  0.6704806714691643  0.15270263684539737  1.0000
  C   C32       1.0  0.3183770283272125  0.7069010627146994  0.20348435272508414  1.0000
  C   C33       1.0  0.21673583382247597  0.7203221838308806  0.19822464955012004  1.0000
  C   C34       1.0  0.8718411539041996  0.05174027250117061  0.22394849323284655  1.0000
  C   C35       1.0  0.8619352122013311  0.11995940192098693  0.27277585389021647  1.0000
  C   C36       1.0  0.8506371769385839  0.2202766175477109  0.2648632071486218  1.0000
  C   C37       1.0  0.8410268266637145  0.2921394405362605  0.3143207510989682  1.0000
  C   C38       1.0  0.8320422582010496  0.39018901889533464  0.3052626915667459  1.0000
  C   C39       1.0  0.8321122552840875  0.42092690342500555  0.24610341550582854  1.0000
  C   C40       1.0  0.841461290914573  0.3525732390503861  0.19708034740231986  1.0000
  C   C41       1.0  0.8504643817044127  0.2511594055517535  0.20496060029994104  1.0000
  C   C42       1.0  0.8604056975571482  0.17925102726759692  0.15553205810466855  1.0000
  C   C43       1.0  0.8701684990592113  0.0815702096656992  0.16466094732228237  1.0000
  C   C44       1.0  0.7695102208187594  0.6485663387499159  0.0394416308046388  1.0000
  C   C45       1.0  0.7664753526985137  0.654826704087725  0.9777509081892644  1.0000
  C   C46       1.0  0.8572779549631379  0.7389180053118523  0.9555638294398603  1.0000
  C   C47       1.0  0.9471490745381248  0.8147843948693421  0.9953410402412924  1.0000
  C   C48       1.0  0.9436429921661614  0.8025350893561979  0.05650812232381241  1.0000
  C   C49       1.0  0.11831996172162462  0.0550506663945001  0.7668243113716925  1.0000
  C   C50       1.0  0.9326591820315002  0.2304172061439118  0.7582930680721771  1.0000
  C   C51       1.0  0.1730854328210896  0.4696660299058735  0.7625281916518244  1.0000
  C   C52       1.0  0.35752001655290405  0.3054894877031487  0.7780997432895302  1.0000
  C   C53       1.0  0.22721190147562007  0.31030219412995313  0.586882465606834  1.0000
  C   C54       1.0  0.2300387538471611  0.3153105434242319  0.5250974870523634  1.0000
  C   C55       1.0  0.1389464836299155  0.237238552169913  0.48677407258512756  1.0000
  C   C56       1.0  0.048141789038020015  0.1571034173917454  0.5110127528621431  1.0000
  C   C57       1.0  0.051817943562106415  0.1577438908472928  0.5734301583213578  1.0000
  C   C58       1.0  0.149259265897669  0.1497020720593909  0.38711755292436567  1.0000
  C   C59       1.0  0.1507716092777116  0.1552208788598648  0.3214434287589184  1.0000
  C   C60       1.0  0.15576629481947893  0.067056467936581  0.2833637962354415  1.0000
  C   C61       1.0  0.15443474778681582  0.06917548235342251  0.22059417046780538  1.0000
  C   C62       1.0  0.14901467681734462  0.15993932660874322  0.1959470779007048  1.0000
  C   C63       1.0  0.1440334252887681  0.15869065063315452  0.12953661336486277  1.0000
  C   C64       1.0  0.13580519431586424  0.3482300572509232  0.144266892948643  1.0000
  C   C65       1.0  0.13855182543673553  0.3446357398351907  0.21010805286274342  1.0000
  C   C66       1.0  0.13220695559303414  0.432405038962692  0.24804332905420512  1.0000
  C   C67       1.0  0.1315590989692339  0.4293202958438869  0.31059092338387717  1.0000
  C   C68       1.0  0.1379699765170059  0.33888736489542737  0.33522484844066713  1.0000
  C   C69       1.0  0.13430310525071576  0.3361544565062005  0.4010998823153712  1.0000
  C   C70       1.0  0.1454142071641442  0.24892853900690426  0.2975506292104554  1.0000
  C   C71       1.0  0.1454870640086625  0.2517254673222027  0.23393017829235413  1.0000
  C   C72       1.0  0.8242157674118147  0.24274515442443348  0.7516148735799245  1.0000
  C   C73       1.0  0.765389229990312  0.2200217426908395  0.69363446934706  1.0000
  C   C74       1.0  0.6659588214099729  0.23166831740790172  0.6872317085938062  1.0000
  C   C75       1.0  0.6206833532969257  0.2671206652222935  0.738124577359457  1.0000
  C   C76       1.0  0.5164992262488967  0.2754965622678327  0.7333383978373147  1.0000
  C   C77       1.0  0.4730332136226068  0.30781739245783507  0.7837693879091602  1.0000
  C   C78       1.0  0.534797238380051  0.3360643464620736  0.8411963462744366  1.0000
  C   C79       1.0  0.6368438523083809  0.32951754283221396  0.8472960469883756  1.0000
  C   C80       1.0  0.6816152620300642  0.29309295428056  0.7965154048889785  1.0000
  C   C81       1.0  0.7832554309257772  0.2796693075201447  0.8017758322105589  1.0000
  C   C82       1.0  0.12816772891518732  0.9482607091426234  0.7760502224576198  1.0000
  C   C83       1.0  0.13807589490853195  0.8800432925067696  0.7272234568373503  1.0000
  C   C84       1.0  0.14937247571410245  0.7797243767324886  0.7351355247514418  1.0000
  C   C85       1.0  0.15898128708055745  0.7078615316839745  0.6856788444238899  1.0000
  C   C86       1.0  0.16796363125275354  0.6098102405409306  0.6947363089190117  1.0000
  C   C87       1.0  0.1678867916376561  0.5790705706217025  0.7538957887272486  1.0000
  C   C88       1.0  0.1585434869626283  0.6474251664035363  0.802919027596381  1.0000
  C   C89       1.0  0.14954184987178828  0.7488406968368793  0.7950384574842739  1.0000
  C   C90       1.0  0.13960019189665482  0.8207482321686685  0.8444669423810891  1.0000
  C   C91       1.0  0.1298373903945915  0.9184290497705732  0.8353380531634752  1.0000
  C   C92       1.0  0.23049122171795494  0.3514370391761832  0.960558870559623  1.0000
  C   C93       1.0  0.23352745870688812  0.345180047254253  0.0222502703898115  1.0000
  C   C94       1.0  0.1427245146989478  0.2610879046841958  0.04443773986175609  1.0000
  C   C95       1.0  0.05285502113722631  0.1852198703440564  0.004661359134182402  1.0000
  C   C96       1.0  0.05636059044137914  0.19746414341584287  0.9434939656801187  1.0000
  N   N1        1.0  0.8601309377382123  0.7672490182285189  0.3895867127433589  1.0000
  N   N2        1.0  0.8604888403665072  0.7597481858207971  0.5773573029281278  1.0000
  N   N3        1.0  0.8572989188836361  0.7441451732885724  0.8917038639155802  1.0000
  N   N4        1.0  0.8568352611530302  0.7204810720292727  0.07789886948254579  1.0000
  N   N5        1.0  0.13986545680307222  0.23274757174374372  0.61041148952048  1.0000
  N   N6        1.0  0.13950892342255372  0.24025177917377497  0.42264202457152306  1.0000
  N   N7        1.0  0.14270295189056267  0.2558649135600604  0.1082979432495321  1.0000
  N   N8        1.0  0.14316789298543853  0.27951898784586865  0.9221023635682567  1.0000
  O   O1        1.0  0.8901652285155707  0.9244627586883639  0.287270917523486  1.0000
  O   O2        1.0  0.8798504756811242  0.8818142908684267  0.18553831912545599  1.0000
  O   O3        1.0  0.026230402855340215  0.7888738513720169  0.29043173559742996  1.0000
  O   O4        1.0  0.02368117533615803  0.7591485698191465  0.18832786437966575  1.0000
  O   O5        1.0  0.823219292988874  0.5906167843982146  0.2850584043726626  1.0000
  O   O6        1.0  0.829433297575619  0.5558163779407792  0.18380641521282115  1.0000
  O   O7        1.0  0.6928650381535066  0.7209079342544842  0.27482367888016057  1.0000
  O   O8        1.0  0.6827400017170434  0.6735896313172915  0.17334763570683254  1.0000
  O   O9        1.0  0.843327378423915  0.9273458247287821  0.5886928102220281  1.0000
  O   O10       1.0  0.858027031829323  0.920211836003773  0.9061429508123522  1.0000
  O   O11       1.0  0.8727389811215714  0.5753029561555536  0.8796479357356688  1.0000
  O   O12       1.0  0.8734545145671789  0.5898845435150689  0.563469249803809  1.0000
  O   O13       1.0  0.10983270682957175  0.07553386137600171  0.7127286612225274  1.0000
  O   O14       1.0  0.12015019725387793  0.1181815383956319  0.8144617151814796  1.0000
  O   O15       1.0  0.9737692468926867  0.21112699951844152  0.7095726098508093  1.0000
  O   O16       1.0  0.9763066712208187  0.24083450485968427  0.8116756285644013  1.0000
  O   O17       1.0  0.17678317349299286  0.4093815751143454  0.7149386818922848  1.0000
  O   O18       1.0  0.17055266089536764  0.4441733388356469  0.8161902705254176  1.0000
  O   O19       1.0  0.30712921844398267  0.2790852728783478  0.7251747260012491  1.0000
  O   O20       1.0  0.31725391101010564  0.3264102624630994  0.8266493706398773  1.0000
  O   O21       1.0  0.1566721829344928  0.07264915055294101  0.4113075985978511  1.0000
  O   O22       1.0  0.1419827114034291  0.07981011718141671  0.09386375555848048  1.0000
  O   O23       1.0  0.12726254502410234  0.4247138141277703  0.12035157685275517  1.0000
  O   O24       1.0  0.12651810384729598  0.4100949206539609  0.43653058602675515  1.0000
