data_image0
_chemical_formula_structural       Al4H15C37NO20
_chemical_formula_sum              "Al4 H15 C37 N1 O20"
_cell_length_a       6.691101106846451
_cell_length_b       18.194717495683083
_cell_length_c       20.817880900299965
_cell_angle_alpha    107.92689223178522
_cell_angle_beta     90.29804819095783
_cell_angle_gamma    89.87462546106026

_space_group_name_H-M_alt    "P 1"
_space_group_IT_number       1

loop_
  _space_group_symop_operation_xyz
  'x, y, z'

loop_
  _atom_site_type_symbol
  _atom_site_label
  _atom_site_symmetry_multiplicity
  _atom_site_fract_x
  _atom_site_fract_y
  _atom_site_fract_z
  _atom_site_occupancy
  Al  Al1       1.0  0.1334700925080483  0.49986764494944674  0.49727643748013167  1.0000
  Al  Al2       1.0  0.6341208135640172  0.5009163549691777  0.49789878640917357  1.0000
  Al  Al3       1.0  0.6385763580460662  0.9999533529731651  0.9982448721275505  1.0000
  Al  Al4       1.0  0.13862761580597294  0.9999775012028776  0.99803227538402  1.0000
  H   H1        1.0  0.1961830071745823  0.757403885688902  0.1779540020166977  1.0000
  H   H2        1.0  0.5971593103922929  0.8285336875040629  0.24483142716299972  1.0000
  H   H3        1.0  0.6155946901940935  0.747385060247119  0.3219207077604978  1.0000
  H   H4        1.0  0.7099166468394956  0.29242462160582516  0.7117232318925418  1.0000
  H   H5        1.0  0.7101124865460307  0.21236455181526995  0.7900516922839742  1.0000
  H   H6        1.0  0.0665623769032564  0.20857058546910429  0.7859337917411723  1.0000
  H   H7        1.0  0.06628688882646121  0.2885985313577279  0.7075873207720278  1.0000
  H   H8        1.0  0.3656849639758946  0.6794010832759129  0.22222258718265675  1.0000
  H   H9        1.0  0.4734521271224423  0.6047053655615571  0.2828732736651746  1.0000
  H   H10       1.0  0.2250158918324345  0.5722466651567332  0.288075026167391  1.0000
  H   H11       1.0  0.31454086330231223  0.6570495499006485  0.3494891187506256  1.0000
  H   H12       1.0  0.38195173800401255  0.6010276924326236  0.5306049923484865  1.0000
  H   H13       1.0  0.8829934033142379  0.40725244330489835  0.5044483280658626  1.0000
  H   H14       1.0  0.3888312599134521  0.9064024308239668  0.0036122873777344423  1.0000
  H   H15       1.0  0.8883591559681675  0.10144085235664593  0.019192534817307216  1.0000
  C   C1        1.0  0.3857093948385852  0.3954278072042571  0.3934109174453654  1.0000
  C   C2        1.0  0.38421163240502654  0.4215491326093145  0.5731572478083323  1.0000
  C   C3        1.0  0.8841403772996159  0.6068402737619395  0.6027442538913876  1.0000
  C   C4        1.0  0.8832029475294971  0.5778877514356539  0.4225241020247168  1.0000
  C   C5        1.0  0.0687861316452612  0.7544337990191324  0.20957137386689348  1.0000
  C   C6        1.0  0.8969372017847661  0.7965674643529611  0.20568645050655487  1.0000
  C   C7        1.0  0.7296182278772888  0.7943199805636568  0.2466331723640992  1.0000
  C   C8        1.0  0.7408842795331622  0.749388995256524  0.28920367509253714  1.0000
  C   C9        1.0  0.9126741888335772  0.7050906384740898  0.29334735795571026  1.0000
  C   C10       1.0  0.0835610058325571  0.7079851089579066  0.2528446001208877  1.0000
  C   C11       1.0  0.8920885204487375  0.8413372834454408  0.16079740680680035  1.0000
  C   C12       1.0  0.9042046522956041  0.6602193248820142  0.3376701823159323  1.0000
  C   C13       1.0  0.8842390848793257  0.6224131325655831  0.37657840251182517  1.0000
  C   C14       1.0  0.8906369904702912  0.8791563599939353  0.12162579817916004  1.0000
  C   C15       1.0  0.8873032085871131  0.832704373570451  0.8309173127619689  1.0000
  C   C16       1.0  0.8874934230683705  0.7795502980364263  0.7779304214652928  1.0000
  C   C17       1.0  0.8872429867036046  0.7210065778979883  0.7193377114121235  1.0000
  C   C18       1.0  0.8868948329954948  0.6680580430968348  0.6662085263322555  1.0000
  C   C19       1.0  0.38597877310427714  0.33343164847021717  0.33039610656478413  1.0000
  C   C20       1.0  0.3873332943336151  0.28005034521488176  0.2775591081290614  1.0000
  C   C21       1.0  0.38840452868097936  0.22131335105228092  0.21908112635595964  1.0000
  C   C22       1.0  0.3892197334247954  0.16829488710739332  0.16599578581439542  1.0000
  C   C23       1.0  0.5700753188857135  0.22938406682156653  0.771736155310741  1.0000
  C   C24       1.0  0.3883239129714652  0.20533449526857342  0.7930139392744239  1.0000
  C   C25       1.0  0.2064421585011473  0.2272876308705207  0.7694446693937282  1.0000
  C   C26       1.0  0.20631930082527825  0.2716683386660462  0.7259718644945892  1.0000
  C   C27       1.0  0.38807028906465035  0.29557985236905177  0.7045416519383352  1.0000
  C   C28       1.0  0.5699408061940048  0.27378734883966876  0.7282656401796218  1.0000
  C   C29       1.0  0.3882181338169488  0.16013441300344064  0.8374462143371063  1.0000
  C   C30       1.0  0.3876579999558061  0.340167207372069  0.659566398906172  1.0000
  C   C31       1.0  0.3863743068314491  0.37801941109070475  0.6204040910503467  1.0000
  C   C32       1.0  0.38758491764152575  0.12145587051661268  0.8759166687209898  1.0000
  C   C33       1.0  0.3882102967212403  0.0768811843958872  0.9222974132046532  1.0000
  C   C34       1.0  0.38868881434773783  0.10693550288121402  0.10255466774815862  1.0000
  C   C35       1.0  0.8891332447123261  0.9224499851032919  0.07433298326121483  1.0000
  C   C36       1.0  0.8883936684258914  0.8944530723648756  0.8941070842848549  1.0000
  C   C37       1.0  0.3191143838110264  0.6235631412535483  0.29565067966301234  1.0000
  N   N1        1.0  0.258165667542201  0.6690594926944159  0.2524049156890059  1.0000
  O   O1        1.0  0.5538007075136305  0.4369530017585462  0.5527230138661281  1.0000
  O   O2        1.0  0.215714784906119  0.417293675400373  0.4194061114563469  1.0000
  O   O3        1.0  0.053919003782851894  0.5569864422364931  0.43843111015827685  1.0000
  O   O4        1.0  0.21269573897635038  0.43965042016028394  0.5556251525079079  1.0000
  O   O5        1.0  0.053517157030754006  0.5844725055275292  0.5760882171368706  1.0000
  O   O6        1.0  0.5558052780204292  0.4214514457229371  0.4170801597997311  1.0000
  O   O7        1.0  0.38303092870466315  0.5462260419843332  0.5063390246725703  1.0000
  O   O8        1.0  0.7123042221456403  0.5819928214563105  0.5794657108097638  1.0000
  O   O9        1.0  0.7141069816561156  0.5635582545078536  0.4440771726302445  1.0000
  O   O10       1.0  0.8835541373028518  0.45456149240524013  0.4922371732641154  1.0000
  O   O11       1.0  0.21757611203584304  0.08269711808680569  0.07816215679561371  1.0000
  O   O12       1.0  0.5587105588346475  0.058701848772344106  0.9402715745166575  1.0000
  O   O13       1.0  0.7186014885756933  0.9172778351457895  0.9198191848023216  1.0000
  O   O14       1.0  0.5590156105374008  0.08406834091098861  0.07709752332966961  1.0000
  O   O15       1.0  0.7180772241546336  0.9404224934700733  0.05632509246353122  1.0000
  O   O16       1.0  0.21853902428762947  0.0606140045128996  0.9417886838862659  1.0000
  O   O17       1.0  0.3886593015317743  0.9544410227096589  0.9925884076879827  1.0000
  O   O18       1.0  0.0587409011802436  0.9379778854558934  0.053977300056168104  1.0000
  O   O19       1.0  0.059321488813751  0.9190428244064393  0.918095036424262  1.0000
  O   O20       1.0  0.8884858267613109  0.0455347871559439  0.005570510270672505  1.0000
