data_image0
_chemical_formula_structural       Nd2H28C36N6O16
_chemical_formula_sum              "Nd2 H28 C36 N6 O16"
_cell_length_a       9.41533020342764
_cell_length_b       9.773758442306793
_cell_length_c       12.351607765164884
_cell_angle_alpha    67.04046822124526
_cell_angle_beta     86.79494500529059
_cell_angle_gamma    81.9233797970191

_space_group_name_H-M_alt    "P 1"
_space_group_IT_number       1

loop_
  _space_group_symop_operation_xyz
  'x, y, z'

loop_
  _atom_site_type_symbol
  _atom_site_label
  _atom_site_symmetry_multiplicity
  _atom_site_fract_x
  _atom_site_fract_y
  _atom_site_fract_z
  _atom_site_occupancy
  Nd  Nd1       1.0  0.689672846168726  0.11512903872022656  0.4452714335623187  1.0000
  Nd  Nd2       1.0  0.31032800146544304  0.8848737385282488  0.5547272284696307  1.0000
  H   H1        1.0  0.6794244759136417  0.4515129302601296  0.41712702799062384  1.0000
  H   H2        1.0  0.3205817017406217  0.5484899118641805  0.5828698054116047  1.0000
  H   H3        1.0  0.6209550808378027  0.45830825698889294  0.29567423547005234  1.0000
  H   H4        1.0  0.37904318560619293  0.5416978518776289  0.7043234826322688  1.0000
  H   H5        1.0  0.6713302061940994  0.8470455995631522  0.679775317285497  1.0000
  H   H6        1.0  0.3286667204668916  0.15295486796806296  0.32022258249669733  1.0000
  H   H7        1.0  0.8016872291821356  0.939081489700975  0.6775449297107343  1.0000
  H   H8        1.0  0.19830901949294596  0.060915634562128694  0.3224597008641652  1.0000
  H   H9        1.0  0.485172214723022  0.979236218157645  0.13850128191651834  1.0000
  H   H10       1.0  0.5148311613737064  0.020763250986092892  0.8615023668771685  1.0000
  H   H11       1.0  0.6795353499640058  0.00028331565034989413  0.9852285833657106  1.0000
  H   H12       1.0  0.3204721101909342  0.9997173380644707  0.014775361954100856  1.0000
  H   H13       1.0  0.927623590863057  0.8774706304783989  0.05320534468389585  1.0000
  H   H14       1.0  0.07237915398456349  0.1225333298446714  0.9467985498714598  1.0000
  H   H15       1.0  0.7191228996393947  0.3607045355157225  0.6289871952511704  1.0000
  H   H16       1.0  0.2808889918348711  0.6392950430725435  0.37101449801466657  1.0000
  H   H17       1.0  0.9046326079172361  0.4005086722501331  0.7491933956531442  1.0000
  H   H18       1.0  0.09537673400342331  0.5994942238481967  0.2508049279838006  1.0000
  H   H19       1.0  0.030127100549570733  0.6306669794712646  0.6581661188696802  1.0000
  H   H20       1.0  0.96988177919782  0.36933142469947455  0.3418344270042297  1.0000
  H   H21       1.0  0.2993381201426004  0.321029195298351  0.11954102745089305  1.0000
  H   H22       1.0  0.7006492504460907  0.6789711385267765  0.8804572530256822  1.0000
  H   H23       1.0  0.22384612045064495  0.4361435011077504  0.9069516459032485  1.0000
  H   H24       1.0  0.7761406399799783  0.5638613144913903  0.09304526320215704  1.0000
  H   H25       1.0  0.642460510882934  0.3981832501546377  0.7929878435323588  1.0000
  H   H26       1.0  0.3575261135445018  0.6018148232245863  0.20701035636275836  1.0000
  H   H27       1.0  0.7363956790682523  0.2823974005297031  0.0017414032817911344  1.0000
  H   H28       1.0  0.26359006319472666  0.7175916701837081  0.9982580068215728  1.0000
  C   C1        1.0  0.5215186734469911  0.8533745239963649  0.373192572472931  1.0000
  C   C2        1.0  0.47848869288684165  0.14661936868790085  0.6268094293709084  1.0000
  C   C3        1.0  0.6291420711793095  0.8466413669734365  0.2812631951429908  1.0000
  C   C4        1.0  0.370863744113592  0.1533558862930917  0.7187402461711089  1.0000
  C   C5        1.0  0.5942506115958607  0.9243805835945264  0.16267633261675493  1.0000
  C   C6        1.0  0.4057547355329731  0.07562003570517112  0.8373268887353832  1.0000
  C   C7        1.0  0.7013170186802428  0.9361308080266182  0.0783389038909946  1.0000
  C   C8        1.0  0.2986913401754734  0.06387098569059897  0.9216654648530709  1.0000
  C   C9        1.0  0.8396100509524446  0.8676005338525385  0.11648537769126936  1.0000
  C   C10       1.0  0.16039816590927805  0.13240237560552973  0.8835178396435809  1.0000
  C   C11       1.0  0.7702947960178789  0.7753748461244995  0.31076829606266204  1.0000
  C   C12       1.0  0.22970967350122612  0.22462462376748252  0.689232884732384  1.0000
  C   C13       1.0  0.8089178163043015  0.6776953265444732  0.4355201618997314  1.0000
  C   C14       1.0  0.19109103180652198  0.3223030917342554  0.56448280967345  1.0000
  C   C15       1.0  0.7747554898660525  0.4600258310398501  0.5951467360915859  1.0000
  C   C16       1.0  0.22525537145896374  0.5399737185841998  0.4048525737743633  1.0000
  C   C17       1.0  0.8765603070146497  0.4832535209512229  0.6616134221911596  1.0000
  C   C18       1.0  0.12344779948963243  0.5167504901396993  0.33838621803521124  1.0000
  C   C19       1.0  0.94745235945652  0.6088972361920211  0.6108043694302341  1.0000
  C   C20       1.0  0.052554827255953326  0.3911056443018237  0.3891964645047283  1.0000
  C   C21       1.0  0.9115106808239233  0.7103736071942989  0.4967406532305106  1.0000
  C   C22       1.0  0.08849510738713921  0.2896315134383087  0.5032619630175078  1.0000
  C   C23       1.0  0.9773360318632174  0.853436426196211  0.44692020614770916  1.0000
  C   C24       1.0  0.022664510691917907  0.14656859193926408  0.5530777701986551  1.0000
  C   C25       1.0  0.5785214178131922  0.23520973642440876  0.20015516927078644  1.0000
  C   C26       1.0  0.421468675959666  0.7647861500418285  0.7998452065446319  1.0000
  C   C27       1.0  0.524647301127878  0.2934291654995178  0.07579835252057887  1.0000
  C   C28       1.0  0.4753384351443017  0.7065677631746539  0.9241986153838584  1.0000
  C   C29       1.0  0.37837644805770765  0.33422052079593806  0.04944566025516652  1.0000
  C   C30       1.0  0.6216107910825104  0.6657809240673698  0.9505506602457672  1.0000
  C   C31       1.0  0.3363944819539171  0.39804051384170686  0.9318162690781548  1.0000
  C   C32       1.0  0.6635916848549641  0.6019609208680309  0.06818090228858155  1.0000
  C   C33       1.0  0.570210401823303  0.3771000694601341  0.8681573763178251  1.0000
  C   C34       1.0  0.42977669076820046  0.6228946378859206  0.13184104353924653  1.0000
  C   C35       1.0  0.6220388130627653  0.31352529071660473  0.982804456927504  1.0000
  C   C36       1.0  0.37794843206825135  0.68646829618595  0.017194305772363857  1.0000
  N   N1        1.0  0.8737426253658926  0.7866537465589686  0.22956224292125438  1.0000
  N   N2        1.0  0.1262659176658971  0.21334691260675948  0.7704400429663352  1.0000
  N   N3        1.0  0.7427000684755924  0.5540582147664708  0.48408468756277767  1.0000
  N   N4        1.0  0.2573089743568318  0.4459390642581126  0.5159153925875091  1.0000
  N   N5        1.0  0.43018528514008375  0.4209658526255423  0.842665333861163  1.0000
  N   N6        1.0  0.569801932909094  0.5790356016430918  0.15733260377261626  1.0000
  O   O1        1.0  0.5599448130320753  0.8980412529864522  0.451546395194093  1.0000
  O   O2        1.0  0.4400619491344883  0.10194926351106656  0.5484566774774963  1.0000
  O   O3        1.0  0.3963728895910847  0.8234709845430286  0.3703500229499357  1.0000
  O   O4        1.0  0.6036343498489954  0.17653187243751484  0.6296467681529097  1.0000
  O   O5        1.0  0.8962532291045663  0.9745895169229041  0.3933294532204033  1.0000
  O   O6        1.0  0.10374713982000831  0.025416631061403898  0.6066697974160107  1.0000
  O   O7        1.0  0.11065549680748892  0.8434084450705653  0.46379041513648644  1.0000
  O   O8        1.0  0.8893466013432912  0.15660106574075167  0.5362028709742647  1.0000
  O   O9        1.0  0.7122347794172511  0.21466248621253917  0.21861929467700494  1.0000
  O   O10       1.0  0.28775611324446965  0.7853356371862928  0.7813771188877612  1.0000
  O   O11       1.0  0.4872539478415516  0.20976162259467657  0.28442459672150744  1.0000
  O   O12       1.0  0.5127361248402595  0.7902342732768799  0.7155773962267561  1.0000
  O   O13       1.0  0.6550849095623121  0.3860293512668632  0.3763443699200978  1.0000
  O   O14       1.0  0.3449167053241524  0.6139756770221891  0.6236527555604641  1.0000
  O   O15       1.0  0.7562282199615423  0.8919237735010981  0.6346333307678622  1.0000
  O   O16       1.0  0.24377064609500107  0.10807785829406666  0.36536656727205513  1.0000
