data_image0
_chemical_formula_structural       Zn2H38C31N2O11
_chemical_formula_sum              "Zn2 H38 C31 N2 O11"
_cell_length_a       9.658778409239922
_cell_length_b       11.030835813021088
_cell_length_c       16.061288710441623
_cell_angle_alpha    92.10601130197124
_cell_angle_beta     88.9174269442834
_cell_angle_gamma    91.30787755198149

_space_group_name_H-M_alt    "P 1"
_space_group_IT_number       1

loop_
  _space_group_symop_operation_xyz
  'x, y, z'

loop_
  _atom_site_type_symbol
  _atom_site_label
  _atom_site_symmetry_multiplicity
  _atom_site_fract_x
  _atom_site_fract_y
  _atom_site_fract_z
  _atom_site_occupancy
  Zn  Zn1       1.0  0.6454380804101377  0.5046724699240813  0.5025462667940559  1.0000
  Zn  Zn2       1.0  0.36410121621708674  0.506745170811719  0.5062920308882113  1.0000
  H   H1        1.0  0.6099057093740257  0.6625720624967216  0.9345413330844679  1.0000
  H   H2        1.0  0.7209555710451525  0.5103203463982028  0.0666864423288445  1.0000
  H   H3        1.0  0.38039708676856077  0.3285256944642115  0.9405294743389803  1.0000
  H   H4        1.0  0.5973353805965544  0.08668812743545831  0.4759839530352608  1.0000
  H   H5        1.0  0.3054711950056231  0.8912466223626229  0.5266243298556716  1.0000
  H   H6        1.0  0.6197067124262716  0.9176754404726425  0.5510099549425576  1.0000
  H   H7        1.0  0.8669588297801383  0.3566165890807937  0.5766233435681445  1.0000
  H   H8        1.0  0.9116944875367848  0.5886354952935378  0.4962268062061456  1.0000
  H   H9        1.0  0.12584880724010364  0.41552354450831075  0.6160744183269886  1.0000
  H   H10       1.0  0.6536301445778251  0.6580679758045992  0.0750875173750032  1.0000
  H   H11       1.0  0.1052442517171812  0.5080597530595129  0.4481758365273336  1.0000
  H   H12       1.0  0.27733548590239815  0.5440065267834769  0.0811239408610334  1.0000
  H   H13       1.0  0.3822977728977861  0.6766793902361742  0.07081535043644753  1.0000
  H   H14       1.0  0.2757181434077864  0.5165462482419586  0.9360976844324898  1.0000
  H   H15       1.0  0.576147458947247  0.32965742552687527  0.0795372749913241  1.0000
  H   H16       1.0  0.3936599129109766  0.33577107846578264  0.0854875004659874  1.0000
  H   H17       1.0  0.5600631102784847  0.30782224779675  0.9345668769303048  1.0000
  H   H18       1.0  0.7407380523788945  0.3628397774755642  0.8671500439255553  1.0000
  H   H19       1.0  0.7959715460181869  0.38255893977487443  0.9726568626720891  1.0000
  H   H20       1.0  0.958147705018682  0.46776346588742274  0.8188923999451561  1.0000
  H   H21       1.0  0.015043531400728193  0.4823293504314279  0.9225614615044508  1.0000
  H   H22       1.0  0.014409117316105799  0.2525375271500394  0.9310510540662023  1.0000
  H   H23       1.0  0.12330493590609849  0.3023773296662001  0.8482560416645342  1.0000
  H   H24       1.0  0.9568263029071815  0.23839307719490685  0.8268076406103121  1.0000
  H   H25       1.0  0.15641273223021557  0.13024976056242826  0.665929642218373  1.0000
  H   H26       1.0  0.22808758196141093  0.9862888041213157  0.6407316374057289  1.0000
  H   H27       1.0  0.024659656611611104  0.119262838956864  0.5327575711668546  1.0000
  H   H28       1.0  0.08992569631805483  0.9742446585169238  0.5085078334516737  1.0000
  H   H29       1.0  0.9727917723648575  0.8936033456199369  0.639319103983091  1.0000
  H   H30       1.0  0.851695178043748  0.9560384394698362  0.5722997421098699  1.0000
  H   H31       1.0  0.9058535354625614  0.03968306650794771  0.6628420640401063  1.0000
  H   H32       1.0  0.24587044132773878  0.8242678626261436  0.8960576620054397  1.0000
  H   H33       1.0  0.15632551973769176  0.6991798806185232  0.9404727586448873  1.0000
  H   H34       1.0  0.28237693095324806  0.7030299718934147  0.7631803798818382  1.0000
  H   H35       1.0  0.19538677373704874  0.5772493589479523  0.8052135515250995  1.0000
  H   H36       1.0  0.974945842726754  0.698017657250091  0.8228688690781925  1.0000
  H   H37       1.0  0.034611043615925  0.6937062922514273  0.7177243839516549  1.0000
  H   H38       1.0  0.06310645704029132  0.8261161097271952  0.7815876741272589  1.0000
  C   C1        1.0  0.5142939953489717  0.7413923772352149  0.5291257849065332  1.0000
  C   C2        1.0  0.6271444480419746  0.5693390814522418  0.9527820767522004  1.0000
  C   C3        1.0  0.49626903231508374  0.49520398239292973  0.9226336971328308  1.0000
  C   C4        1.0  0.48043683010526905  0.367908857072564  0.9607237440485152  1.0000
  C   C5        1.0  0.486435450904679  0.377217169346011  0.05671765450708931  1.0000
  C   C6        1.0  0.49304660752250135  0.4846837501675481  0.832666824661203  1.0000
  C   C7        1.0  0.49933736380667443  0.5202331140538022  0.17666635901576205  1.0000
  C   C8        1.0  0.4993768789864603  0.5237576676357848  0.2524090986322989  1.0000
  C   C9        1.0  0.4019651437204813  0.07380789192021102  0.5349403811687097  1.0000
  C   C10       1.0  0.5099611321141068  0.13790092473299612  0.5007892288194641  1.0000
  C   C11       1.0  0.40352644492469375  0.9413172419689533  0.5348530931244326  1.0000
  C   C12       1.0  0.4976607952304306  0.5238515099980251  0.342464903285709  1.0000
  C   C13       1.0  0.5181234858165169  0.8753256888904065  0.5405429095066838  1.0000
  C   C14       1.0  0.9241855760996741  0.4345569791606679  0.5514443756530056  1.0000
  C   C15       1.0  0.07632060738451679  0.44442642637983465  0.5593642257136582  1.0000
  C   C16       1.0  0.5215056472610443  0.270187425232571  0.49556943962236494  1.0000
  C   C17       1.0  0.4821622200451118  0.48262982996096343  0.6676755466932747  1.0000
  C   C18       1.0  0.6342095646470653  0.5661052909315247  0.0486912346375235  1.0000
  C   C19       1.0  0.37340754287887284  0.5798503251181587  0.052615683549667815  1.0000
  C   C20       1.0  0.3690032488132715  0.5683764504154  0.9562013054157603  1.0000
  C   C21       1.0  0.48766803749386156  0.4773163346565427  0.7571717483273659  1.0000
  C   C22       1.0  0.4983467274331232  0.5122625230042389  0.0862656533980513  1.0000
  C   C23       1.0  0.803617548517373  0.42121369224734934  0.909989843032257  1.0000
  C   C24       1.0  0.9536986049426872  0.4238024870841458  0.8793611672623102  1.0000
  C   C25       1.0  0.0153153482966673  0.2974817582235829  0.8709809546540088  1.0000
  C   C26       1.0  0.1849296842168116  0.06744780364604001  0.6137745847677466  1.0000
  C   C27       1.0  0.059070890483830886  0.035701002494491305  0.5608734404113278  1.0000
  C   C28       1.0  0.9411163883856233  0.9781424215934114  0.6116687753532803  1.0000
  C   C29       1.0  0.2377694734254732  0.7244751374904016  0.8944984836210638  1.0000
  C   C30       1.0  0.19929716990176158  0.6771656115196337  0.8073057029487742  1.0000
  C   C31       1.0  0.06047350953094369  0.7262459333179764  0.7811734304537767  1.0000
  N   N1        1.0  0.8550467462186404  0.5146314131495943  0.5158487984733142  1.0000
  N   N2        1.0  0.15442778903982193  0.4868091748215235  0.5017889351683352  1.0000
  O   O1        1.0  0.6313224405805612  0.690800511942456  0.5198749279122412  1.0000
  O   O2        1.0  0.3959320348313184  0.6873971350806373  0.528312978682081  1.0000
  O   O3        1.0  0.6147163218363686  0.5168844355655154  0.3773290368328689  1.0000
  O   O4        1.0  0.3795622097546953  0.529938509424632  0.3788301259098291  1.0000
  O   O5        1.0  0.6441252221874194  0.31739686065934347  0.4938291432217313  1.0000
  O   O6        1.0  0.4101444074119128  0.3297852836372358  0.4922148246924678  1.0000
  O   O7        1.0  0.5983544456514309  0.4870245681181019  0.6288329310115657  1.0000
  O   O8        1.0  0.3625369059944957  0.48495622475581274  0.6356607113787264  1.0000
  O   O9        1.0  0.7557236966696336  0.5427530074427056  0.9113004721831359  1.0000
  O   O10       1.0  0.28930342668328274  0.13241028553044035  0.5667175978437201  1.0000
  O   O11       1.0  0.37029121350961697  0.6850103577121518  0.9205572855115918  1.0000
