data_image0
_chemical_formula_structural       Li4H36C20Br4N4O8
_chemical_formula_sum              "Li4 H36 C20 Br4 N4 O8"
_cell_length_a       5.008807597136581
_cell_length_b       9.644232935027986
_cell_length_c       15.450182606445827
_cell_angle_alpha    90.00020411630415
_cell_angle_beta     90.00084105053503
_cell_angle_gamma    90.00015690037522

_space_group_name_H-M_alt    "P 1"
_space_group_IT_number       1

loop_
  _space_group_symop_operation_xyz
  'x, y, z'

loop_
  _atom_site_type_symbol
  _atom_site_label
  _atom_site_symmetry_multiplicity
  _atom_site_fract_x
  _atom_site_fract_y
  _atom_site_fract_z
  _atom_site_occupancy
  Li  Li1       1.0  0.9791813560111251  0.24696903331920336  0.061357846909729084  1.0000
  Li  Li2       1.0  0.4791801134008864  0.2530133105257094  0.9386505066531254  1.0000
  Li  Li3       1.0  0.5208178084508931  0.753046800219188  0.5613546291547991  1.0000
  Li  Li4       1.0  0.020835722823349605  0.746988659155285  0.4386480918986279  1.0000
  H   H1        1.0  0.6523698221287263  0.5111458959393502  0.2334828289439059  1.0000
  H   H2        1.0  0.15233833309495276  0.9888471939777544  0.766515984796946  1.0000
  H   H3        1.0  0.8476471495057469  0.4888564399401433  0.7334831835392279  1.0000
  H   H4        1.0  0.34763973076904625  0.0111537568636706  0.2665154852009763  1.0000
  H   H5        1.0  0.1367026044481818  0.4566040304618468  0.172106869313879  1.0000
  H   H6        1.0  0.6366974376603524  0.0433810516571498  0.8278946830023484  1.0000
  H   H7        1.0  0.36328713930954143  0.5433891033564606  0.6720996479893913  1.0000
  H   H8        1.0  0.8632918821767818  0.9566218430111633  0.32789563488827156  1.0000
  H   H9        1.0  0.35330377140298463  0.5535069306333541  0.2774182158221237  1.0000
  H   H10       1.0  0.8532924503363971  0.9464822302302237  0.7225873755388434  1.0000
  H   H11       1.0  0.1467027387442599  0.4464899371848006  0.7774142910673162  1.0000
  H   H12       1.0  0.6467000680809676  0.05350967224647011  0.22258407246210504  1.0000
  H   H13       1.0  0.7240661380455437  0.7410625949191713  0.2273409227991365  1.0000
  H   H14       1.0  0.22404940233807485  0.758934720521296  0.7726595252961701  1.0000
  H   H15       1.0  0.7759445649371557  0.25894281527113355  0.7273410924641225  1.0000
  H   H16       1.0  0.2759469090527632  0.2410693773446724  0.2726540002320589  1.0000
  H   H17       1.0  0.37126781879766213  0.7736342151321833  0.2323206452204474  1.0000
  H   H18       1.0  0.8712790750127655  0.7263528914823851  0.7676798534069176  1.0000
  H   H19       1.0  0.12872865540254003  0.2263654964374098  0.7323206946222454  1.0000
  H   H20       1.0  0.6287294686414598  0.2736413516686439  0.2676749947620324  1.0000
  H   H21       1.0  0.6881396881884073  0.6875026431382806  0.070983405022389  1.0000
  H   H22       1.0  0.18816035662071331  0.8124935963764911  0.9290188145979953  1.0000
  H   H23       1.0  0.8118239771389355  0.3124976940209123  0.5709819178226211  1.0000
  H   H24       1.0  0.31183906983582693  0.1875052056153024  0.4290146394409859  1.0000
  H   H25       1.0  0.4582713230037713  0.8271569973731231  0.08246960540123638  1.0000
  H   H26       1.0  0.9582630883700886  0.6728167242692038  0.9175306583101699  1.0000
  H   H27       1.0  0.041726324970063906  0.1728366428199948  0.5824704222861428  1.0000
  H   H28       1.0  0.5417303061998028  0.3271784058166958  0.41752938542467166  1.0000
  H   H29       1.0  0.2727338567084204  0.5831393687856734  0.0166845686739165  1.0000
  H   H30       1.0  0.772740184740286  0.9168465938015445  0.9833154629014584  1.0000
  H   H31       1.0  0.22723684290320992  0.41686010335735096  0.5166841984834534  1.0000
  H   H32       1.0  0.7272641861951145  0.0831520363065934  0.48330872167857547  1.0000
  H   H33       1.0  0.08399845906544812  0.6695569560264546  0.09834150121363187  1.0000
  H   H34       1.0  0.5839985156607953  0.8304256906960599  0.9016634609342089  1.0000
  H   H35       1.0  0.4159919243128911  0.33043988874580077  0.5983334264610531  1.0000
  H   H36       1.0  0.9160041399424019  0.16957038236052574  0.4016590938563311  1.0000
  C   C1        1.0  0.4849034484105843  0.3833239544308427  0.10384175624865577  1.0000
  C   C2        1.0  0.9848739116054619  0.11665528494342682  0.8961633881581361  1.0000
  C   C3        1.0  0.015115135724869302  0.6166677384621906  0.6038323942365905  1.0000
  C   C4        1.0  0.5151264976190859  0.8833397186872248  0.3961651218090125  1.0000
  C   C5        1.0  0.3246810460925502  0.49900867529429865  0.14711542258665836  1.0000
  C   C6        1.0  0.8246747425902328  0.0009849063078349  0.8528811955572236  1.0000
  C   C7        1.0  0.17529957590910783  0.5009946795229823  0.6471188698016164  1.0000
  C   C8        1.0  0.6753456604520452  0.9990264313868096  0.35288458352813723  1.0000
  C   C9        1.0  0.5286856077568985  0.7126920875183346  0.20080093723293396  1.0000
  C   C10       1.0  0.028684238527432602  0.7872894621383962  0.7991921123863717  1.0000
  C   C11       1.0  0.9713019274492681  0.2873121286910347  0.7008027409141275  1.0000
  C   C12       1.0  0.47131727217841757  0.21271271901804312  0.2991952195213443  1.0000
  C   C13       1.0  0.5034059367153106  0.7209806755679579  0.1029204896618268  1.0000
  C   C14       1.0  0.0033889982637730996  0.7790039572611178  0.897072440101297  1.0000
  C   C15       1.0  0.9965771489259367  0.2790105186477874  0.6029256316001933  1.0000
  C   C16       1.0  0.4966109725657121  0.22099569255685483  0.3970750376267844  1.0000
  C   C17       1.0  0.27605565341581695  0.619858922892739  0.08380421091316488  1.0000
  C   C18       1.0  0.7760427191546528  0.8801208219650147  0.9161971308379008  1.0000
  C   C19       1.0  0.2239260832481023  0.3801399096192456  0.5837992156836406  1.0000
  C   C20       1.0  0.7239566042775395  0.11987741090172215  0.4161969250065666  1.0000
  Br  Br1       1.0  0.0093908261089979  0.0125893080872288  0.1461212860506933  1.0000
  Br  Br2       1.0  0.5093977189256267  0.4873583076013475  0.8538783683284592  1.0000
  Br  Br3       1.0  0.49061969790339083  0.9874461844050091  0.6461182080132133  1.0000
  Br  Br4       1.0  0.9906247258274876  0.5126136342139349  0.353882856390733  1.0000
  N   N1        1.0  0.473790294333412  0.5627900994361568  0.22172984911187396  1.0000
  N   N2        1.0  0.9737774512058267  0.9372012661824841  0.7782672519578426  1.0000
  N   N3        1.0  0.026207694848913807  0.43720851255482523  0.7217279223349634  1.0000
  N   N4        1.0  0.5262156020967197  0.0627888920978918  0.2782724590513722  1.0000
  O   O1        1.0  0.7320064878332104  0.37385215196139404  0.11908681174404728  1.0000
  O   O2        1.0  0.23198981531395194  0.1261496239985433  0.880914545050146  1.0000
  O   O3        1.0  0.7680152657882503  0.6261609126072117  0.6190838466780517  1.0000
  O   O4        1.0  0.2680233963913849  0.8738416350856468  0.3809193987615059  1.0000
  O   O5        1.0  0.35071041341831943  0.30713104462819274  0.05245749793659368  1.0000
  O   O6        1.0  0.8507076668257555  0.19284908576326393  0.947554130132815  1.0000
  O   O7        1.0  0.1492958525005648  0.6928686392493403  0.5524515240832955  1.0000
  O   O8        1.0  0.6493290190125762  0.8071638491904309  0.4475621618381638  1.0000
