data_image0
_chemical_formula_structural       Zn8H28C48O30
_chemical_formula_sum              "Zn8 H28 C48 O30"
_cell_length_a       18.469368937317277
_cell_length_b       18.562869884187606
_cell_length_c       18.61887050843879
_cell_angle_alpha    90.40399255155539
_cell_angle_beta     119.82789633204268
_cell_angle_gamma    119.55272738725509

_space_group_name_H-M_alt    "P 1"
_space_group_IT_number       1

loop_
  _space_group_symop_operation_xyz
  'x, y, z'

loop_
  _atom_site_type_symbol
  _atom_site_label
  _atom_site_symmetry_multiplicity
  _atom_site_fract_x
  _atom_site_fract_y
  _atom_site_fract_z
  _atom_site_occupancy
  Zn  Zn1       1.0  0.5876472666521622  0.04386656398251889  0.13227270576057035  1.0000
  Zn  Zn2       1.0  0.41726176813401855  0.8726228527588447  0.9584683619613159  1.0000
  Zn  Zn3       1.0  0.5874733327065941  0.04394640713830709  0.9586458381235587  1.0000
  Zn  Zn4       1.0  0.4148729179359237  0.04413175170060409  0.9586261546239497  1.0000
  Zn  Zn5       1.0  0.41203745397051256  0.45571288158262035  0.3703490144869903  1.0000
  Zn  Zn6       1.0  0.41665824538346635  0.45818772050954226  0.5444928709312364  1.0000
  Zn  Zn7       1.0  0.5866071566866609  0.6285635517080621  0.5421021194296642  1.0000
  Zn  Zn8       1.0  0.5871829464891719  0.45527687535374634  0.5410348894118401  1.0000
  H   H1        1.0  0.3656797553128258  0.9743377692107558  0.2958618416876462  1.0000
  H   H2        1.0  0.09638692370793227  0.6868350054599048  0.8155409021340034  1.0000
  H   H3        1.0  0.5750308147336013  0.27997221861571836  0.1044765275742918  1.0000
  H   H4        1.0  0.08370700295611047  0.8436680270446075  0.7796712679660304  1.0000
  H   H5        1.0  0.5993417548665009  0.8116451532525063  0.6928958529915974  1.0000
  H   H6        1.0  0.46493611211904107  0.656775376921736  0.7287982037105252  1.0000
  H   H7        1.0  0.6158370073849541  0.9058935918001721  0.8037145372003422  1.0000
  H   H8        1.0  0.4170120454357188  0.7389320745815126  0.7599985872742393  1.0000
  H   H9        1.0  0.6122914408578952  0.8128441733193128  0.4023034693722066  1.0000
  H   H10       1.0  0.4305963559240737  0.6511823961755211  0.23483067777553399  1.0000
  H   H11       1.0  0.5763297649655142  0.8970742047312041  0.30133389992465714  1.0000
  H   H12       1.0  0.0823170453353654  0.3143506243237155  0.3529162717999839  1.0000
  H   H13       1.0  0.6399928365311212  0.43331493387575637  0.11098130842589878  1.0000
  H   H14       1.0  0.6375314756154469  0.528054856982891  0.20475610828367513  1.0000
  H   H15       1.0  0.5696134980969418  0.4687069274191557  0.2911376968878018  1.0000
  H   H16       1.0  0.42440212205190864  0.22134862061773217  0.3932565279107081  1.0000
  H   H17       1.0  0.36245193606995235  0.0688953954880347  0.38904431431465986  1.0000
  H   H18       1.0  0.4302367684108788  0.03255196639042169  0.20712231342431406  1.0000
  H   H19       1.0  0.0917941629478776  0.32130492343798517  0.19171072951717597  1.0000
  H   H20       1.0  0.8084692604928138  0.2952765476262655  0.0151275938107247  1.0000
  H   H21       1.0  0.5465260529612692  0.6622071590019941  0.13094546750421893  1.0000
  H   H22       1.0  0.926231806301587  0.1822700610798904  0.258997001065019  1.0000
  H   H23       1.0  0.6041285711455587  0.2870836936459469  0.6964380527539831  1.0000
  H   H24       1.0  0.45854097322505544  0.3036393880695413  0.7201595836136362  1.0000
  H   H25       1.0  0.6179147440419969  0.20916532174624078  0.8039278856601728  1.0000
  H   H26       1.0  0.439246101347962  0.20308382568524763  0.7851931385859034  1.0000
  H   H27       1.0  0.9102982351332899  0.5931247477995003  0.7023178273927826  1.0000
  H   H28       1.0  0.9189324932409024  0.7624473386594417  0.7260041985050519  1.0000
  C   C1        1.0  0.2285713378485995  0.8621597983267365  0.8693894323859723  1.0000
  C   C2        1.0  0.39128676838685555  0.0955165824657485  0.3499349936525391  1.0000
  C   C3        1.0  0.39302609124491994  0.04179718071722499  0.2969465766781667  1.0000
  C   C4        1.0  0.7756581810498702  0.1328011310876178  0.14070629162270615  1.0000
  C   C5        1.0  0.42879117204208234  0.0742609217641359  0.247139530650891  1.0000
  C   C6        1.0  0.055334941535271236  0.30235415966866697  0.22638371414954855  1.0000
  C   C7        1.0  0.1141630246740277  0.3272844891240254  0.3146991249363893  1.0000
  C   C8        1.0  0.9444721461498203  0.2507470020619067  0.17230821022221224  1.0000
  C   C9        1.0  0.8882045804281516  0.1910133405366707  0.19600028626570062  1.0000
  C   C10       1.0  0.558570606046601  0.2756206794327055  0.7217525517066222  1.0000
  C   C11       1.0  0.5045108545452238  0.31072807297750416  0.6966738622124211  1.0000
  C   C12       1.0  0.571009191728905  0.4270834392491595  0.2509857503168433  1.0000
  C   C13       1.0  0.5616379696948643  0.22452184688803814  0.7805904744857912  1.0000
  C   C14       1.0  0.49955241338707174  0.1932023411870318  0.8075826979758034  1.0000
  C   C15       1.0  0.9476616167955073  0.6638646583286912  0.7274332929981713  1.0000
  C   C16       1.0  0.5156703577497127  0.8656992615431988  0.1374735694061613  1.0000
  C   C17       1.0  0.8876716473723293  0.6931651271920317  0.7019820241336205  1.0000
  C   C18       1.0  0.0580304445193533  0.7191971420462477  0.7869020061984597  1.0000
  C   C19       1.0  0.11649318008574752  0.8073832211333709  0.8081520518756592  1.0000
  C   C20       1.0  0.55520912723609  0.7802085598331702  0.7197474254637158  1.0000
  C   C21       1.0  0.5069271794588702  0.6924553688441505  0.7014526922528432  1.0000
  C   C22       1.0  0.5544627214968688  0.8357909251758927  0.7740551159114305  1.0000
  C   C23       1.0  0.5333127486580338  0.3385352790310919  0.24980731701616318  1.0000
  C   C24       1.0  0.48258438444359075  0.8072692261889782  0.789732095659815  1.0000
  C   C25       1.0  0.5560669003427209  0.7780039181072951  0.3315802994775225  1.0000
  C   C26       1.0  0.4922265605664081  0.6896431137844345  0.3038164769402769  1.0000
  C   C27       1.0  0.5523169557665428  0.8306810023111312  0.27451615136353524  1.0000
  C   C28       1.0  0.5059612978766382  0.1414549311576678  0.8675843898587345  1.0000
  C   C29       1.0  0.5226341141028924  0.8068022026392967  0.19067906686529304  1.0000
  C   C30       1.0  0.5023426407093228  0.36156378289634017  0.6358298380284211  1.0000
  C   C31       1.0  0.4992739700947625  0.6376233877483842  0.363664029237512  1.0000
  C   C32       1.0  0.22599887319984907  0.37452926467047126  0.3665692497346029  1.0000
  C   C33       1.0  0.7756210221637829  0.6349359350711338  0.6402998012872345  1.0000
  C   C34       1.0  0.5346967883648831  0.2837506200858328  0.19555461588527837  1.0000
  C   C35       1.0  0.506473965400126  0.6379278426410978  0.6429103176189627  1.0000
  C   C36       1.0  0.497690619572822  0.36093302854639125  0.35889185947698365  1.0000
  C   C37       1.0  0.48849946173694997  0.8653624984064407  0.8499229245376795  1.0000
  C   C38       1.0  0.5014855548204409  0.1400191638543973  0.13898098079030052  1.0000
  C   C39       1.0  0.5738986871637125  0.32074440917782715  0.14576009660343908  1.0000
  C   C40       1.0  0.6098621417079003  0.4062952605130122  0.1491383940650409  1.0000
  C   C41       1.0  0.608328499474368  0.4600435052326617  0.20231133219898112  1.0000
  C   C42       1.0  0.8967947441634082  0.26295705199812863  0.08461005878867663  1.0000
  C   C43       1.0  0.4911460041912932  0.7199634719001508  0.14358860272442792  1.0000
  C   C44       1.0  0.49771020793463805  0.3038426173902025  0.3013266230479417  1.0000
  C   C45       1.0  0.46360500208638916  0.2171670695441037  0.3013940246147513  1.0000
  C   C46       1.0  0.46507103042328163  0.16239223790848453  0.24724043854907038  1.0000
  C   C47       1.0  0.5003215087240847  0.1970028705624642  0.19545265901983555  1.0000
  C   C48       1.0  0.42558793392355915  0.18057180800611417  0.35204778954642535  1.0000
  O   O1        1.0  0.5029219858158102  0.0020456736951927996  0.003366408578365677  1.0000
  O   O2        1.0  0.7314076742646307  0.6745809754879986  0.6178719052068756  1.0000
  O   O3        1.0  0.4505702721466136  0.5550231580244825  0.6264597794342636  1.0000
  O   O4        1.0  0.27129361392199774  0.9447023042300203  0.8820960215966381  1.0000
  O   O5        1.0  0.5614094921721104  0.38420236583333883  0.44143058409253644  1.0000
  O   O6        1.0  0.5598528840952214  0.6764395609873334  0.6134204170684825  1.0000
  O   O7        1.0  0.4342175942839007  0.38098418303270176  0.3204349386749641  1.0000
  O   O8        1.0  0.2677371720489816  0.39080148469792425  0.3254587609785276  1.0000
  O   O9        1.0  0.7325360898747421  0.5519787044862594  0.6147724980146877  1.0000
  O   O10       1.0  0.4400140545569542  0.38307037243047387  0.6134521436477769  1.0000
  O   O11       1.0  0.5629952843229165  0.6781939585192944  0.44645012644362225  1.0000
  O   O12       1.0  0.5517186584193964  0.9438667957955288  0.17651247655056318  1.0000
  O   O13       1.0  0.733773694168029  0.1093706630034674  0.18181262288136674  1.0000
  O   O14       1.0  0.47315221908264266  0.8313925171401665  0.0559886503335392  1.0000
  O   O15       1.0  0.5742767066085719  0.12629002238933398  0.8959739243102334  1.0000
  O   O16       1.0  0.42225860440533586  0.8266347746265981  0.8670618449546127  1.0000
  O   O17       1.0  0.43892071533429095  0.11649574800978969  0.05613098092899793  1.0000
  O   O18       1.0  0.5580610787615543  0.9477506598315985  0.8802778025976679  1.0000
  O   O19       1.0  0.5649074400350358  0.1201204520633112  0.1788551936132804  1.0000
  O   O20       1.0  0.9126616722705734  0.2516043391047588  0.030812853320426877  1.0000
  O   O21       1.0  0.8395776910546007  0.29272520932718754  0.07489955673840853  1.0000
  O   O22       1.0  0.4034858851652602  0.6564227984952353  0.09308798660483565  1.0000
  O   O23       1.0  0.4407834245430991  0.11594050071334289  0.8859085310063435  1.0000
  O   O24       1.0  0.573307858303224  0.7207395604441942  0.16413805168546247  1.0000
  O   O25       1.0  0.27359382064656745  0.8246159020127306  0.9041372074738305  1.0000
  O   O26       1.0  0.7312802104500733  0.109824383792315  0.05783830222409135  1.0000
  O   O27       1.0  0.5011800241282459  0.49933911154221283  0.4994377307855302  1.0000
  O   O28       1.0  0.5607868223882306  0.37963259726474513  0.6109462169883813  1.0000
  O   O29       1.0  0.4392230802687538  0.5543608577681526  0.32499390796828453  1.0000
  O   O30       1.0  0.27123206527070215  0.394526312790653  0.44991415387027445  1.0000
