data_image0
_chemical_formula_structural       K2Ag2H20C28S4N4O14
_chemical_formula_sum              "K2 Ag2 H20 C28 S4 N4 O14"
_cell_length_a       7.39641485339003
_cell_length_b       9.560468622855886
_cell_length_c       13.581597960713017
_cell_angle_alpha    87.4923981369541
_cell_angle_beta     73.92490513823707
_cell_angle_gamma    68.47141321456606

_space_group_name_H-M_alt    "P 1"
_space_group_IT_number       1

loop_
  _space_group_symop_operation_xyz
  'x, y, z'

loop_
  _atom_site_type_symbol
  _atom_site_label
  _atom_site_symmetry_multiplicity
  _atom_site_fract_x
  _atom_site_fract_y
  _atom_site_fract_z
  _atom_site_occupancy
  K   K1        1.0  0.19368755764186563  0.27087673177886984  0.42289368928172166  1.0000
  K   K2        1.0  0.8063170280463365  0.7291243113573531  0.577105740779551  1.0000
  Ag  Ag1       1.0  0.2914122758680547  0.8180236664800518  0.5499988727243448  1.0000
  Ag  Ag2       1.0  0.7085805257723408  0.1819727987037112  0.4500046425571824  1.0000
  H   H1        1.0  0.595508308161996  0.25983608798271973  0.21768113107400916  1.0000
  H   H2        1.0  0.4044954372349208  0.7401638244273344  0.7823184523151313  1.0000
  H   H3        1.0  0.40212587528352367  0.23324878056697426  0.21076851141921787  1.0000
  H   H4        1.0  0.5978775761004014  0.7667545367300337  0.7892295606536096  1.0000
  H   H5        1.0  0.6798995139695451  0.4096488773320175  0.7248218967867288  1.0000
  H   H6        1.0  0.3201061818253308  0.5903499951690421  0.2751715291441812  1.0000
  H   H7        1.0  0.03934173265996308  0.42592088038555437  0.16620355669938652  1.0000
  H   H8        1.0  0.9606788633418188  0.5740791214149041  0.8337905552959342  1.0000
  H   H9        1.0  0.44227947688592895  0.4923181845636863  0.8980370061338405  1.0000
  H   H10       1.0  0.5577192010499344  0.5076806368879547  0.10195968116033066  1.0000
  H   H11       1.0  0.13766171332070323  0.5646891288566566  0.012247877318735305  1.0000
  H   H12       1.0  0.862341437694951  0.4353232039054476  0.9877507570706641  1.0000
  H   H13       1.0  0.972507483244257  0.8390111348310613  0.01202241979692796  1.0000
  H   H14       1.0  0.027486981428609163  0.16099883366647563  0.9879834636708721  1.0000
  H   H15       1.0  0.6941454814479114  0.986070582286196  0.1668975758559695  1.0000
  H   H16       1.0  0.3058532182657885  0.013928145992402101  0.8331057373451359  1.0000
  H   H17       1.0  0.4216120326279622  0.30843128827199706  0.03285514187828647  1.0000
  H   H18       1.0  0.5783877514790418  0.691570962770058  0.9671383511302879  1.0000
  H   H19       1.0  0.6442988181749384  0.036265212721616515  0.9942451974708105  1.0000
  H   H20       1.0  0.3556967702191754  0.9637369435049195  0.0057548168693842315  1.0000
  C   C1        1.0  0.7946080317469536  0.1766324172779221  0.7616499433875603  1.0000
  C   C2        1.0  0.20539262168845318  0.8233708402595853  0.23835223083571583  1.0000
  C   C3        1.0  0.7826162738686833  0.07481827827369611  0.8378359402156264  1.0000
  C   C4        1.0  0.21738662881719484  0.9251805137627405  0.16216306028950103  1.0000
  C   C5        1.0  0.8111013707050103  0.6312971302010126  0.2491107837963469  1.0000
  C   C6        1.0  0.18890154317567454  0.368696030552151  0.7508876154996501  1.0000
  C   C7        1.0  0.672304733961873  0.3282450137534383  0.7827907029897999  1.0000
  C   C8        1.0  0.3276942316316961  0.6717560133893985  0.21720956925356918  1.0000
  C   C9        1.0  0.7137073081120845  0.7870317968951002  0.2500269462872069  1.0000
  C   C10       1.0  0.28628154917672066  0.21296693445275142  0.7499756320969267  1.0000
  C   C11       1.0  0.9640131920686841  0.5471878222939568  0.16517471116352306  1.0000
  C   C12       1.0  0.03599336821507371  0.45281207740767143  0.8348259235583342  1.0000
  C   C13       1.0  0.5377591108241475  0.3735290889204208  0.8810900676974143  1.0000
  C   C14       1.0  0.46224658981024896  0.6264697628755159  0.11890483065725725  1.0000
  C   C15       1.0  0.9492698775189436  0.10198831736165913  0.6635689279506494  1.0000
  C   C16       1.0  0.0507245862499345  0.898016071615409  0.3364326732486306  1.0000
  C   C17       1.0  0.01828722286503377  0.6261891378943859  0.07986756033297131  1.0000
  C   C18       1.0  0.9817128352851153  0.37382096047470986  0.9201293826220506  1.0000
  C   C19       1.0  0.9227615666103189  0.7823374483943581  0.07949607941367988  1.0000
  C   C20       1.0  0.07723150665346168  0.2176668744689962  0.9205101496024  1.0000
  C   C21       1.0  0.7683379443822457  0.8643001167168124  0.16488738214646756  1.0000
  C   C22       1.0  0.23165204479107612  0.13569635082281917  0.8351158180142235  1.0000
  C   C23       1.0  0.5546970350990177  0.8513693479886869  0.3482342916673815  1.0000
  C   C24       1.0  0.44530168306877016  0.14862371794895074  0.6517706289602359  1.0000
  C   C25       1.0  0.5264538166003587  0.27023253940276964  0.95653036390393  1.0000
  C   C26       1.0  0.4735487920725274  0.7297696575206203  0.043467125284884375  1.0000
  C   C27       1.0  0.6509891361185112  0.11740077035100428  0.9358175421700778  1.0000
  C   C28       1.0  0.34901489361236315  0.8825957785823351  0.0641806076878524  1.0000
  S   S1        1.0  0.7032952254023072  0.5726654266421393  0.3698295741655429  1.0000
  S   S2        1.0  0.29670824201594564  0.42733223866647313  0.6301693691219227  1.0000
  S   S3        1.0  0.9590914244532768  0.8949729992744154  0.7842129637472722  1.0000
  S   S4        1.0  0.04091006352990689  0.10502583017392202  0.2157833024558542  1.0000
  N   N1        1.0  0.04453792688526181  0.949475466354272  0.6713342836809844  1.0000
  N   N2        1.0  0.9554618853548718  0.05052108093659059  0.3286637616016391  1.0000
  N   N3        1.0  0.5399485075964207  0.7424827335355957  0.4162722150570559  1.0000
  N   N4        1.0  0.46005020331207885  0.25751036345972983  0.5837304969349191  1.0000
  O   O1        1.0  0.6032980530686488  0.4711668079073022  0.3595349354742581  1.0000
  O   O2        1.0  0.39670513637094  0.5288286102998685  0.6404633677115399  1.0000
  O   O3        1.0  0.11663099254002408  0.835043720677355  0.8366497422443402  1.0000
  O   O4        1.0  0.8833648801880328  0.16495507207247334  0.1633488385646444  1.0000
  O   O5        1.0  0.8536062469298212  0.7944387749158964  0.7780414052868494  1.0000
  O   O6        1.0  0.1463980462611544  0.20556008323425354  0.2219529674014638  1.0000
  O   O7        1.0  0.8521112918278178  0.5181182180561309  0.42805528619203415  1.0000
  O   O8        1.0  0.14788880807002153  0.481880534925928  0.5719463440397804  1.0000
  O   O9        1.0  0.9890248032036338  0.16843367406696075  0.5849672225065774  1.0000
  O   O10       1.0  0.0109693617127389  0.8315741405021769  0.41503139495262076  1.0000
  O   O11       1.0  0.44643914414236  0.987098948257042  0.3663670697684012  1.0000
  O   O12       1.0  0.5535511254293795  0.012899756031473003  0.6336375067058454  1.0000
  O   O13       1.0  0.4478468913667155  0.30713883625365673  0.232792522432689  1.0000
  O   O14       1.0  0.5521554465867807  0.6928610825106105  0.7672065352900929  1.0000
