data_image0
_chemical_formula_structural       ZnH26C22N4O8
_chemical_formula_sum              "Zn1 H26 C22 N4 O8"
_cell_length_a       5.266325976307863
_cell_length_b       7.6772451466059195
_cell_length_c       14.022937191165514
_cell_angle_alpha    99.1408575748515
_cell_angle_beta     100.76090285872986
_cell_angle_gamma    89.9828702987518

_space_group_name_H-M_alt    "P 1"
_space_group_IT_number       1

loop_
  _space_group_symop_operation_xyz
  'x, y, z'

loop_
  _atom_site_type_symbol
  _atom_site_label
  _atom_site_symmetry_multiplicity
  _atom_site_fract_x
  _atom_site_fract_y
  _atom_site_fract_z
  _atom_site_occupancy
  Zn  Zn1       1.0  0.7324561719987841  0.5001587938773823  0.9999083814551211  1.0000
  H   H1        1.0  0.40085180121360514  0.7825786911822376  0.2940380590472315  1.0000
  H   H2        1.0  0.10739374030413273  0.2172100951603254  0.7062340603105639  1.0000
  H   H3        1.0  0.28056818031527087  0.4223981259512825  0.8973338590038081  1.0000
  H   H4        1.0  0.38340590107745953  0.577984604560825  0.102915758771168  1.0000
  H   H5        1.0  0.49130321231334056  0.3433635323018222  0.8306542716384937  1.0000
  H   H6        1.0  0.6607039527815176  0.6569679264215933  0.16933838956122568  1.0000
  H   H7        1.0  0.2877670771274268  0.8459143712748157  0.8526948920646119  1.0000
  H   H8        1.0  0.43341093587525853  0.15427095593074108  0.14731695634744568  1.0000
  H   H9        1.0  0.37175240495072615  0.17694085889978342  0.9918482226284266  1.0000
  H   H10       1.0  0.37998363725782275  0.8235554138300784  0.008349694415159089  1.0000
  H   H11       1.0  0.5511304169679576  0.08743198041214839  0.9008871708926093  1.0000
  H   H12       1.0  0.6497305475669036  0.9130249800114496  0.09932197397700544  1.0000
  H   H13       1.0  0.7366185829086122  0.8998605113552002  0.768491963866495  1.0000
  H   H14       1.0  0.9662443891522442  0.10050438188535078  0.2316600787420312  1.0000
  H   H15       1.0  0.4646078651979196  0.576318615193209  0.586640899964088  1.0000
  H   H16       1.0  0.8766648895238448  0.42349536435280294  0.4138209007674831  1.0000
  H   H17       1.0  0.13631426083611595  0.6392766442508063  0.7179475012986387  1.0000
  H   H18       1.0  0.41589420855652287  0.36122770806810667  0.28165261598501695  1.0000
  H   H19       1.0  0.8287624043724336  0.5441923068323999  0.7122688396815278  1.0000
  H   H20       1.0  0.11389760348733093  0.45600370110356175  0.287873469921287  1.0000
  H   H21       1.0  0.30981937400891724  0.6393537906543186  0.4196014714177635  1.0000
  H   H22       1.0  0.8896676967741329  0.3599650256548088  0.5808503460291944  1.0000
  H   H23       1.0  0.02473403452825101  0.919700904782907  0.4306225896256136  1.0000
  H   H24       1.0  0.5935782521545862  0.07981566543575978  0.5686872572925735  1.0000
  H   H25       1.0  0.1788960096218801  0.8606726534709992  0.6003898872799168  1.0000
  H   H26       1.0  0.57702324164201  0.1389941463896918  0.39883872945870275  1.0000
  C   C1        1.0  0.7852572320717212  0.7137938963893827  0.8686330365881927  1.0000
  C   C2        1.0  0.9150072079792224  0.28630874816091273  0.13134693383621956  1.0000
  C   C3        1.0  0.1330948350771664  0.09179097717260017  0.8529949136627549  1.0000
  C   C4        1.0  0.2793252576056915  0.9083674785712502  0.14723291027515728  1.0000
  C   C5        1.0  0.8342131532407889  0.713873316421555  0.6065769477333873  1.0000
  C   C6        1.0  0.2261997477912843  0.2860140773675255  0.39329922845614357  1.0000
  C   C7        1.0  0.38867687373323895  0.1711193724371682  0.914561267997726  1.0000
  C   C8        1.0  0.4738277551757193  0.8292621759828123  0.0856192598020584  1.0000
  C   C9        1.0  0.8859601873513084  0.8097888225984631  0.794550502754326  1.0000
  C   C10       1.0  0.08957018862337661  0.19040010173581823  0.20547386800308223  1.0000
  C   C11       1.0  0.6605884895062174  0.7790221913660104  0.4134576819323712  1.0000
  C   C12       1.0  0.246641676797573  0.22042628673998615  0.5864356086264448  1.0000
  C   C13       1.0  0.5891004191146506  0.6537322549144945  0.5539693499540022  1.0000
  C   C14       1.0  0.033933270107496596  0.34595753139320334  0.4462400715511521  1.0000
  C   C15       1.0  0.9290026763420228  0.6670692039615318  0.7071634081021755  1.0000
  C   C16       1.0  0.2196982001969303  0.3331766555377981  0.29272907024684963  1.0000
  C   C17       1.0  0.5017856154278205  0.6863310730719119  0.4586442535732542  1.0000
  C   C18       1.0  0.04234471970149661  0.3131120375557471  0.5415421798273953  1.0000
  C   C19       1.0  0.9036490976566681  0.8439445803887506  0.4653723949632961  1.0000
  C   C20       1.0  0.4373962366132531  0.15553396351609192  0.5341470324204849  1.0000
  C   C21       1.0  0.9878197292759127  0.8113167397016099  0.5611190393782975  1.0000
  C   C22       1.0  0.4254423987875882  0.1883314193811927  0.438404876381547  1.0000
  N   N1        1.0  0.44612884926316815  0.3507288987905142  0.8991716691918722  1.0000
  N   N2        1.0  0.5469344364878667  0.6496452915047752  0.10089824749469757  1.0000
  N   N3        1.0  0.11947017484691  0.9145409677659443  0.8383908566414957  1.0000
  N   N4        1.0  0.2795240288781926  0.08559658555969919  0.1616556850610493  1.0000
  O   O1        1.0  0.9477396753145655  0.6382027366112479  0.9284923247465783  1.0000
  O   O2        1.0  0.018035293764391707  0.3618940255672173  0.07152750396414118  1.0000
  O   O3        1.0  0.5442566322663892  0.703258404045023  0.863820933128636  1.0000
  O   O4        1.0  0.6787649428431878  0.29676419625722866  0.13608620675019267  1.0000
  O   O5        1.0  0.9527885757889081  0.1882228551789282  0.8234208613393007  1.0000
  O   O6        1.0  0.1289340285779801  0.8118206531427176  0.17690012227095045  1.0000
  O   O7        1.0  0.5866539108026528  0.8089280523287242  0.31844549753218127  1.0000
  O   O8        1.0  0.26840142327615263  0.1905700056474657  0.6814915039186358  1.0000
