data_image0
_chemical_formula_structural       CuH28C20S4N4O4
_chemical_formula_sum              "Cu1 H28 C20 S4 N4 O4"
_cell_length_a       7.359173172089799
_cell_length_b       10.421810258418004
_cell_length_c       10.73838358206829
_cell_angle_alpha    96.182107101694
_cell_angle_beta     92.37519615945749
_cell_angle_gamma    104.37222735577373

_space_group_name_H-M_alt    "P 1"
_space_group_IT_number       1

loop_
  _space_group_symop_operation_xyz
  'x, y, z'

loop_
  _atom_site_type_symbol
  _atom_site_label
  _atom_site_symmetry_multiplicity
  _atom_site_fract_x
  _atom_site_fract_y
  _atom_site_fract_z
  _atom_site_occupancy
  Cu  Cu1       1.0  0.5000035361955355  0.5000116657074827  0.500002311213464  1.0000
  H   H1        1.0  0.7139951342660567  0.3599582816218003  0.9733075982413265  1.0000
  H   H2        1.0  0.28600533068046735  0.640025048069255  0.026698973167484007  1.0000
  H   H3        1.0  0.5578841344620358  0.4618796111992367  0.7691196033081411  1.0000
  H   H4        1.0  0.4421239209183554  0.5381317084313366  0.23088371507109426  1.0000
  H   H5        1.0  0.3580671998938668  0.4246600702294855  0.9514497768069529  1.0000
  H   H6        1.0  0.6419319224662345  0.5753273207678404  0.048546036967330494  1.0000
  H   H7        1.0  0.8945574673415067  0.471305562008105  0.7142270675249164  1.0000
  H   H8        1.0  0.10543689983538236  0.5286798351275623  0.2857740043531294  1.0000
  H   H9        1.0  0.11716229729610467  0.5090497220144529  0.5447475005556867  1.0000
  H   H10       1.0  0.8828385077825444  0.49095663201565304  0.4552578965090958  1.0000
  H   H11       1.0  0.915443713316705  0.2978676745301598  0.10427234470193981  1.0000
  H   H12       1.0  0.08456508183650165  0.7021126226507022  0.8957284956661123  1.0000
  H   H13       1.0  0.1583075499707647  0.3543518015271019  0.08870641574046799  1.0000
  H   H14       1.0  0.8417056300750616  0.6456294915993368  0.9112890477937228  1.0000
  H   H15       1.0  0.016113345883589092  0.23041464737438128  0.9728431345177027  1.0000
  H   H16       1.0  0.9838868840090954  0.7695647327007223  0.02715181995090894  1.0000
  H   H17       1.0  0.42928052839509684  0.191435090551515  0.7384507956026595  1.0000
  H   H18       1.0  0.5707178876898594  0.8085723011430019  0.2615500047528982  1.0000
  H   H19       1.0  0.3470349686669323  0.0330618517270338  0.6402680259293234  1.0000
  H   H20       1.0  0.652962697627629  0.9669435484058511  0.35973160594952697  1.0000
  H   H21       1.0  0.2752819587507389  0.1762480755936195  0.5991081028219581  1.0000
  H   H22       1.0  0.7247161330897  0.8237582968322242  0.4008972338860771  1.0000
  H   H23       1.0  0.8814791157938441  0.14089966492341688  0.5938830859872724  1.0000
  H   H24       1.0  0.1185065866760838  0.8591028150441887  0.40611594827426956  1.0000
  H   H25       1.0  0.6950809415156127  0.0169094306831923  0.6455548571986043  1.0000
  H   H26       1.0  0.30489777964180587  0.9830891285757274  0.35443613329692875  1.0000
  H   H27       1.0  0.7709088321181028  0.18107310700809626  0.7357112021937481  1.0000
  H   H28       1.0  0.22908489473241656  0.8189253126395999  0.2642884994125438  1.0000
  C   C1        1.0  0.4107247248445489  0.46463650889826624  0.7626290266493425  1.0000
  C   C2        1.0  0.5892773908071334  0.5353698572865682  0.23737174551124696  1.0000
  C   C3        1.0  0.2981195853234482  0.444655333310827  0.8633949807187518  1.0000
  C   C4        1.0  0.7018769851785649  0.5553360598623344  0.1366049415068602  1.0000
  C   C5        1.0  0.10833345031102945  0.4466108108998201  0.8494071261303018  1.0000
  C   C6        1.0  0.8916751359317061  0.553372472145064  0.1505977643157337  1.0000
  C   C7        1.0  0.040507021280475945  0.4703062362435304  0.7327558945895445  1.0000
  C   C8        1.0  0.9594850353999076  0.5296842207713155  0.26723637023872726  1.0000
  C   C9        1.0  0.16158687670294117  0.4890822221036403  0.6367546468352641  1.0000
  C   C10       1.0  0.838415873405097  0.5109221305101316  0.3632477800765272  1.0000
  C   C11       1.0  0.9832812869239758  0.42866659551651776  0.9580863238022983  1.0000
  C   C12       1.0  0.01672074355212773  0.5713137391126466  0.0419162277069063  1.0000
  C   C13       1.0  0.02124015982280273  0.3219394400087126  0.0353607561980027  1.0000
  C   C14       1.0  0.9787625792210902  0.6780469639135944  0.9646266502326738  1.0000
  C   C15       1.0  0.17216750592528737  0.27185638222910313  0.3715672671575802  1.0000
  C   C16       1.0  0.8278455537248418  0.7281649329874824  0.6284316826019419  1.0000
  C   C17       1.0  0.38949456797193704  0.141985092001967  0.6423058827166128  1.0000
  C   C18       1.0  0.6104996938884922  0.8580293140123557  0.3576993219238246  1.0000
  C   C19       1.0  0.7504606115398716  0.12425709783447304  0.6418133541333686  1.0000
  C   C20       1.0  0.24953650800473073  0.8757543338137168  0.35818134367023896  1.0000
  S   S1        1.0  0.999739193883066  0.1414730495222756  0.3332867583879987  1.0000
  S   S2        1.0  0.0002826859841250638  0.8585461755834417  0.6667186822755511  1.0000
  S   S3        1.0  0.588420851404365  0.1846122699229298  0.5479406652647966  1.0000
  S   S4        1.0  0.4115732398667263  0.8153981565818145  0.45205943955104283  1.0000
  N   N1        1.0  0.3420045873131129  0.4850559082982286  0.6508394394169341  1.0000
  N   N2        1.0  0.6579916287859147  0.514956492029242  0.34916372608702767  1.0000
  N   N3        1.0  0.2981840175862729  0.3692088765541683  0.39717186949304306  1.0000
  N   N4        1.0  0.701833828213914  0.6308254243829694  0.6028258307082196  1.0000
  O   O1        1.0  0.7918378960238355  0.38811157238173166  0.9049601815929478  1.0000
  O   O2        1.0  0.2081537822032971  0.6118628256676644  0.09504240748192669  1.0000
  O   O3        1.0  0.6586884417300354  0.33500102602813087  0.5670891008552345  1.0000
  O   O4        1.0  0.3413035799684111  0.6650074010307706  0.432913529371575  1.0000
