data_image0
_chemical_formula_structural       CdB2H16C22N4O2F8
_chemical_formula_sum              "Cd1 B2 H16 C22 N4 O2 F8"
_cell_length_a       8.56612574228957
_cell_length_b       9.167048221502524
_cell_length_c       9.67546789496809
_cell_angle_alpha    60.9126014475313
_cell_angle_beta     68.43648242484537
_cell_angle_gamma    68.91713742371316

_space_group_name_H-M_alt    "P 1"
_space_group_IT_number       1

loop_
  _space_group_symop_operation_xyz
  'x, y, z'

loop_
  _atom_site_type_symbol
  _atom_site_label
  _atom_site_symmetry_multiplicity
  _atom_site_fract_x
  _atom_site_fract_y
  _atom_site_fract_z
  _atom_site_occupancy
  Cd  Cd1       1.0  0.49999870088418424  0.5000012443079739  2.273282432311626e-07  1.0000
  B   B1        1.0  0.8070700048125374  0.1741940225015242  0.20070546576530998  1.0000
  B   B2        1.0  0.19292723883256716  0.8258076360275125  0.7992936480534285  1.0000
  H   H1        1.0  0.43731003549098807  0.3998140006188675  0.38425481065591793  1.0000
  H   H2        1.0  0.5626912570629444  0.6001864315058468  0.6157424954446995  1.0000
  H   H3        1.0  0.9775495528372319  0.20347913467129078  0.6477099709236572  1.0000
  H   H4        1.0  0.022452058378334493  0.7965200045981432  0.35228988889117835  1.0000
  H   H5        1.0  0.9778381205834707  0.19189251741391894  0.3914957924256868  1.0000
  H   H6        1.0  0.02216128986349733  0.8081053096866808  0.6085053937653343  1.0000
  H   H7        1.0  0.20394510341660782  0.29928701977910066  0.14197997990701344  1.0000
  H   H8        1.0  0.7960524425907423  0.7007133583881994  0.8580196201461453  1.0000
  H   H9        1.0  0.2457917483001283  0.45631282244660537  0.8487398800305571  1.0000
  H   H10       1.0  0.7542101652776836  0.5436850364610918  0.1512604660186981  1.0000
  H   H11       1.0  0.5178061489195116  0.09599424040895599  0.627317862523789  1.0000
  H   H12       1.0  0.4821957565086097  0.9040036247455059  0.3726814497855745  1.0000
  H   H13       1.0  0.7650684366274731  0.029188457353349396  0.7455945385138637  1.0000
  H   H14       1.0  0.23493162881011645  0.970811940127511  0.2544062888773342  1.0000
  H   H15       1.0  0.7386973050090262  0.18098864829466518  0.9102182875093806  1.0000
  H   H16       1.0  0.26130402014366894  0.8190117588429684  0.08978315355083318  1.0000
  C   C1        1.0  0.33205578429056004  0.35480587718148365  0.39087235492077355  1.0000
  C   C2        1.0  0.6679442566979504  0.6451945390396785  0.6091253712507201  1.0000
  C   C3        1.0  0.20711748434759877  0.3017616743868388  0.5351309360018349  1.0000
  C   C4        1.0  0.7928813213748714  0.6982387134372415  0.4648692777203395  1.0000
  C   C5        1.0  0.07553028502928781  0.24472152288036844  0.5358103298181691  1.0000
  C   C6        1.0  0.9244700746208497  0.7552776004855202  0.4641899500675494  1.0000
  C   C7        1.0  0.07588808581078148  0.23821355367641667  0.39554723707669137  1.0000
  C   C8        1.0  0.9241138277670302  0.7617843052312805  0.6044531089725641  1.0000
  C   C9        1.0  0.20304920830514558  0.2975579681534342  0.2556286332943359  1.0000
  C   C10       1.0  0.7969495892676264  0.7024424259174181  0.7443705466879394  1.0000
  C   C11       1.0  0.19959893594955255  0.3154946367806132  0.6849203502382225  1.0000
  C   C12       1.0  0.8004033302566356  0.6845070728690743  0.3150791507767823  1.0000
  C   C13       1.0  0.3587274569503123  0.3602652114797848  0.8245212188263982  1.0000
  C   C14       1.0  0.6412726003375866  0.6397351922478407  0.1754785748249006  1.0000
  C   C15       1.0  0.36131954847074615  0.2796929524038275  0.7321359213342549  1.0000
  C   C16       1.0  0.6386802064549004  0.7203087316855343  0.2678633860826166  1.0000
  C   C17       1.0  0.5107361928587223  0.16110359237437413  0.6988991874322257  1.0000
  C   C18       1.0  0.48926514044367037  0.8388968085164875  0.30110328736788744  1.0000
  C   C19       1.0  0.6479660050912273  0.12370548370842728  0.764076232888428  1.0000
  C   C20       1.0  0.35203309484379736  0.8762936300006811  0.2359234333282674  1.0000
  C   C21       1.0  0.63451372726459  0.20806450342278984  0.8561823118221246  1.0000
  C   C22       1.0  0.36548507845787986  0.7919358844012903  0.14381790190005717  1.0000
  N   N1        1.0  0.3279335927115099  0.35644828521334665  0.2523350301361518  1.0000
  N   N2        1.0  0.6720642475083949  0.6435508188389888  0.7476640224115346  1.0000
  N   N3        1.0  0.4927050073764363  0.3269710948814363  0.8838912889147755  1.0000
  N   N4        1.0  0.5072950499114556  0.6730293088461891  0.1161085047365233  1.0000
  O   O1        1.0  0.05879032623141002  0.3563398218618018  0.7699154040743326  1.0000
  O   O2        1.0  0.9412107223760913  0.643667015481604  0.2300811182630938  1.0000
  F   F1        1.0  0.77082615186346  0.3401575697665321  0.0685234557573794  1.0000
  F   F2        1.0  0.22917265385900987  0.659842818057548  0.9314767579647951  1.0000
  F   F3        1.0  0.7275506879672305  0.06460558353293067  0.2001429443542549  1.0000
  F   F4        1.0  0.27244655567787396  0.9353960749961061  0.7998561694644836  1.0000
  F   F5        1.0  0.9864641085853376  0.11337408604838117  0.1756632057571752  1.0000
  F   F6        1.0  0.013533739784257589  0.8866250117571823  0.8243368805304032  1.0000
  F   F7        1.0  0.7374728145966429  0.19670776783507896  0.34818466813815974  1.0000
  F   F8        1.0  0.2625256724641929  0.8032939128442818  0.6518129918697969  1.0000
