data_image0
_chemical_formula_structural       Li4H24C16O8
_chemical_formula_sum              "Li4 H24 C16 O8"
_cell_length_a       4.820377208020323
_cell_length_b       9.21456193552479
_cell_length_c       10.525032929133099
_cell_angle_alpha    115.76807911050204
_cell_angle_beta     89.99974468112504
_cell_angle_gamma    90.00033383071533

_space_group_name_H-M_alt    "P 1"
_space_group_IT_number       1

loop_
  _space_group_symop_operation_xyz
  'x, y, z'

loop_
  _atom_site_type_symbol
  _atom_site_label
  _atom_site_symmetry_multiplicity
  _atom_site_fract_x
  _atom_site_fract_y
  _atom_site_fract_z
  _atom_site_occupancy
  Li  Li1       1.0  0.9139473333825592  0.14152721413707778  0.9953152991747058  1.0000
  Li  Li2       1.0  0.41393449676176164  0.35846676625386203  0.004679491886996285  1.0000
  Li  Li3       1.0  0.0860586368890566  0.8584704894774899  0.004683474965481974  1.0000
  Li  Li4       1.0  0.5860507282538022  0.6415296796187987  0.9953159674033429  1.0000
  H   H1        1.0  0.5900097275290577  0.2633646976315021  0.35466877985507483  1.0000
  H   H2        1.0  0.0900161641739388  0.23664304475202866  0.6453317459890043  1.0000
  H   H3        1.0  0.40999416819798984  0.7366330763520637  0.6453338211279274  1.0000
  H   H4        1.0  0.9099669863870757  0.7633690477604133  0.35466853810096666  1.0000
  H   H5        1.0  0.7866557230487387  0.0998881462251902  0.24024945522312888  1.0000
  H   H6        1.0  0.286648519677989  0.4001055953441153  0.7597474056570306  1.0000
  H   H7        1.0  0.21335439622721  0.9001036206521887  0.7597518788092259  1.0000
  H   H8        1.0  0.7133387798381106  0.5998848258250788  0.24024582997482458  1.0000
  H   H9        1.0  0.43907366916312185  0.9062602761152405  0.2523304297709786  1.0000
  H   H10       1.0  0.9390945484875955  0.5937466952256685  0.7476717592038682  1.0000
  H   H11       1.0  0.5609240029845849  0.0937374978616319  0.7476721712158465  1.0000
  H   H12       1.0  0.060917645463753396  0.40626899454863963  0.2523289023521968  1.0000
  H   H13       1.0  0.2095611375296045  0.0649480544205616  0.3498474399112865  1.0000
  H   H14       1.0  0.7095642997425882  0.4350612558088899  0.650159124037657  1.0000
  H   H15       1.0  0.7904448327510989  0.9350581893388465  0.6501601876112986  1.0000
  H   H16       1.0  0.2904312980185324  0.5649519009156021  0.34983395109303217  1.0000
  H   H17       1.0  0.566196873188936  0.178219646760553  0.5446983242571122  1.0000
  H   H18       1.0  0.0661812950494252  0.3217784048096064  0.45529867300742666  1.0000
  H   H19       1.0  0.4338256932567077  0.8217757525464577  0.45530530067230757  1.0000
  H   H20       1.0  0.9338205262301572  0.678222737695805  0.5446918682257903  1.0000
  H   H21       1.0  0.789124978581789  0.0170758416561867  0.4467567831681407  1.0000
  H   H22       1.0  0.28912908429873596  0.4829226018555985  0.5532351566242184  1.0000
  H   H23       1.0  0.21088514073431242  0.9829231196824111  0.5532453058320925  1.0000
  H   H24       1.0  0.7108768860091316  0.5170749610164762  0.4467559638328992  1.0000
  C   C1        1.0  0.431657302892468  0.1534337978660361  0.1489012350585881  1.0000
  C   C2        1.0  0.9316615881074239  0.34657087161590266  0.8510870130013899  1.0000
  C   C3        1.0  0.5683424438451183  0.8465637298137236  0.8510879719815775  1.0000
  C   C4        1.0  0.06833608424488351  0.653444483879376  0.1488954710662966  1.0000
  C   C5        1.0  0.5712660237610052  0.13871282420399214  0.2717878952808944  1.0000
  C   C6        1.0  0.0712503551748043  0.3612915444688056  0.7282266267786781  1.0000
  C   C7        1.0  0.42875031909753136  0.8612850553498389  0.728220445956765  1.0000
  C   C8        1.0  0.928734869821362  0.6387111020376608  0.2717806232727115  1.0000
  C   C9        1.0  0.43080928193977286  0.03313890065435741  0.3307445012604404  1.0000
  C   C10       1.0  0.9308147209106251  0.4668708330672402  0.6692589207119255  1.0000
  C   C11       1.0  0.569194613816414  0.9668624353741962  0.66925656378573  1.0000
  C   C12       1.0  0.0691871003922913  0.5331400193385321  0.3307390052143687  1.0000
  C   C13       1.0  0.5681506740632044  0.05051113217101739  0.46740727837824636  1.0000
  C   C14       1.0  0.06814834916551858  0.4494905736282818  0.5325929640926433  1.0000
  C   C15       1.0  0.43185944525354364  0.9494890517015336  0.5325962120638154  1.0000
  C   C16       1.0  0.931851397560429  0.5505106744317627  0.46740331740415525  1.0000
  O   O1        1.0  0.5626768459271146  0.23302060470469851  0.0940124300474139  1.0000
  O   O2        1.0  0.06267697567923848  0.26697286583979724  0.9059961865520947  1.0000
  O   O3        1.0  0.43731875173690327  0.7669892538669603  0.9059965316758748  1.0000
  O   O4        1.0  0.9372999511036466  0.733015497292165  0.09401529383093529  1.0000
  O   O5        1.0  0.19310525779285828  0.09160471759258118  0.1072248884058808  1.0000
  O   O6        1.0  0.6930621778082654  0.4084009423400516  0.8927803615962233  1.0000
  O   O7        1.0  0.8069380539548233  0.9084015613926368  0.8927846525145355  1.0000
  O   O8        1.0  0.30687533319293436  0.5916098396252636  0.10721373752803491  1.0000
