data_image0
_chemical_formula_structural       Zn4H32C16O28
_chemical_formula_sum              "Zn4 H32 C16 O28"
_cell_length_a       7.471455104400975
_cell_length_b       9.550533891520768
_cell_length_c       10.79788468605424
_cell_angle_alpha    90.42073268691874
_cell_angle_beta     90.00116542946495
_cell_angle_gamma    90.00022334773698

_space_group_name_H-M_alt    "P 1"
_space_group_IT_number       1

loop_
  _space_group_symop_operation_xyz
  'x, y, z'

loop_
  _atom_site_type_symbol
  _atom_site_label
  _atom_site_symmetry_multiplicity
  _atom_site_fract_x
  _atom_site_fract_y
  _atom_site_fract_z
  _atom_site_occupancy
  Zn  Zn1       1.0  0.8352290959554619  0.7210494253586434  0.5736204265545479  1.0000
  Zn  Zn2       1.0  0.33523811681810395  0.7789394224856635  0.9263900742461854  1.0000
  Zn  Zn3       1.0  0.16476872456058084  0.27895070269508443  0.426380311042976  1.0000
  Zn  Zn4       1.0  0.6647543500207291  0.22105326618949306  0.07361414415240117  1.0000
  H   H1        1.0  0.7352649781549727  0.6012275655019437  0.25366468715497337  1.0000
  H   H2        1.0  0.23525459106664925  0.8987687342415144  0.2463267822049103  1.0000
  H   H3        1.0  0.2647448880210063  0.3987603110530173  0.746325489261238  1.0000
  H   H4        1.0  0.764735198937238  0.10122601976119232  0.7536784250596609  1.0000
  H   H5        1.0  0.40615729203332757  0.5458482250768099  0.4152621074933548  1.0000
  H   H6        1.0  0.9061631664467878  0.9541648681923719  0.08471373301788528  1.0000
  H   H7        1.0  0.5938525743238401  0.4541592861767469  0.5847370005331098  1.0000
  H   H8        1.0  0.09383599245914097  0.0458363908602735  0.9152842594614864  1.0000
  H   H9        1.0  0.3938818314562553  0.6109655394253649  0.26241697713682294  1.0000
  H   H10       1.0  0.8938677773862904  0.8890422259217844  0.23756038320112075  1.0000
  H   H11       1.0  0.6061293732762107  0.3890336543142752  0.7375800265425807  1.0000
  H   H12       1.0  0.10611933576598177  0.11096726634445282  0.7624424903241545  1.0000
  H   H13       1.0  0.954945100112084  0.5027732938145776  0.7274183822981254  1.0000
  H   H14       1.0  0.45493598506633487  0.9972194312926489  0.7725818676294831  1.0000
  H   H15       1.0  0.045059412567873394  0.4972267780604085  0.2725842065294087  1.0000
  H   H16       1.0  0.5450618354288819  0.0027828463764904996  0.22741708207858832  1.0000
  H   H17       1.0  0.05256184370449548  0.6584147916100492  0.7370603499711235  1.0000
  H   H18       1.0  0.5525523097189974  0.8415785520801936  0.7629416977104879  1.0000
  H   H19       1.0  0.9474533762226186  0.3415824772769369  0.2629310368945851  1.0000
  H   H20       1.0  0.44744283399228374  0.15842463182509905  0.2370619115825788  1.0000
  H   H21       1.0  0.08141330439112687  0.7321632596802344  0.3819388924017274  1.0000
  H   H22       1.0  0.5814339351123436  0.7678499067499871  0.11806575660048675  1.0000
  H   H23       1.0  0.9185778240380456  0.2678399242188192  0.6180647168630455  1.0000
  H   H24       1.0  0.4185612086478796  0.2321605479581663  0.8819399254023704  1.0000
  H   H25       1.0  0.11940758091852635  0.8589606273565522  0.4741154161183444  1.0000
  H   H26       1.0  0.6194154882731339  0.6410451615315226  0.025895100220168395  1.0000
  H   H27       1.0  0.8805955932851287  0.1410458652680404  0.5258827346228327  1.0000
  H   H28       1.0  0.38059303967852975  0.3589696767119506  0.9741042293237921  1.0000
  H   H29       1.0  0.8493785830205237  0.49685074233426  0.4053087210038198  1.0000
  H   H30       1.0  0.3493777883737295  0.0031422862552262015  0.09468798764196146  1.0000
  H   H31       1.0  0.1506312832554144  0.5031432459321578  0.5946871988411997  1.0000
  H   H32       1.0  0.6506146784505301  0.9968546454616247  0.9053145061605858  1.0000
  C   C1        1.0  0.6584445671274962  0.6200900300846898  0.33915201251841137  1.0000
  C   C2        1.0  0.15844495485471546  0.8799040499691343  0.16083460872735594  1.0000
  C   C3        1.0  0.34155994535774425  0.3799041267408043  0.6608383537403096  1.0000
  C   C4        1.0  0.8415461735609209  0.12008547046994517  0.8391704403131256  1.0000
  C   C5        1.0  0.6402238113147618  0.7790245017369699  0.3521200377110388  1.0000
  C   C6        1.0  0.1402163184182967  0.7209709970439206  0.14788675302247603  1.0000
  C   C7        1.0  0.3597847165827517  0.2209767573302273  0.6478779548343351  1.0000
  C   C8        1.0  0.859773471635563  0.27902681281451436  0.8521213259565028  1.0000
  C   C9        1.0  0.47605402379625855  0.5493726517686994  0.3262816767784215  1.0000
  C   C10       1.0  0.9760558044610402  0.9506311258461155  0.17369856621377974  1.0000
  C   C11       1.0  0.5239504888097739  0.4506254671528396  0.6737162207985532  1.0000
  C   C12       1.0  0.02394335445529799  0.049369058398816903  0.8263003202103075  1.0000
  C   C13       1.0  0.49121986208598395  0.4051231053512581  0.268176729665825  1.0000
  C   C14       1.0  0.9912228822107776  0.09488657030249209  0.2318057918477406  1.0000
  C   C15       1.0  0.5087819737527679  0.5948769384250101  0.7318267847342808  1.0000
  C   C16       1.0  0.008782968823673798  0.9051210252285317  0.7681905393761423  1.0000
  O   O1        1.0  0.7573664120239413  0.5631826980421762  0.4411462748434827  1.0000
  O   O2        1.0  0.257369443760382  0.9368084368190566  0.05884534782440908  1.0000
  O   O3        1.0  0.24264746952265873  0.43681657998531886  0.5588479520804908  1.0000
  O   O4        1.0  0.7426256998894655  0.0631832894308104  0.941156062172048  1.0000
  O   O5        1.0  0.6986102475930378  0.8416335021486391  0.4472494703843849  1.0000
  O   O6        1.0  0.19864113086808285  0.6583536358087656  0.05276344375916148  1.0000
  O   O7        1.0  0.30137820395640347  0.1583613080411226  0.5527538856878917  1.0000
  O   O8        1.0  0.801341967035398  0.34164420213384267  0.9472437095812293  1.0000
  O   O9        1.0  0.5683503957497675  0.8396414163576581  0.2597304345211242  1.0000
  O   O10       1.0  0.0683131890036819  0.6603677473040862  0.24026649867660407  1.0000
  O   O11       1.0  0.43167151631731554  0.16035689925286786  0.7402609840384355  1.0000
  O   O12       1.0  0.9316766010501848  0.33963006255435596  0.7597415803023677  1.0000
  O   O13       1.0  0.39523754850225845  0.3038926427575817  0.30800407220080916  1.0000
  O   O14       1.0  0.8952425887742447  0.19611458509515242  0.19197888466157303  1.0000
  O   O15       1.0  0.6047642873937631  0.696108335353557  0.6920031762117203  1.0000
  O   O16       1.0  0.10476326215295019  0.8038890202452721  0.808010840835486  1.0000
  O   O17       1.0  0.6000246251553205  0.3938323835286256  0.17819741239165404  1.0000
  O   O18       1.0  0.10002433937395946  0.10617251523385819  0.3217933854203706  1.0000
  O   O19       1.0  0.3999745337797548  0.6061603894406246  0.8218040292797963  1.0000
  O   O20       1.0  0.8999761579489273  0.893829818628575  0.6782037131237002  1.0000
  O   O21       1.0  0.9991729251230692  0.5860106932551615  0.6785206335962923  1.0000
  O   O22       1.0  0.4991621480769766  0.913982113063156  0.8214820907481265  1.0000
  O   O23       1.0  0.0008369411559953997  0.4139843417243938  0.32147531789543377  1.0000
  O   O24       1.0  0.5008263034807924  0.08602005221316489  0.17852056125965277  1.0000
  O   O25       1.0  0.0886502318793205  0.7598006907472836  0.471653572668309  1.0000
  O   O26       1.0  0.5886613921811872  0.7402041244460947  0.028350925074214196  1.0000
  O   O27       1.0  0.9113422349626458  0.24020673619555305  0.5283483120098464  1.0000
  O   O28       1.0  0.41132438256037307  0.2598063864366367  0.971652905679768  1.0000
