data_image0
_chemical_formula_structural       Zn2H16C18N2O8
_chemical_formula_sum              "Zn2 H16 C18 N2 O8"
_cell_length_a       6.276216196548643
_cell_length_b       7.893101060284951
_cell_length_c       10.02372558345574
_cell_angle_alpha    101.36371491514389
_cell_angle_beta     103.97237077312835
_cell_angle_gamma    104.7417839000765

_space_group_name_H-M_alt    "P 1"
_space_group_IT_number       1

loop_
  _space_group_symop_operation_xyz
  'x, y, z'

loop_
  _atom_site_type_symbol
  _atom_site_label
  _atom_site_symmetry_multiplicity
  _atom_site_fract_x
  _atom_site_fract_y
  _atom_site_fract_z
  _atom_site_occupancy
  Zn  Zn1       1.0  0.5504816492280185  0.5792534623236777  0.15263219256924296  1.0000
  Zn  Zn2       1.0  0.44951840609868293  0.4207451825226798  0.8473673542492578  1.0000
  H   H1        1.0  0.8647613429264708  0.8534263127266114  0.4205612758885095  1.0000
  H   H2        1.0  0.1352424604036813  0.14656556989987024  0.5794355976894252  1.0000
  H   H3        1.0  0.8474976575780887  0.9982931259986858  0.6641337614967425  1.0000
  H   H4        1.0  0.1524958402885375  0.0016973347090498993  0.3358635144081603  1.0000
  H   H5        1.0  0.4772402860416918  0.8855626304275648  0.7219521784323746  1.0000
  H   H6        1.0  0.5227631089995626  0.1144319216388325  0.27804809729450136  1.0000
  H   H7        1.0  0.14322402641372622  0.6403844954569279  0.5365100370945085  1.0000
  H   H8        1.0  0.8567681695608724  0.35961556033267084  0.46348473156277237  1.0000
  H   H9        1.0  0.1849872205254429  0.5189088132930026  0.2957203451769317  1.0000
  H   H10       1.0  0.8150109049031257  0.48108993085944723  0.7042729765804481  1.0000
  H   H11       1.0  0.7098073264458334  0.0241886147047978  0.11089943168284579  1.0000
  H   H12       1.0  0.2902027086989776  0.975822254630316  0.889106526185948  1.0000
  H   H13       1.0  0.9776914881127324  0.19510412813504988  0.2075143938120121  1.0000
  H   H14       1.0  0.022316719440205125  0.8049027222219324  0.792486638061412  1.0000
  H   H15       1.0  0.8058820449907742  0.018263058629280206  0.8832731300804184  1.0000
  H   H16       1.0  0.19411865145055168  0.9817369143833048  0.11672872644318487  1.0000
  C   C1        1.0  0.7091105395873283  0.8115192744877151  0.4520187821067267  1.0000
  C   C2        1.0  0.2908878383297448  0.18847121585655915  0.5479781393421135  1.0000
  C   C3        1.0  0.698467542710425  0.8898986131179853  0.586299310126634  1.0000
  C   C4        1.0  0.3015291381342422  0.11009597413851684  0.4136970981151293  1.0000
  C   C5        1.0  0.4926201436919442  0.828053532497954  0.6179878265991688  1.0000
  C   C6        1.0  0.5073775255717267  0.17194789833413895  0.38200789574718647  1.0000
  C   C7        1.0  0.305316260758886  0.6919385339892871  0.5143050760486645  1.0000
  C   C8        1.0  0.6946818712239419  0.30805612635838747  0.4856875416545208  1.0000
  C   C9        1.0  0.327871719409039  0.6223628102778492  0.3815239870587561  1.0000
  C   C10       1.0  0.6721198354509352  0.37763591734552193  0.6184684718934221  1.0000
  C   C11       1.0  0.7295215600426274  0.28236251050650213  0.07431055274805941  1.0000
  C   C12       1.0  0.27048570041303316  0.7176415628399369  0.9256928706349399  1.0000
  C   C13       1.0  0.8435203132197059  0.1398915220529062  0.10312978392570932  1.0000
  C   C14       1.0  0.15648540034580086  0.860112512681809  0.8968754268759296  1.0000
  C   C15       1.0  0.9442920447329683  0.07460206074334512  0.9856966414235799  1.0000
  C   C16       1.0  0.055708051915466725  0.9254006506680599  0.014304611009087895  1.0000
  C   C17       1.0  0.12739791703199188  0.2340949984447747  0.9713536231788495  1.0000
  C   C18       1.0  0.872605375703017  0.7659036719058464  0.028645353482275447  1.0000
  N   N1        1.0  0.527833967854626  0.6806667470181652  0.3515436280609023  1.0000
  N   N2        1.0  0.4721570895187097  0.31933060071980185  0.6484495258660843  1.0000
  O   O1        1.0  0.7367982318704165  0.4025041412184082  0.1823940166432862  1.0000
  O   O2        1.0  0.26320930928697084  0.5975039124944388  0.8176161201537296  1.0000
  O   O3        1.0  0.6288165627084438  0.2675436762530837  0.9441235723918809  1.0000
  O   O4        1.0  0.3711855530358578  0.7324629851775557  0.05588661227603354  1.0000
  O   O5        1.0  0.14905311873921787  0.23057740327904244  0.8477148204216362  1.0000
  O   O6        1.0  0.8509472586109508  0.7694292884987703  0.15229314542503397  1.0000
  O   O7        1.0  0.2511366325084481  0.35619801266096845  0.0866708298741941  1.0000
  O   O8        1.0  0.748864746369243  0.6438073550828917  0.9133350419686793  1.0000
