data_image0
_chemical_formula_structural       Zn2H28C40N8O8
_chemical_formula_sum              "Zn2 H28 C40 N8 O8"
_cell_length_a       8.713104176121394
_cell_length_b       9.73902489625677
_cell_length_c       11.562616525305772
_cell_angle_alpha    107.05680133102709
_cell_angle_beta     91.42719395134799
_cell_angle_gamma    111.2510780585833

_space_group_name_H-M_alt    "P 1"
_space_group_IT_number       1

loop_
  _space_group_symop_operation_xyz
  'x, y, z'

loop_
  _atom_site_type_symbol
  _atom_site_label
  _atom_site_symmetry_multiplicity
  _atom_site_fract_x
  _atom_site_fract_y
  _atom_site_fract_z
  _atom_site_occupancy
  Zn  Zn1       1.0  0.11686141097968056  0.5679664840936381  0.8411017925129014  1.0000
  Zn  Zn2       1.0  0.8831381359362851  0.4320345936092309  0.15889822423249456  1.0000
  H   H1        1.0  0.583570023317968  0.51607117937467  0.20141891530219871  1.0000
  H   H2        1.0  0.41642989342964404  0.48392524790111924  0.7985808537963378  1.0000
  H   H3        1.0  0.6553412756006907  4.05827036686996e-05  0.3131564647213452  1.0000
  H   H4        1.0  0.3446563735441543  0.9999558208304009  0.6868397822877411  1.0000
  H   H5        1.0  0.818325285150543  0.0468924637456212  0.5101987092537427  1.0000
  H   H6        1.0  0.18167333152690893  0.9531062641720283  0.4897972577907835  1.0000
  H   H7        1.0  0.8682729040128409  0.8294356067841592  0.5513369458564128  1.0000
  H   H8        1.0  0.1317273190440744  0.1705643028166222  0.44866194115018476  1.0000
  H   H9        1.0  0.8766549497570751  0.24194748558093693  0.34851034052822166  1.0000
  H   H10       1.0  0.1233452658410171  0.758052429100175  0.6514894124114574  1.0000
  H   H11       1.0  0.7187366938439295  0.5555542980880829  0.6022479009213126  1.0000
  H   H12       1.0  0.28126418297747335  0.44444445865161  0.3977524541457455  1.0000
  H   H13       1.0  0.44667288983423953  0.8664241056216397  0.915672429120377  1.0000
  H   H14       1.0  0.5533277983419254  0.1335769788717585  0.0843284827366517  1.0000
  H   H15       1.0  0.2762405913216241  0.5161288782482243  0.08095798251609652  1.0000
  H   H16       1.0  0.7237593552612723  0.4838675287062415  0.9190383228500919  1.0000
  H   H17       1.0  0.08248528701147251  0.1132837183852402  0.8630088466852185  1.0000
  H   H18       1.0  0.9175145438373349  0.8867208568836205  0.13699288576749066  1.0000
  H   H19       1.0  0.6015772731810644  0.029715192348248796  0.6907164247454886  1.0000
  H   H20       1.0  0.3984222662760716  0.9702858904349513  0.30928445793298925  1.0000
  H   H21       1.0  0.49255165424833786  0.7570352553873434  0.6998259015673368  1.0000
  H   H22       1.0  0.5074495065058998  0.2429669989183409  0.3001761692070346  1.0000
  H   H23       1.0  0.6864923813955315  0.6630436878768721  0.7854991481120591  1.0000
  H   H24       1.0  0.3135104155734468  0.33695972779062094  0.2145023788920355  1.0000
  H   H25       1.0  0.8150455165925337  0.3322318224789953  0.5699433459249121  1.0000
  H   H26       1.0  0.18495698898477997  0.6677681007028439  0.4300573313049582  1.0000
  H   H27       1.0  0.6719951463608851  0.9397646334802375  0.09452280577563242  1.0000
  H   H28       1.0  0.3280052578824381  0.0602329534471764  0.905476390374076  1.0000
  C   C1        1.0  0.7275309236932088  0.6580137933912057  0.38002917898103306  1.0000
  C   C2        1.0  0.27246832437227647  0.3419837969063408  0.6199708539232134  1.0000
  C   C3        1.0  0.6335120312575313  0.631761455525343  0.2697126251967958  1.0000
  C   C4        1.0  0.3664867293122356  0.3682349751205792  0.7302879806562713  1.0000
  C   C5        1.0  0.6073907497269816  0.7544506874933818  0.24466585951415  1.0000
  C   C6        1.0  0.3926075457235286  0.24554456825993046  0.755332721488493  1.0000
  C   C7        1.0  0.6765492990707073  0.9045360661911842  0.3318302210349912  1.0000
  C   C8        1.0  0.3234483351564989  0.0954603475035469  0.6681677578402726  1.0000
  C   C9        1.0  0.7681684895559756  0.9310503883577824  0.44197949508723156  1.0000
  C   C10       1.0  0.23183192214617074  0.0689471934892936  0.5580188351293954  1.0000
  C   C11       1.0  0.7940532269201983  0.8084118790021719  0.4660197815740047  1.0000
  C   C12       1.0  0.20594535246315362  0.1915868743171245  0.5339805151359512  1.0000
  C   C13       1.0  0.8346610755031705  0.3356390906818803  0.38579631266770775  1.0000
  C   C14       1.0  0.16533866005802614  0.6643596592672835  0.6142031472877105  1.0000
  C   C15       1.0  0.753239516511556  0.5011927752498267  0.5168812138630727  1.0000
  C   C16       1.0  0.24676020413200203  0.4988059848599986  0.4831199779585233  1.0000
  C   C17       1.0  0.7598946590192313  0.532633167191385  0.4077182756575226  1.0000
  C   C18       1.0  0.24010536793362278  0.46736907524343957  0.5922820340721272  1.0000
  C   C19       1.0  0.44148202452692686  0.800885153551505  0.9773501114868708  1.0000
  C   C20       1.0  0.558517514930216  0.19911592923169513  0.02265077119160709  1.0000
  C   C21       1.0  0.35959982652568095  0.6203047903693673  0.06452759606002446  1.0000
  C   C22       1.0  0.6403987677753163  0.3796939527892675  0.9354709687837612  1.0000
  C   C23       1.0  0.5105496795492285  0.7313774078758257  0.13063973191685108  1.0000
  C   C24       1.0  0.489450252116022  0.2686190092393019  0.8693583053155148  1.0000
  C   C25       1.0  0.896987195122037  0.8796104103280626  0.8261843917184419  1.0000
  C   C26       1.0  0.1030137769869697  0.12039417173131992  0.17381823584590708  1.0000
  C   C27       1.0  0.9535780359565678  0.0346218338119613  0.8276708834167577  1.0000
  C   C28       1.0  0.04642132231415259  0.9653815716446131  0.17232969011860888  1.0000
  C   C29       1.0  0.8459036037283383  0.0883533310524314  0.7800217465011839  1.0000
  C   C30       1.0  0.1540957470835663  0.9116500794844739  0.21997969296726438  1.0000
  C   C31       1.0  0.6806748204174086  0.987031801329401  0.7321354572502513  1.0000
  C   C32       1.0  0.3193256791135184  0.012971610917702502  0.2678660113967481  1.0000
  C   C33       1.0  0.6214585984084379  0.8352527627749069  0.7360206801335493  1.0000
  C   C34       1.0  0.378541893663673  0.1647506545525275  0.2639816544465319  1.0000
  C   C35       1.0  0.7291001910452196  0.782048278421989  0.7833602169741737  1.0000
  C   C36       1.0  0.2708998284488118  0.2179539690931662  0.21664095868856484  1.0000
  C   C37       1.0  0.01575910221893641  0.8118887622370038  0.8573536094229153  1.0000
  C   C38       1.0  0.9842413973119977  0.1881146500100996  0.14264785922408407  1.0000
  C   C39       1.0  0.9050781927629146  0.24972234578169147  0.7710816594780994  1.0000
  C   C40       1.0  0.09492182673111657  0.7502799017334566  0.2289195161846393  1.0000
  N   N1        1.0  0.8109574104089532  0.42663407826595556  0.32579417557164436  1.0000
  N   N2        1.0  0.18904117643322133  0.5733646699730102  0.6742052552052228  1.0000
  N   N3        1.0  0.8003119865970731  0.37760465542853444  0.500904228646945  1.0000
  N   N4        1.0  0.19969051898024753  0.6223952677533049  0.49909644858291796  1.0000
  N   N5        1.0  0.5589448871143006  0.843228297162682  0.07272060108808631  1.0000
  N   N6        1.0  0.44105552458784564  0.15676928468439405  0.9272777291285407  1.0000
  N   N7        1.0  0.31824999737303733  0.6665722186101137  0.9699838735127312  1.0000
  N   N8        1.0  0.6817490769648558  0.3334276892804695  0.030014984315315  1.0000
  O   O1        1.0  0.17056124013215168  0.8907970933342924  0.8786163633403703  1.0000
  O   O2        1.0  0.8294394331263746  0.1092040013197675  0.1213862803828363  1.0000
  O   O3        1.0  0.9514576576789368  0.6672470795549897  0.8509293225532983  1.0000
  O   O4        1.0  0.0485423692739175  0.33275516287982754  0.14907098717635847  1.0000
  O   O5        1.0  0.8337115485796717  0.2702279619609628  0.6853644460676094  1.0000
  O   O6        1.0  0.1662880057951098  0.7297731106615756  0.3146347047446979  1.0000
  O   O7        1.0  0.025640486211422293  0.3560460078954507  0.8527731741001502  1.0000
  O   O8        1.0  0.9743572283857488  0.6439562412796391  0.14722880913857483  1.0000
