data_image0
_chemical_formula_structural       Zn2H24C36N12O8
_chemical_formula_sum              "Zn2 H24 C36 N12 O8"
_cell_length_a       8.713261871704338
_cell_length_b       10.240020715458158
_cell_length_c       12.314506286150117
_cell_angle_alpha    74.88057114366698
_cell_angle_beta     82.00664134478029
_cell_angle_gamma    79.60619403131003

_space_group_name_H-M_alt    "P 1"
_space_group_IT_number       1

loop_
  _space_group_symop_operation_xyz
  'x, y, z'

loop_
  _atom_site_type_symbol
  _atom_site_label
  _atom_site_symmetry_multiplicity
  _atom_site_fract_x
  _atom_site_fract_y
  _atom_site_fract_z
  _atom_site_occupancy
  Zn  Zn1       1.0  0.85527469345255  0.38995014884371676  0.9648216952016568  1.0000
  Zn  Zn2       1.0  0.14472704837869094  0.6100488554247505  0.03517954715493228  1.0000
  H   H1        1.0  0.8606971692269026  0.1847977357401902  0.19235808832687698  1.0000
  H   H2        1.0  0.13930538097663708  0.8152033138577014  0.807642635143928  1.0000
  H   H3        1.0  0.35352185524183  0.6234696028071768  0.24795337281808108  1.0000
  H   H4        1.0  0.646477205058929  0.37653146303306784  0.7520452616232802  1.0000
  H   H5        1.0  0.5528902200181988  0.5361077908158977  0.11583136645118934  1.0000
  H   H6        1.0  0.4471093664304106  0.4638902052272727  0.8841678720177056  1.0000
  H   H7        1.0  0.6906229217288028  0.17947065032682022  0.3845847468292831  1.0000
  H   H8        1.0  0.3093806163930494  0.8205314171226447  0.6154164716421491  1.0000
  H   H9        1.0  0.31446749817180825  0.25118118398614797  0.6792493618077983  1.0000
  H   H10       1.0  0.685535223250952  0.7488188465582157  0.3207507504615989  1.0000
  H   H11       1.0  0.1398361037063154  0.22571160676183413  0.8625486514232747  1.0000
  H   H12       1.0  0.8601658093441529  0.7742863784531124  0.13745197973192078  1.0000
  H   H13       1.0  0.8708405690284098  0.6005746689967708  0.7466143598762257  1.0000
  H   H14       1.0  0.12916116863943472  0.39942433948385775  0.25338606993645385  1.0000
  H   H15       1.0  0.0338656772860375  0.6421035042566388  0.5605011464899334  1.0000
  H   H16       1.0  0.9661357179433595  0.35789754233104537  0.4395005057255402  1.0000
  H   H17       1.0  0.5259255527260509  0.7643618344900317  0.843548607201221  1.0000
  H   H18       1.0  0.4740760053957871  0.23563820146844713  0.15645080872503309  1.0000
  H   H19       1.0  0.3695504627208094  0.9988841593200775  0.7987475736865335  1.0000
  H   H20       1.0  0.6304509075282424  0.001116912540581401  0.2012492032654691  1.0000
  H   H21       1.0  0.4720759199352501  0.1942549609541615  0.836324630625107  1.0000
  H   H22       1.0  0.5279279481348809  0.8057450810247387  0.1636729278117882  1.0000
  H   H23       1.0  0.8858525902725702  0.924275576007567  0.9527591596762902  1.0000
  H   H24       1.0  0.11414666622776785  0.07572444550617523  0.0472437388271416  1.0000
  C   C1        1.0  0.6074584936253942  0.4417004232672995  0.16884418620850986  1.0000
  C   C2        1.0  0.3925422519607551  0.5582975715739239  0.831154936059626  1.0000
  C   C3        1.0  0.6758529851650791  0.25866583353963796  0.30725689081508983  1.0000
  C   C4        1.0  0.3241495692018574  0.7413352118460851  0.6927446451996175  1.0000
  C   C5        1.0  0.5698392119173833  0.38003183431388265  0.2844008470674169  1.0000
  C   C6        1.0  0.43016252575046104  0.6199671741667457  0.7155995827452627  1.0000
  C   C7        1.0  0.44768312921505765  0.4332811926027917  0.36048828092975777  1.0000
  C   C8        1.0  0.5523185959626102  0.5667178285143282  0.6395097112511862  1.0000
  C   C9        1.0  0.28272891502687253  0.4687708984548566  0.49706114848711985  1.0000
  C   C10       1.0  0.7172736310132777  0.5312301553551961  0.5029387624397684  1.0000
  C   C11       1.0  0.18845101851093926  0.44968099991731236  0.6057315871530092  1.0000
  C   C12       1.0  0.8115513521465941  0.5503210771584294  0.39426812243136306  1.0000
  C   C13       1.0  0.2175045931322828  0.3308152637775521  0.6922830879694218  1.0000
  C   C14       1.0  0.7824979529078673  0.6691857900325006  0.30771682295746666  1.0000
  C   C15       1.0  0.12158702097260492  0.31669887558455667  0.7934137875931027  1.0000
  C   C16       1.0  0.8784145413126297  0.6833011561617612  0.20658644087706066  1.0000
  C   C17       1.0  0.9718233008340533  0.5268878002619247  0.7289230766156577  1.0000
  C   C18       1.0  0.0281795959713307  0.4731112070167569  0.2710772369962555  1.0000
  C   C19       1.0  0.061958143560261185  0.5493334825921893  0.6259784315978222  1.0000
  C   C20       1.0  0.9380445861892852  0.45066653952785163  0.37402330575940107  1.0000
  C   C21       1.0  0.8086292793446217  0.6893874773881736  0.9252068364869003  1.0000
  C   C22       1.0  0.19137094842045596  0.31061357882578733  0.07479330684151357  1.0000
  C   C23       1.0  0.7150111845216998  0.8301142145489705  0.899437666936393  1.0000
  C   C24       1.0  0.2849905406559685  0.1698848065681489  0.10056032524455108  1.0000
  C   C25       1.0  0.5692708867751719  0.8517881682163096  0.8564861151935473  1.0000
  C   C26       1.0  0.4307331566775686  0.148210850496902  0.14351164458586396  1.0000
  C   C27       1.0  0.483139346473372  0.9827906405094359  0.8317037407516279  1.0000
  C   C28       1.0  0.5168630116939854  0.017211449202797303  0.16829353120100876  1.0000
  C   C29       1.0  0.5401661890861505  0.0920574859532763  0.8520596281696624  1.0000
  C   C30       1.0  0.45983768314737017  0.9079425518134626  0.14793874281114927  1.0000
  C   C31       1.0  0.6846183719861686  0.07091528504790288  0.8967150837963587  1.0000
  C   C32       1.0  0.3153841657271954  0.9290857771864794  0.1032832020427036  1.0000
  C   C33       1.0  0.7728686445814504  0.9400497722203482  0.9189229623836326  1.0000
  C   C34       1.0  0.22713308892300432  0.059949240472448685  0.08107665488513047  1.0000
  C   C35       1.0  0.7430286099039803  0.18629417810065263  0.9234547191157034  1.0000
  C   C36       1.0  0.25697312776387093  0.813704830379983  0.07654571069697616  1.0000
  N   N1        1.0  0.7268240912520197  0.36357628889344074  0.12528218438374236  1.0000
  N   N2        1.0  0.273176483114895  0.6364227250013103  0.874717549085787  1.0000
  N   N3        1.0  0.7664134896894338  0.2533909501986713  0.20966396870359458  1.0000
  N   N4        1.0  0.23359172539102246  0.7466080546761023  0.7903361125067929  1.0000
  N   N5        1.0  0.40215320391746456  0.37374641628573363  0.4675673842969417  1.0000
  N   N6        1.0  0.5978495091785162  0.6262536226829525  0.5324311028846296  1.0000
  N   N7        1.0  0.25301397488863836  0.5826801801563518  0.4144586112541617  1.0000
  N   N8        1.0  0.7469874203407586  0.41732086643133204  0.585543040961312  1.0000
  N   N9        1.0  0.3589979256220061  0.5585334852190941  0.32930050216883433  1.0000
  N   N10       1.0  0.6410013142247662  0.4414665531432932  0.6706991461589453  1.0000
  N   N11       1.0  0.00047401814677529953  0.4130595666746188  0.8122580463430111  1.0000
  N   N12       1.0  0.9995273687558353  0.5869414883373879  0.18774198078464366  1.0000
  O   O1        1.0  0.7376913085754851  0.588505860157632  0.9308845101965203  1.0000
  O   O2        1.0  0.2623102537097423  0.4114941715886857  0.06911571827364331  1.0000
  O   O3        1.0  0.9529415999071986  0.6796919593783031  0.9365726772598251  1.0000
  O   O4        1.0  0.0470589869498994  0.320307041879957  0.06342949384143985  1.0000
  O   O5        1.0  0.8581515921235906  0.16216455029258012  0.9821108087971239  1.0000
  O   O6        1.0  0.1418488110241114  0.8378354826556916  0.01788953587380596  1.0000
  O   O7        1.0  0.6745403414378899  0.3095373439491951  0.8865854566952293  1.0000
  O   O8        1.0  0.3254610371379414  0.6904637194871414  0.11341294534459215  1.0000
