data_image0
_chemical_formula_structural       Zn4H48C48N16
_chemical_formula_sum              "Zn4 H48 C48 N16"
_cell_length_a       14.99452445414291
_cell_length_b       15.006118467140004
_cell_length_c       14.990109457675057
_cell_angle_alpha    102.80458771637913
_cell_angle_beta     112.79326972446526
_cell_angle_gamma    112.98227498284275

_space_group_name_H-M_alt    "P 1"
_space_group_IT_number       1

loop_
  _space_group_symop_operation_xyz
  'x, y, z'

loop_
  _atom_site_type_symbol
  _atom_site_label
  _atom_site_symmetry_multiplicity
  _atom_site_fract_x
  _atom_site_fract_y
  _atom_site_fract_z
  _atom_site_occupancy
  Zn  Zn1       1.0  0.35941536103703  0.019677464622482436  0.8671617125309226  1.0000
  Zn  Zn2       1.0  0.6426903428909368  0.02301236448926149  0.1409735131189435  1.0000
  Zn  Zn3       1.0  0.3651989091077255  0.8857360542125646  0.013007899192409368  1.0000
  Zn  Zn4       1.0  0.6392722597892018  0.1656078352023158  0.008206165822557008  1.0000
  H   H1        1.0  0.3393226873744908  0.2041559520091312  0.0018690464952512984  1.0000
  H   H2        1.0  0.41859083617582366  0.5720145670411864  0.9881081138932257  1.0000
  H   H3        1.0  0.6716445582006472  0.17867197931553847  0.353801265910036  1.0000
  H   H4        1.0  0.5677380833113689  0.6597052022441544  0.06633639824821091  1.0000
  H   H5        1.0  0.6719660697118073  0.5249660405561726  0.9348589011463629  1.0000
  H   H6        1.0  0.6773041770136672  0.6831616347496874  0.966436405677399  1.0000
  H   H7        1.0  0.3559741401272234  0.35481875580164507  0.7082737280121378  1.0000
  H   H8        1.0  0.31186499375685633  0.36232032778539747  0.801470726136607  1.0000
  H   H9        1.0  0.3097912821544426  0.5115206833140745  0.7836300621118324  1.0000
  H   H10       1.0  0.38890222294432414  0.5247952763580769  0.7204972426700138  1.0000
  H   H11       1.0  0.6007575813067021  0.6420190854744944  0.826237009188546  1.0000
  H   H12       1.0  0.6812692722860874  0.8497764118823027  0.016163786669317025  1.0000
  H   H13       1.0  0.942595690364108  0.6754588736836736  0.512842063281795  1.0000
  H   H14       1.0  0.3353725014051321  0.8184674906630319  0.20690439905953895  1.0000
  H   H15       1.0  0.7877764022680649  0.5264913611249039  0.355058206441157  1.0000
  H   H16       1.0  0.7677141102730473  0.3919011480619828  0.48145464005034455  1.0000
  H   H17       1.0  0.44110841921987987  0.8604755406461135  0.41541985273301657  1.0000
  H   H18       1.0  0.6882168122401993  0.9863128140556371  0.6925119889622097  1.0000
  H   H19       1.0  0.42846900384694914  0.8296776855847692  0.5456324498744393  1.0000
  H   H20       1.0  0.09912479062847267  0.12365002887572978  0.2684960385875499  1.0000
  H   H21       1.0  0.08237976638520908  0.21901124933424396  0.10530958817175667  1.0000
  H   H22       1.0  0.23720865750693318  0.09643300049980039  0.24789913025443866  1.0000
  H   H23       1.0  0.09294831252601908  0.6725713099956536  0.8496839139976018  1.0000
  H   H24       1.0  0.6784647234627242  0.38482007909322374  0.975160777530945  1.0000
  H   H25       1.0  0.2367137885463748  0.22584585466364623  0.11508433360093313  1.0000
  H   H26       1.0  0.7029156226263209  0.9872960426283011  0.3622893549966264  1.0000
  H   H27       1.0  0.3099759192597418  0.19396822094000032  0.7815901279824828  1.0000
  H   H28       1.0  0.6759581898959154  0.37411907474438505  0.17939646006264087  1.0000
  H   H29       1.0  0.3363804647122421  0.020495022055627008  0.18821997876649016  1.0000
  H   H30       1.0  0.3214922659905355  0.8443810223417925  0.6599837138665522  1.0000
  H   H31       1.0  0.0941749883324974  0.8353753909313824  0.5745173456570073  1.0000
  H   H32       1.0  0.9994033708426429  0.8541682144173917  0.6077392458124535  1.0000
  H   H33       1.0  0.1467153197899549  0.9573097425448648  0.6822637839600176  1.0000
  H   H34       1.0  0.905213716165214  0.2580355651457467  0.047866138609883466  1.0000
  H   H35       1.0  0.6613510181425966  0.5154137756849335  0.7648927798947227  1.0000
  H   H36       1.0  0.579217770955907  0.38319624579685296  0.7490717671392985  1.0000
  H   H37       1.0  0.5106340837674352  0.4478221473508412  0.6938115990460219  1.0000
  H   H38       1.0  0.8809647181258526  0.5962476186837405  0.7436093461803422  1.0000
  H   H39       1.0  0.7732882243485903  0.5065582194848872  0.6056618448256544  1.0000
  H   H40       1.0  0.8922818994660202  0.49463279309630065  0.6710637128090935  1.0000
  H   H41       1.0  0.794997519748307  0.9850090301167567  0.6214531535560468  1.0000
  H   H42       1.0  0.7381142177337734  0.9194498715898901  0.4811234924172894  1.0000
  H   H43       1.0  0.7667859982966475  0.05135950036455488  0.5394854774281725  1.0000
  H   H44       1.0  0.9044961682830246  0.06856181343495378  0.22744660440324072  1.0000
  H   H45       1.0  0.6911446359203808  0.0388970989510469  0.8566026637685055  1.0000
  H   H46       1.0  0.3123520893920784  0.6682065228201067  0.8496874459416972  1.0000
  H   H47       1.0  0.5976582815797754  0.5160867132446326  0.05032154283870936  1.0000
  H   H48       1.0  0.4511061307302241  0.43287805475431884  0.9993975207629758  1.0000
  C   C1        1.0  0.3450752848996217  0.1507611939691671  0.03932440109033308  1.0000
  C   C2        1.0  0.1102910620085495  0.8232746835860995  0.720553342555654  1.0000
  C   C3        1.0  0.5996704358583216  0.9989680705303242  0.8222176653205865  1.0000
  C   C4        1.0  0.6668507826163007  0.2123089656703455  0.29614942939350897  1.0000
  C   C5        1.0  0.40338554528565845  0.7276407418848406  0.8976399155811591  1.0000
  C   C6        1.0  0.5085644892784985  0.9212186745756625  0.7167348875268118  1.0000
  C   C7        1.0  0.4956752649846692  0.7147325038228941  0.9151425357785143  1.0000
  C   C8        1.0  0.0409237546699117  0.724677933906122  0.7178352268522303  1.0000
  C   C9        1.0  0.9548109235119141  0.1737749714154048  0.1474050492604276  1.0000
  C   C10       1.0  0.5119281077251756  0.49045370796377336  0.986537926115723  1.0000
  C   C11       1.0  0.4978131533300711  0.5870181907942537  0.9909157303099079  1.0000
  C   C12       1.0  0.6935733540600353  0.3175178688180793  0.3102514157862046  1.0000
  C   C13       1.0  0.5926463546997168  0.5094980599775312  0.8690023526733697  1.0000
  C   C14       1.0  0.3792428071732488  0.4075921363934043  0.7876557129507802  1.0000
  C   C15       1.0  0.49353375052487536  0.4313046360955963  0.8761910869001922  1.0000
  C   C16       1.0  0.42401297438532737  0.8615317827046736  0.22950376074341963  1.0000
  C   C17       1.0  0.49445488533623205  0.6111465752397435  0.8944823660619506  1.0000
  C   C18       1.0  0.5981803827029424  0.6186668277705037  0.8902423651725827  1.0000
  C   C19       1.0  0.3863578927989693  0.5140348464385411  0.7899415177274918  1.0000
  C   C20       1.0  0.8914749789704002  0.6111486871159073  0.5264701254998128  1.0000
  C   C21       1.0  0.9294513877986146  0.6305751895216857  0.6317050387335428  1.0000
  C   C22       1.0  0.8031640713963525  0.5141841302907793  0.42764774359879  1.0000
  C   C23       1.0  0.5227946954656701  0.897492996574726  0.32821216662325264  1.0000
  C   C24       1.0  0.7524338612757758  0.4097950871570787  0.4121556009630112  1.0000
  C   C25       1.0  0.6159075109711054  0.9259853039654188  0.5216480563254677  1.0000
  C   C26       1.0  0.5242853488717002  0.8910260668055086  0.4232305608692783  1.0000
  C   C27       1.0  0.6067252984249123  0.9317584036855207  0.6156594394840766  1.0000
  C   C28       1.0  0.5880823213114539  0.32339121476609006  0.9295131964321967  1.0000
  C   C29       1.0  0.5113756014281634  0.8873579374869248  0.6201922585861368  1.0000
  C   C30       1.0  0.12340854871302297  0.15465846813360423  0.2167309349709825  1.0000
  C   C31       1.0  0.0595403749330643  0.1872953022646797  0.1573613365108315  1.0000
  C   C32       1.0  0.21247040487075713  0.14388612442026266  0.20958716637849054  1.0000
  C   C33       1.0  0.25756337881215063  0.17527806832973877  0.15091290051675085  1.0000
  C   C34       1.0  0.4935509241488774  0.33069732230423193  0.8735363672435881  1.0000
  C   C35       1.0  0.611347694898086  0.9468487219443703  0.30955273741042094  1.0000
  C   C36       1.0  0.4007493928336102  0.22629015488923435  0.8310638447977253  1.0000
  C   C37       1.0  0.6697666088740633  0.312651163819254  0.20780613131542935  1.0000
  C   C38       1.0  0.3433284560464216  0.05721034138399967  0.13454378968877015  1.0000
  C   C39       1.0  0.3182397343280813  0.13555939624183816  0.11726947217317024  1.0000
  C   C40       1.0  0.0862748627554097  0.8695742250272429  0.6421086178267927  1.0000
  C   C41       1.0  0.5853234597651422  0.4610347471693785  0.7632712645389788  1.0000
  C   C42       1.0  0.8654860709104567  0.5529514657403992  0.6645163711540788  1.0000
  C   C43       1.0  0.735023238479556  0.9726558254989964  0.5419818273286126  1.0000
  C   C44       1.0  0.41110093476697773  0.8996665756319542  0.722562984076184  1.0000
  C   C45       1.0  0.591157859462335  0.8201601415687134  0.9823891086537557  1.0000
  C   C46       1.0  0.1109965193647255  0.7310719362505792  0.8175311370821703  1.0000
  C   C47       1.0  0.8874334304933528  0.20853294909643702  0.08907024508943118  1.0000
  C   C48       1.0  0.887900721460177  0.1128115125848055  0.1813800935933685  1.0000
  N   N1        1.0  0.37992537660275616  0.08493987268026608  0.011333355486151182  1.0000
  N   N2        1.0  0.45145358049941814  0.887207234656671  0.15953768500268944  1.0000
  N   N3        1.0  0.5541317115435547  0.2228018990968933  0.9210293719346366  1.0000
  N   N4        1.0  0.56816483479016  0.9406469014180345  0.20973988698161616  1.0000
  N   N5        1.0  0.43726602858962593  0.1620468586035814  0.8597156663311055  1.0000
  N   N6        1.0  0.6351069902522752  0.21387131683396615  0.14105922897564233  1.0000
  N   N7        1.0  0.37886681916464937  0.027684799549803036  0.07008476383838766  1.0000
  N   N8        1.0  0.442627272933116  0.9621903113669744  0.8221393439818598  1.0000
  N   N9        1.0  0.5574399575279685  0.8893526664105309  0.0042856927696917945  1.0000
  N   N10       1.0  0.2133610796419418  0.82359101947177  0.8740126305287673  1.0000
  N   N11       1.0  0.7896899248257582  0.17163974919028385  0.08872558542624627  1.0000
  N   N12       1.0  0.7900960712302518  0.11165357194094824  0.14598634266559418  1.0000
  N   N13       1.0  0.2122905954921208  0.88068891426046  0.8140044447097806  1.0000
  N   N14       1.0  0.5585217047062939  0.022835071841221577  0.8831590994708234  1.0000
  N   N15       1.0  0.4418811150773009  0.8324320604985828  0.9521464382117272  1.0000
  N   N16       1.0  0.6333475677077232  0.152037544350847  0.1950588165373333  1.0000
