data_image0
_chemical_formula_structural       Zn4H40C68N12O16
_chemical_formula_sum              "Zn4 H40 C68 N12 O16"
_cell_length_a       13.98891879714225
_cell_length_b       15.14636819319004
_cell_length_c       15.213616786670574
_cell_angle_alpha    76.23882657707347
_cell_angle_beta     86.27444255737028
_cell_angle_gamma    82.75769582805606

_space_group_name_H-M_alt    "P 1"
_space_group_IT_number       1

loop_
  _space_group_symop_operation_xyz
  'x, y, z'

loop_
  _atom_site_type_symbol
  _atom_site_label
  _atom_site_symmetry_multiplicity
  _atom_site_fract_x
  _atom_site_fract_y
  _atom_site_fract_z
  _atom_site_occupancy
  Zn  Zn1       1.0  0.8959693569616148  0.1088808694595542  0.8293234728939038  1.0000
  Zn  Zn2       1.0  0.6897124037993477  0.13097967183371398  0.8360258537678718  1.0000
  Zn  Zn3       1.0  0.10403211885174096  0.8911174194418336  0.17067770593396148  1.0000
  Zn  Zn4       1.0  0.3102873286743914  0.8690213723329024  0.1639728159147466  1.0000
  H   H1        1.0  0.21059034789345069  0.1248008319178808  0.9724005975715357  1.0000
  H   H2        1.0  0.23648317994550175  0.1174780216531772  0.6888178320229769  1.0000
  H   H3        1.0  0.35740052931198096  0.06562504469066971  0.9760031705585062  1.0000
  H   H4        1.0  0.9421064848799999  0.11145511189076268  0.09911731903040526  1.0000
  H   H5        1.0  0.948656917474146  0.11718282655584743  0.25944148453947236  1.0000
  H   H6        1.0  0.634514584383055  0.11186349836148678  0.1366035047330314  1.0000
  H   H7        1.0  0.03620175678404537  0.1102964245010867  0.967440155170422  1.0000
  H   H8        1.0  0.05895729618225689  0.11056314449133707  0.6947087285820287  1.0000
  H   H9        1.0  0.646956249680521  0.17038425743644578  0.5411576232663151  1.0000
  H   H10       1.0  0.9484555101335629  0.07208079627893939  0.5571843094805968  1.0000
  H   H11       1.0  0.6332150952819333  0.4134287733896898  0.8308438265074114  1.0000
  H   H12       1.0  0.9478119608086715  0.06349989469871528  0.39536600375528497  1.0000
  H   H13       1.0  0.6313271917330848  0.5760960941492641  0.8395733749742147  1.0000
  H   H14       1.0  0.9494249336348373  0.7992093094844535  0.8561508319836544  1.0000
  H   H15       1.0  0.6347313506775975  0.7107138122804881  0.8095990695170484  1.0000
  H   H16       1.0  0.6434252249710466  0.8683331159831696  0.8286584719378565  1.0000
  H   H17       1.0  0.5336371856906937  0.07972369890847382  0.9723649445265963  1.0000
  H   H18       1.0  0.9402805187935925  0.4021001539117037  0.7844670993210626  1.0000
  H   H19       1.0  0.3628172179909086  0.19012507925911137  0.6881909950548887  1.0000
  H   H20       1.0  0.5403071328546645  0.19090414717955176  0.6966271438494684  1.0000
  H   H21       1.0  0.789407396358797  0.8752049875722818  0.027601025285875314  1.0000
  H   H22       1.0  0.7635171753073281  0.8825175381999413  0.3111840433380734  1.0000
  H   H23       1.0  0.64260000057304  0.9343814327676722  0.02400011103264178  1.0000
  H   H24       1.0  0.05788878560007043  0.8885411951784405  0.9008781038493153  1.0000
  H   H25       1.0  0.05134185545370676  0.8828141346353887  0.7405555565640825  1.0000
  H   H26       1.0  0.36548107752283693  0.8881355018834398  0.8633985025129571  1.0000
  H   H27       1.0  0.96379583541335  0.889710777802513  0.032558527061382764  1.0000
  H   H28       1.0  0.9410425781776581  0.8894303702632982  0.305292990706718  1.0000
  H   H29       1.0  0.35304133234817675  0.8296167982686169  0.4588411679460124  1.0000
  H   H30       1.0  0.051541915360388685  0.9279216277964079  0.4428141739750514  1.0000
  H   H31       1.0  0.3667883800415693  0.5865708903974891  0.1691536319479069  1.0000
  H   H32       1.0  0.05218633467512745  0.9365011463278279  0.6046347215988276  1.0000
  H   H33       1.0  0.36867636409773746  0.42390289267434866  0.16042292092498658  1.0000
  H   H34       1.0  0.050577819273790695  0.20079034009492597  0.14384995806772588  1.0000
  H   H35       1.0  0.3652721257658768  0.28928585511747684  0.19039773072103824  1.0000
  H   H36       1.0  0.35657618265467755  0.13166588960046968  0.17133662905659008  1.0000
  H   H37       1.0  0.4663635834763367  0.9202807404376043  0.027636165830656992  1.0000
  H   H38       1.0  0.05972453773491537  0.5978981049265711  0.21553585160897623  1.0000
  H   H39       1.0  0.6371813894424178  0.8098732214160833  0.3118110040298274  1.0000
  H   H40       1.0  0.4596910866017012  0.809097585253717  0.303372111191848  1.0000
  C   C1        1.0  0.3440103349757137  0.12737250662804198  0.8317526650093965  1.0000
  C   C2        1.0  0.23945198218714134  0.1225363192543156  0.8306303063674391  1.0000
  C   C3        1.0  0.18098671550824008  0.12061916525041028  0.9093350089478136  1.0000
  C   C4        1.0  0.7811206058541698  0.1100158990270046  0.007609079771128794  1.0000
  C   C5        1.0  0.795144398874619  0.12556160283405401  0.6591468146919793  1.0000
  C   C6        1.0  0.19499033848977376  0.1186600208231638  0.7516997007301143  1.0000
  C   C7        1.0  0.39389048226691153  0.09612657031697579  0.9125877473621882  1.0000
  C   C8        1.0  0.7906266009939882  0.29562401047441256  0.8095211511907292  1.0000
  C   C9        1.0  0.7872335230160559  0.1119733933596692  0.10487644211428196  1.0000
  C   C10       1.0  0.8762145010832896  0.11309746681305198  0.14108253185406738  1.0000
  C   C11       1.0  0.8795450241713851  0.1149611066297922  0.23146091079368597  1.0000
  C   C12       1.0  0.7971612440929405  0.846030962613163  0.8444891943061917  1.0000
  C   C13       1.0  0.705196512918725  0.1124263016218521  0.1631165116071215  1.0000
  C   C14       1.0  0.7957677348082298  0.11556114053175288  0.38215853611877987  1.0000
  C   C15       1.0  0.7870963219466631  0.39513511815582086  0.8080193388112631  1.0000
  C   C16       1.0  0.08330854598496272  0.11355760230946287  0.9071624337041584  1.0000
  C   C17       1.0  0.09653900349066899  0.1130894781415108  0.7545035252910423  1.0000
  C   C18       1.0  0.7936098232291399  0.11449866026424617  0.2848302103784234  1.0000
  C   C19       1.0  0.7148436954843832  0.14688218943545905  0.5097251912273038  1.0000
  C   C20       1.0  0.7975849591295797  0.12206191104296239  0.561534766967668  1.0000
  C   C21       1.0  0.8829202995215083  0.0920098389134054  0.5189798184193748  1.0000
  C   C22       1.0  0.8039794297218349  0.9418206137466071  0.8517497136125696  1.0000
  C   C23       1.0  0.6993568443554566  0.4460672394629839  0.8221434051559269  1.0000
  C   C24       1.0  0.8821026496184813  0.08797571894433528  0.4289075328991955  1.0000
  C   C25       1.0  0.789092644073385  0.6705129645547743  0.8250342090361541  1.0000
  C   C26       1.0  0.6990322126250347  0.5365437661722722  0.8265038148830895  1.0000
  C   C27       1.0  0.8783738770239393  0.7809727131207536  0.8465067688857955  1.0000
  C   C28       1.0  0.7036499669518006  0.7312863089033784  0.8214974910498396  1.0000
  C   C29       1.0  0.7078200625488406  0.8192441092974007  0.831691710033773  1.0000
  C   C30       1.0  0.7867914253529592  0.5748857724599786  0.8164760751069264  1.0000
  C   C31       1.0  0.49223601077655127  0.10191692187191853  0.9111510608729032  1.0000
  C   C32       1.0  0.8707211847835551  0.4397425866533665  0.796688470327453  1.0000
  C   C33       1.0  0.39733826588524573  0.1631047372968125  0.7527346460263898  1.0000
  C   C34       1.0  0.4959095830615752  0.16523291134191703  0.7566222382720369  1.0000
  C   C35       1.0  0.6559888304979324  0.8726271513496968  0.16825030224318732  1.0000
  C   C36       1.0  0.7605472649137963  0.8774626653706648  0.16937084011180298  1.0000
  C   C37       1.0  0.8190128593107814  0.879383243675697  0.09066401119535072  1.0000
  C   C38       1.0  0.21887450137132441  0.8899817547477368  0.9923899846552968  1.0000
  C   C39       1.0  0.20485143421460345  0.8744421900822914  0.34085275846124546  1.0000
  C   C40       1.0  0.805008985758569  0.8813382760058843  0.24830225784469911  1.0000
  C   C41       1.0  0.6061098060072041  0.9038758239306188  0.08741320692276837  1.0000
  C   C42       1.0  0.2093719236920748  0.704374959942754  0.19048332688456776  1.0000
  C   C43       1.0  0.21276349873238584  0.8880262978212558  0.8951226973646341  1.0000
  C   C44       1.0  0.1237791736321512  0.8869001982647831  0.8589159553749324  1.0000
  C   C45       1.0  0.12045295031416706  0.8850365317603562  0.7685379915931206  1.0000
  C   C46       1.0  0.20284166647041252  0.1539673222067179  0.15551124528463584  1.0000
  C   C47       1.0  0.29479827787734786  0.8875740780610784  0.8368839119576278  1.0000
  C   C48       1.0  0.20423151453265118  0.8844378513148002  0.6178412939259983  1.0000
  C   C49       1.0  0.2129087334618731  0.6048631370716677  0.19198427033601453  1.0000
  C   C50       1.0  0.9166895918441114  0.8864448034765786  0.09283864211050732  1.0000
  C   C51       1.0  0.9034607098546062  0.8869053905402493  0.24550051910993886  1.0000
  C   C52       1.0  0.20638870929672484  0.8855003354284532  0.7151696601762579  1.0000
  C   C53       1.0  0.28515539396182976  0.8531181599490124  0.4902763057124842  1.0000
  C   C54       1.0  0.20241103273433927  0.8779405207246854  0.4384637975077863  1.0000
  C   C55       1.0  0.11708006701997672  0.9079918711490507  0.4810212897439213  1.0000
  C   C56       1.0  0.19602355910888747  0.05817698688813518  0.14825087985660448  1.0000
  C   C57       1.0  0.3006496491629917  0.5539310225153713  0.17785749010261745  1.0000
  C   C58       1.0  0.11789485526281848  0.9120260245566598  0.5710904462175604  1.0000
  C   C59       1.0  0.21091083013014608  0.3294866956216184  0.1749639076363961  1.0000
  C   C60       1.0  0.30096910777353963  0.46345589471018656  0.17349639797086516  1.0000
  C   C61       1.0  0.12162808304224629  0.21902763171149084  0.15349259136268495  1.0000
  C   C62       1.0  0.2963534312242971  0.2687140426797328  0.17849915530990756  1.0000
  C   C63       1.0  0.29218269707961747  0.18075556194671796  0.1683051307142236  1.0000
  C   C64       1.0  0.21321197058319538  0.42511457190155266  0.18352188768728436  1.0000
  C   C65       1.0  0.507764914925232  0.8980861491038751  0.08885035724103567  1.0000
  C   C66       1.0  0.12928077192271553  0.5602577473465116  0.20331286457271594  1.0000
  C   C67       1.0  0.6026601078659296  0.8368956195445916  0.2472662332060693  1.0000
  C   C68       1.0  0.5040893509698633  0.8347688100236182  0.2433782926938334  1.0000
  N   N1        1.0  0.5427447705300209  0.1350684051089743  0.8345635876439699  1.0000
  N   N2        1.0  0.04172344100905429  0.10998106087961898  0.8309831393290423  1.0000
  N   N3        1.0  0.7073270551095021  0.1129920007020999  0.2505892800476416  1.0000
  N   N4        1.0  0.8753172034350667  0.695906958887903  0.8374020888852342  1.0000
  N   N5        1.0  0.7130875964636656  0.14444472361739713  0.42272658259265933  1.0000
  N   N6        1.0  0.8713877832703217  0.5267955386090434  0.8005622860885777  1.0000
  N   N7        1.0  0.4572555971314428  0.8649333085642683  0.16543686230208712  1.0000
  N   N8        1.0  0.958277552791415  0.890015179312499  0.16901854164375846  1.0000
  N   N9        1.0  0.2926698850116409  0.8870083638316046  0.7494116802046235  1.0000
  N   N10       1.0  0.12468555507341954  0.30409270874542227  0.1625954100799873  1.0000
  N   N11       1.0  0.28691070350001974  0.8555563318523055  0.5772715098925332  1.0000
  N   N12       1.0  0.1286148958508164  0.4732048095986343  0.19943571721553605  1.0000
  O   O1        1.0  0.6985137084893223  0.10867760899954249  0.9778081920549153  1.0000
  O   O2        1.0  0.8608082236923665  0.10981888714651689  0.9617511394840434  1.0000
  O   O3        1.0  0.7136446054227505  0.1451991178667456  0.6961981246003858  1.0000
  O   O4        1.0  0.875919576626309  0.10688988552785617  0.6978680067766516  1.0000
  O   O5        1.0  0.8869239364820559  0.9661587569502287  0.8569601315009975  1.0000
  O   O6        1.0  0.710014943999184  0.26229158434327354  0.825239635151334  1.0000
  O   O7        1.0  0.8719946674425001  0.25163778547886306  0.7974738159871605  1.0000
  O   O8        1.0  0.7237256419487254  0.9925072525632784  0.8516144283333061  1.0000
  O   O9        1.0  0.3014835514211498  0.8913200404583392  0.022189434407330583  1.0000
  O   O10       1.0  0.1391878340302951  0.8901767066158613  0.03824900428472935  1.0000
  O   O11       1.0  0.28635417543384983  0.8548039827014405  0.30380012395710304  1.0000
  O   O12       1.0  0.12407935516517903  0.8931118286161065  0.30213384062368215  1.0000
  O   O13       1.0  0.11308104513899048  0.03384019690556531  0.14304069089901358  1.0000
  O   O14       1.0  0.2899891631521213  0.7377087381181583  0.17476157821912605  1.0000
  O   O15       1.0  0.12800991043303603  0.7483584354825153  0.20252766243611828  1.0000
  O   O16       1.0  0.2762777539874294  0.007493091798252702  0.14838353446090477  1.0000
