data_image0
_chemical_formula_structural       Al4H44C64O32
_chemical_formula_sum              "Al4 H44 C64 O32"
_cell_length_a       6.6944889505164875
_cell_length_b       20.42594218839252
_cell_length_c       24.22173878373254
_cell_angle_alpha    102.58390732912022
_cell_angle_beta     89.9984762895993
_cell_angle_gamma    89.99979725019351

_space_group_name_H-M_alt    "P 1"
_space_group_IT_number       1

loop_
  _space_group_symop_operation_xyz
  'x, y, z'

loop_
  _atom_site_type_symbol
  _atom_site_label
  _atom_site_symmetry_multiplicity
  _atom_site_fract_x
  _atom_site_fract_y
  _atom_site_fract_z
  _atom_site_occupancy
  Al  Al1       1.0  0.29217653683880934  0.2538238956059189  0.2507989169546931  1.0000
  Al  Al2       1.0  0.7050536873259149  0.7467710217890017  0.750226563743283  1.0000
  Al  Al3       1.0  0.7921644263629943  0.24617072456202038  0.24919458743370632  1.0000
  Al  Al4       1.0  0.20504651944046504  0.7532241919374698  0.7497721975359114  1.0000
  H   H1        1.0  0.284420973789743  0.5166372794724695  0.8938998071850862  1.0000
  H   H2        1.0  0.7348137074711544  0.4730423905904928  0.0882514932524643  1.0000
  H   H3        1.0  0.7844471388625749  0.9833692763908173  0.6061170591197113  1.0000
  H   H4        1.0  0.23488071323263426  0.026965949752778277  0.4117701233215456  1.0000
  H   H5        1.0  0.7150862046401655  0.6756687345556928  0.9081806833022769  1.0000
  H   H6        1.0  0.302874450697594  0.320994078618547  0.10134546118730012  1.0000
  H   H7        1.0  0.2150573540976879  0.8243379141350714  0.5918056102242772  1.0000
  H   H8        1.0  0.8028408100759633  0.17901258251691843  0.3986317950746781  1.0000
  H   H9        1.0  0.5738497366458474  0.6402289006093582  0.8197895237012673  1.0000
  H   H10       1.0  0.42928674580140574  0.4325379165913575  0.18992497829488286  1.0000
  H   H11       1.0  0.07386001573438249  0.8597608968096395  0.6802064107496123  1.0000
  H   H12       1.0  0.9293305735303007  0.0673593806887851  0.3100843007236024  1.0000
  H   H13       1.0  0.5234055023771305  0.6508731070935597  0.040765304743381116  1.0000
  H   H14       1.0  0.6705621770104386  0.7002281087207223  0.003865534953575897  1.0000
  H   H15       1.0  0.8327334060675396  0.6189904270207904  0.08695529364850782  1.0000
  H   H16       1.0  0.9796988985369733  0.6677053476762183  0.0505917317437579  1.0000
  H   H17       1.0  0.7989871013307945  0.772942213862521  0.10083655569275861  1.0000
  H   H18       1.0  0.9103661074617831  0.7310832393892853  0.1499880154141664  1.0000
  H   H19       1.0  0.6495867697682911  0.7241837360185315  0.1372918008442809  1.0000
  H   H20       1.0  0.4098285165683678  0.3684793278363472  0.9356322085925372  1.0000
  H   H21       1.0  0.14802944022844847  0.36447785442838665  0.9472043425563116  1.0000
  H   H22       1.0  0.4583753206952181  0.2604703240575716  0.9659503463875581  1.0000
  H   H23       1.0  0.20073625695373212  0.25669230350708716  0.9808577374041221  1.0000
  H   H24       1.0  0.11724919457078897  0.24775104606807466  0.8779383114099275  1.0000
  H   H25       1.0  0.2837344899507386  0.18283808896364204  0.8859354641158959  1.0000
  H   H26       1.0  0.3748478536273083  0.2533314863731135  0.8620254288668718  1.0000
  H   H27       1.0  0.0234400492252149  0.8491540717330325  0.459246639232049  1.0000
  H   H28       1.0  0.17060606521573618  0.7997978277789316  0.49614938634474737  1.0000
  H   H29       1.0  0.33277774325758  0.8810240971907818  0.4130475391577306  1.0000
  H   H30       1.0  0.4797301308367422  0.8323089222228149  0.4494119965190038  1.0000
  H   H31       1.0  0.29899387413206563  0.7270725901410843  0.39917750152437753  1.0000
  H   H32       1.0  0.4103488237706472  0.7689217826302369  0.3500190328565297  1.0000
  H   H33       1.0  0.14957677300465383  0.7758309933359726  0.36272642425358004  1.0000
  H   H34       1.0  0.9098409780015401  0.13153197472480116  0.564360178041568  1.0000
  H   H35       1.0  0.6480317507970953  0.13553974085093765  0.5527844280640793  1.0000
  H   H36       1.0  0.9583964325764285  0.23954501779637388  0.534044673283077  1.0000
  H   H37       1.0  0.7007609132290539  0.24332659138414675  0.519140729101416  1.0000
  H   H38       1.0  0.6172688372363239  0.2522598729022292  0.6220589881779262  1.0000
  H   H39       1.0  0.7837424898596196  0.317176275191585  0.6140651737252938  1.0000
  H   H40       1.0  0.8748790353177113  0.2466795185693513  0.6379693421469029  1.0000
  H   H41       1.0  0.5605575892952216  0.33869377510724524  0.26103373163385163  1.0000
  H   H42       1.0  0.43808605449419247  0.6611233047328895  0.7319595478003509  1.0000
  H   H43       1.0  0.0605605594299092  0.1613033097459962  0.23901053944051398  1.0000
  H   H44       1.0  0.9380796017594618  0.8388707082268425  0.7680364382972585  1.0000
  C   C1        1.0  0.5355701607680246  0.16121222722075862  0.1659592984139024  1.0000
  C   C2        1.0  0.45975108657303554  0.8397221728211051  0.8328045175167986  1.0000
  C   C3        1.0  0.03551877928387629  0.3387752367277272  0.33403363236580225  1.0000
  C   C4        1.0  0.959775609168936  0.6602694468902046  0.6671971327297542  1.0000
  C   C5        1.0  0.5354205491189248  0.17961441528760963  0.31775478213592123  1.0000
  C   C6        1.0  0.4623954920631163  0.8187980237268062  0.6793771268680331  1.0000
  C   C7        1.0  0.0354069817242575  0.3203752105728768  0.1822390367367177  1.0000
  C   C8        1.0  0.9624519982094455  0.6811990588240704  0.8206140949335818  1.0000
  C   C9        1.0  0.1578760025029595  0.5505972554807386  0.8957919731987758  1.0000
  C   C10       1.0  0.8587772541996229  0.4395278995608507  0.0914150633591078  1.0000
  C   C11       1.0  0.6579078181973371  0.9494066111465145  0.60421030161271  1.0000
  C   C12       1.0  0.35883004207040875  0.0604715590276825  0.40859651411317804  1.0000
  C   C13       1.0  0.1467939027031377  0.5941368760545985  0.8590512094870774  1.0000
  C   C14       1.0  0.8651561213421957  0.4060851757000989  0.1358186493678915  1.0000
  C   C15       1.0  0.6467985305458298  0.9058637562226866  0.6409481424410046  1.0000
  C   C16       1.0  0.36516312407128737  0.09391071324782979  0.3641856468015519  1.0000
  C   C17       1.0  0.982221647206913  0.6380187857146423  0.8624722906593334  1.0000
  C   C18       1.0  0.027317167309846  0.3628559348143554  0.13929212283748876  1.0000
  C   C19       1.0  0.48220765497469387  0.8619721622420684  0.6375190613027115  1.0000
  C   C20       1.0  0.5273015081811748  0.1371400150493685  0.3607039992315819  1.0000
  C   C21       1.0  0.838860357533079  0.6405810060555411  0.904786445788993  1.0000
  C   C22       1.0  0.17889593169511636  0.35469136437215815  0.09888685601149663  1.0000
  C   C23       1.0  0.3388808912555276  0.8594228206878469  0.5952055083444138  1.0000
  C   C24       1.0  0.6788840475432777  0.145315023279835  0.40110108918891285  1.0000
  C   C25       1.0  0.849852802512835  0.5973290470092535  0.9418770736520515  1.0000
  C   C26       1.0  0.17494736361377514  0.3888516713276218  0.05494777044362561  1.0000
  C   C27       1.0  0.34989311256761374  0.902681046625233  0.5581246012742227  1.0000
  C   C28       1.0  0.6749828743059467  0.11116498991219001  0.4450509434895835  1.0000
  C   C29       1.0  0.008772875105208298  0.5504370894463692  0.9369994794440687  1.0000
  C   C30       1.0  0.013579330510417298  0.4327062301183346  0.050964176542329695  1.0000
  C   C31       1.0  0.5088104380817525  0.9495728214137744  0.5630016179910343  1.0000
  C   C32       1.0  0.5136362059043549  0.06731171639615502  0.4490451443480126  1.0000
  C   C33       1.0  0.0159099107212057  0.5068059625000103  0.9747365916416725  1.0000
  C   C34       1.0  0.012723999286748697  0.47146946747289314  0.009383220096857799  1.0000
  C   C35       1.0  0.5159388667705969  0.9932149037158879  0.525275619117096  1.0000
  C   C36       1.0  0.51277818688677  0.028555047175963508  0.4906333999294646  1.0000
  C   C37       1.0  0.9655432938704321  0.6096974636069987  0.6157196667057647  1.0000
  C   C38       1.0  0.026030140082816896  0.38870558329296057  0.3861470290272706  1.0000
  C   C39       1.0  0.46550631310281426  0.8902889858299263  0.8842826696545956  1.0000
  C   C40       1.0  0.5260461468126181  0.1112708668468443  0.11384953631205261  1.0000
  C   C41       1.0  0.976492139869869  0.5669759617961462  0.5715767574179297  1.0000
  C   C42       1.0  0.014737743114672198  0.4310516374350969  0.4304992254525217  1.0000
  C   C43       1.0  0.47645010130017335  0.9330181661382965  0.9284222835096544  1.0000
  C   C44       1.0  0.5147318885736496  0.06893525792079201  0.0694942846644651  1.0000
  C   C45       1.0  0.9891024287890742  0.5202261276929789  0.5233950970094128  1.0000
  C   C46       1.0  0.0016479696784018002  0.4774227933385119  0.4789208277091532  1.0000
  C   C47       1.0  0.48908296413989655  0.979771572390739  0.9765954984990872  1.0000
  C   C48       1.0  0.5016224997494588  0.022569108166266  0.0210737363360423  1.0000
  C   C49       1.0  0.31296764202002686  0.5968545183340837  0.8176737837444533  1.0000
  C   C50       1.0  0.7087116558119321  0.4202050586247524  0.18073276744205913  1.0000
  C   C51       1.0  0.8129488890924037  0.903141282685752  0.6823312605973514  1.0000
  C   C52       1.0  0.20871589416925926  0.0797786754694911  0.3192809719801772  1.0000
  C   C53       1.0  0.6730990231962932  0.6564845261968983  0.023714699503251797  1.0000
  C   C54       1.0  0.8317170083338894  0.6646518715380482  0.06982208317267441  1.0000
  C   C55       1.0  0.7955446800854773  0.7266240198671455  0.11697375622603093  1.0000
  C   C56       1.0  0.2951105896852723  0.34911598316083564  0.960361834703022  1.0000
  C   C57       1.0  0.30899691948174274  0.2733007243550887  0.9524902256042296  1.0000
  C   C58       1.0  0.2689711734134476  0.23738360415588744  0.8912543672674786  1.0000
  C   C59       1.0  0.17312561756560288  0.8435349534449657  0.47629333215174796  1.0000
  C   C60       1.0  0.3317491751845408  0.8353644123585157  0.4301820574438723  1.0000
  C   C61       1.0  0.2955425655238457  0.7733891927873631  0.3830356665277249  1.0000
  C   C62       1.0  0.795137359061613  0.15090411134102058  0.5396291505473982  1.0000
  C   C63       1.0  0.8090216330696975  0.22671543550796966  0.5475064553132682  1.0000
  C   C64       1.0  0.7689874965325743  0.2626293605904237  0.6087450995532394  1.0000
  O   O1        1.0  0.7080297084718906  0.1900131810674281  0.29897713458102265  1.0000
  O   O2        1.0  0.2860983248455539  0.8076905018903489  0.696424133307936  1.0000
  O   O3        1.0  0.2080579351569867  0.30996168624378123  0.20100023151785962  1.0000
  O   O4        1.0  0.7861128376945885  0.6923021498708692  0.8035705437092986  1.0000
  O   O5        1.0  0.3688473730220494  0.1845075157073879  0.18638142776152483  1.0000
  O   O6        1.0  0.627752534777116  0.8157370457482428  0.8136919066761266  1.0000
  O   O7        1.0  0.8688152269352328  0.31547195915962334  0.3136258609816096  1.0000
  O   O8        1.0  0.12777127217251658  0.6842582091460869  0.686308330076635  1.0000
  O   O9        1.0  0.37108293425819033  0.2029894966291366  0.30475274177111805  1.0000
  O   O10       1.0  0.6232747876289579  0.7973879415922412  0.6963662485035017  1.0000
  O   O11       1.0  0.871113244143345  0.29701549974988245  0.1952504341730261  1.0000
  O   O12       1.0  0.12328044931916789  0.7025940113975153  0.8036253291257084  1.0000
  O   O13       1.0  0.20884951026170026  0.323402817119721  0.31383776963702564  1.0000
  O   O14       1.0  0.788697383159395  0.6763356782130927  0.6889650903694859  1.0000
  O   O15       1.0  0.708875299397988  0.17659576930913803  0.186142612144728  1.0000
  O   O16       1.0  0.28868071584049193  0.8236549073653237  0.811037518279001  1.0000
  O   O17       1.0  0.5462907906733745  0.2901797626025839  0.2530133081224974  1.0000
  O   O18       1.0  0.45138169491983854  0.7092634299979252  0.7468740394672081  1.0000
  O   O19       1.0  0.04629493533364129  0.20981624850745106  0.2469822389263783  1.0000
  O   O20       1.0  0.9513774773770364  0.7907336521026238  0.7531197978523707  1.0000
  O   O21       1.0  0.30795768439250537  0.573204841566465  0.7667157895782211  1.0000
  O   O22       1.0  0.46924256675566767  0.6294179752552651  0.8456402774138213  1.0000
  O   O23       1.0  0.7375406772780336  0.4276251744175569  0.2316231012192489  1.0000
  O   O24       1.0  0.52487577861951  0.4259104498899405  0.15850738731003844  1.0000
  O   O25       1.0  0.8079476272247417  0.926786883581329  0.7332887894513433  1.0000
  O   O26       1.0  0.9692280689616124  0.8705809048242302  0.6543627100321316  1.0000
  O   O27       1.0  0.23750889446476006  0.07238951026235439  0.2683897886418123  1.0000
  O   O28       1.0  0.024916542926092695  0.0740070844689811  0.3415077319854802  1.0000
  O   O29       1.0  0.7046993458925073  0.5956121534763028  0.9812717390652779  1.0000
  O   O30       1.0  0.33377664044294153  0.38208698326531026  0.018833749352566504  1.0000
  O   O31       1.0  0.20474210794336756  0.9044139399958623  0.5187356684494233  1.0000
  O   O32       1.0  0.83381339351574  0.1179483417522889  0.48115816335872813  1.0000
