data_image0
_chemical_formula_structural       Al8H96C176O40
_chemical_formula_sum              "Al8 H96 C176 O40"
_cell_length_a       13.15594824878248
_cell_length_b       15.849053358603118
_cell_length_c       30.17670960097565
_cell_angle_alpha    89.9134322806212
_cell_angle_beta     88.99449132669203
_cell_angle_gamma    88.41154467415528

_space_group_name_H-M_alt    "P 1"
_space_group_IT_number       1

loop_
  _space_group_symop_operation_xyz
  'x, y, z'

loop_
  _atom_site_type_symbol
  _atom_site_label
  _atom_site_symmetry_multiplicity
  _atom_site_fract_x
  _atom_site_fract_y
  _atom_site_fract_z
  _atom_site_occupancy
  Al  Al1       1.0  0.8681536831384306  0.998211672493866  0.2505150151735621  1.0000
  Al  Al2       1.0  0.630255746303426  0.002981995739453699  0.7492428765010575  1.0000
  Al  Al3       1.0  0.8799710396947376  0.00044913817239939985  0.7503968716758254  1.0000
  Al  Al4       1.0  0.6182825120439047  0.9970620997659618  0.24969511608231448  1.0000
  Al  Al5       1.0  0.3686231332405041  0.9991908199258999  0.25047726284078925  1.0000
  Al  Al6       1.0  0.12981263206553  0.997329587512787  0.7493647106557265  1.0000
  Al  Al7       1.0  0.38001264194750206  0.999978382464448  0.7487970702537299  1.0000
  Al  Al8       1.0  0.11875355490337819  0.0003970994060579999  0.24906305092051895  1.0000
  H   H1        1.0  0.737036616151343  0.03356982049479029  0.30441161756098023  1.0000
  H   H2        1.0  0.7557601204556404  0.7145974291780419  0.040497912310982515  1.0000
  H   H3        1.0  0.746932271049303  0.4998252933619653  0.15281696905792339  1.0000
  H   H4        1.0  0.7603891353816579  0.9684393475378951  0.6951447902192032  1.0000
  H   H5        1.0  0.7552758361843458  0.714659066166689  0.9591607447816632  1.0000
  H   H6        1.0  0.749285233131161  0.49992033080422954  0.8472628140484492  1.0000
  H   H7        1.0  0.7376873071182287  0.2853242314106409  0.959599777025993  1.0000
  H   H8        1.0  0.7361853083064529  0.28534713203581663  0.040887573148580714  1.0000
  H   H9        1.0  0.0028289080919278987  0.033382046617354895  0.8044033277607741  1.0000
  H   H10       1.0  0.0035171383027901  0.7153649514129226  0.5394531809539558  1.0000
  H   H11       1.0  0.002516535970705992  0.5012146842725896  0.6522711178440093  1.0000
  H   H12       1.0  0.9913959348490023  0.029912847361757092  0.1935204513138943  1.0000
  H   H13       1.0  0.0005650444763602934  0.7147965052176983  0.4582186777998062  1.0000
  H   H14       1.0  0.9914792445445851  0.4990903629369966  0.346826007136599  1.0000
  H   H15       1.0  0.9875236329074325  0.285213329180351  0.4596933567702879  1.0000
  H   H16       1.0  0.9914886212851853  0.2857281490699465  0.5409128020211399  1.0000
  H   H17       1.0  0.8432963227334721  0.6987326391360537  0.3984409875174465  1.0000
  H   H18       1.0  0.8471018581035917  0.8286907166868573  0.35124338717378845  1.0000
  H   H19       1.0  0.6467971766805647  0.6288373946684372  0.3509411250486566  1.0000
  H   H20       1.0  0.6470959905389007  0.7617693679911424  0.3061565329355177  1.0000
  H   H21       1.0  0.9049631014551096  0.7648062775506331  0.18858035093843747  1.0000
  H   H22       1.0  0.598498824485887  0.8265522798529399  0.15094043754533001  1.0000
  H   H23       1.0  0.5967304773935352  0.6968179352439416  0.10380968951473334  1.0000
  H   H24       1.0  0.902088291600961  0.6324610966210499  0.14350443741712846  1.0000
  H   H25       1.0  0.8931807242957814  0.17144262837162927  0.14764458225631935  1.0000
  H   H26       1.0  0.8962380169991702  0.3020513714033583  0.10133736860304053  1.0000
  H   H27       1.0  0.5914023344275987  0.3673083376529717  0.14589261516383095  1.0000
  H   H28       1.0  0.5871909013633213  0.23427341760064016  0.19033232699104027  1.0000
  H   H29       1.0  0.643065960931132  0.1681955780587784  0.3513259559798883  1.0000
  H   H30       1.0  0.8397594384808825  0.36983667944820536  0.3551232494616842  1.0000
  H   H31       1.0  0.8337826910653019  0.237026793800993  0.3108410759393224  1.0000
  H   H32       1.0  0.6473022590241582  0.29843692015650436  0.397465676441705  1.0000
  H   H33       1.0  0.6689205917080158  0.7687168476375061  0.6865529137996023  1.0000
  H   H34       1.0  0.8552328757409099  0.8303987570810276  0.6491678075609715  1.0000
  H   H35       1.0  0.6648540465153514  0.6352126592598989  0.6426339922791231  1.0000
  H   H36       1.0  0.8506036400802442  0.7009451923519945  0.6024224243355436  1.0000
  H   H37       1.0  0.8543286546359992  0.3711373754984065  0.6501925426731818  1.0000
  H   H38       1.0  0.8537866559866243  0.23815617323336363  0.6948643895887872  1.0000
  H   H39       1.0  0.6557807101323121  0.17642878007020354  0.6520403371417703  1.0000
  H   H40       1.0  0.6621904527576346  0.30752046756766294  0.6057307651781516  1.0000
  H   H41       1.0  0.8976069138484133  0.16971060899268758  0.8538862850473666  1.0000
  H   H42       1.0  0.8974034659856897  0.2998640778654788  0.9003814097652385  1.0000
  H   H43       1.0  0.5988151920399358  0.23728976026901444  0.808234872898915  1.0000
  H   H44       1.0  0.6001504220511362  0.37024784260952964  0.8527893219994173  1.0000
  H   H45       1.0  0.6009290605512801  0.8284917124921021  0.8519989691142131  1.0000
  H   H46       1.0  0.9060431143816386  0.7639945902007951  0.8088112528307935  1.0000
  H   H47       1.0  0.9012588502654635  0.6310871349372743  0.8535101149040618  1.0000
  H   H48       1.0  0.5975370766855477  0.6985298977601814  0.8987476761131535  1.0000
  H   H49       1.0  0.2417636886175741  0.9655478123877328  0.30449328643070583  1.0000
  H   H50       1.0  0.2627080200095548  0.7148611205605772  0.038599766934211716  1.0000
  H   H51       1.0  0.2520844312939872  0.5022854103554477  0.15196256505888073  1.0000
  H   H52       1.0  0.25322109179683133  0.03541005102601959  0.694736638935183  1.0000
  H   H53       1.0  0.26450020428089965  0.7134110947192338  0.9572922763408802  1.0000
  H   H54       1.0  0.25588111875408964  0.4967350715832166  0.8463479475108644  1.0000
  H   H55       1.0  0.24590736528876525  0.28409625433589974  0.9597425677491391  1.0000
  H   H56       1.0  0.24543959282956956  0.2854977132888052  0.04100740992998202  1.0000
  H   H57       1.0  0.505739401636326  0.9657018904739728  0.8035567697468057  1.0000
  H   H58       1.0  0.5181632034906442  0.7155204982781099  0.5386282497443705  1.0000
  H   H59       1.0  0.5123816544648818  0.5042684471157058  0.6528106445883285  1.0000
  H   H60       1.0  0.4928437085674488  0.03434827919384279  0.19535142499268696  1.0000
  H   H61       1.0  0.5125143368118542  0.7131840090262285  0.45738872676192716  1.0000
  H   H62       1.0  0.49192465743862346  0.4956769407367928  0.34764844689511437  1.0000
  H   H63       1.0  0.49629181308758047  0.28377501212182193  0.4616758899919447  1.0000
  H   H64       1.0  0.5018058017993  0.2862118598078779  0.5428988122358194  1.0000
  H   H65       1.0  0.34638218402955795  0.6948956149025844  0.4007392530340754  1.0000
  H   H66       1.0  0.34503643280802265  0.8249930259103164  0.353974939915851  1.0000
  H   H67       1.0  0.14514973320629568  0.6286083028528606  0.3517991161871522  1.0000
  H   H68       1.0  0.15032711810013666  0.7609407832126535  0.3067069679106283  1.0000
  H   H69       1.0  0.40427542289935997  0.7663376515603985  0.18901602184823937  1.0000
  H   H70       1.0  0.10149886395697647  0.8295036986032893  0.14693291483079218  1.0000
  H   H71       1.0  0.10221005103641546  0.6994171886688605  0.09998944166547832  1.0000
  H   H72       1.0  0.4034786945450576  0.6334622744132686  0.14439704603759657  1.0000
  H   H73       1.0  0.39580567467953637  0.17029035383309574  0.14676472720481126  1.0000
  H   H74       1.0  0.40097164680624775  0.30028879918801715  0.10024786912916284  1.0000
  H   H75       1.0  0.10044979717423527  0.3729129402403259  0.14754513236459138  1.0000
  H   H76       1.0  0.09374231698787129  0.24018155189726528  0.19214535320239895  1.0000
  H   H77       1.0  0.13685261536500798  0.16877127826370497  0.35078298311356104  1.0000
  H   H78       1.0  0.34185918305345797  0.36448844730162466  0.3585566476111454  1.0000
  H   H79       1.0  0.3366461966815066  0.23150374710859714  0.3141782535492298  1.0000
  H   H80       1.0  0.1413747225689193  0.2991085326674038  0.3973273625686674  1.0000
  H   H81       1.0  0.15877120430380387  0.7625914390633781  0.6886925255235216  1.0000
  H   H82       1.0  0.36398810099323947  0.8324089908955229  0.6474856866630463  1.0000
  H   H83       1.0  0.1529301105491925  0.6303572650210683  0.6437653197507206  1.0000
  H   H84       1.0  0.36103250235242246  0.7011306142796411  0.6014581776825383  1.0000
  H   H85       1.0  0.35157232459126664  0.36893836324595947  0.643240994395214  1.0000
  H   H86       1.0  0.3444467853037948  0.2358396207983801  0.6877095177886121  1.0000
  H   H87       1.0  0.15229271864107827  0.1711590619100462  0.6442030608994715  1.0000
  H   H88       1.0  0.1510842450929388  0.3012892948612559  0.5974777612963466  1.0000
  H   H89       1.0  0.39917026099895725  0.16855486763894584  0.8491480589250603  1.0000
  H   H90       1.0  0.40394329761160447  0.29875514740109566  0.8958162029862042  1.0000
  H   H91       1.0  0.09339242911826055  0.23385574598714945  0.8119027416554447  1.0000
  H   H92       1.0  0.09909627575039076  0.36621365223968627  0.8565946352173771  1.0000
  H   H93       1.0  0.11014179978093346  0.8266869740975478  0.8507102741689042  1.0000
  H   H94       1.0  0.41329886291294565  0.7597655446161651  0.8057079689204304  1.0000
  H   H95       1.0  0.40921156149371984  0.6275953044419749  0.8508333422628387  1.0000
  H   H96       1.0  0.10762065638482445  0.6970609215072301  0.8980697035836447  1.0000
  C   C1        1.0  0.7533411618075405  0.8812112462103909  0.19974314838584217  1.0000
  C   C2        1.0  0.7518910576528695  0.6552274014737518  0.022523822343181607  1.0000
  C   C3        1.0  0.7470563054212959  0.4999435281222942  0.02372696230552411  1.0000
  C   C4        1.0  0.7477412603070447  0.5770807250588629  0.09425573857467383  1.0000
  C   C5        1.0  0.7479498160977798  0.5782532759141076  0.04732697042133792  1.0000
  C   C6        1.0  0.7469552443394958  0.4998260075125314  0.11665313983836265  1.0000
  C   C7        1.0  0.8377243140546752  0.7488459223985369  0.17008343852727145  1.0000
  C   C8        1.0  0.8357567620107458  0.6753409519602654  0.14492156720613286  1.0000
  C   C9        1.0  0.6642263065094836  0.7116623270410185  0.12247581052025686  1.0000
  C   C10       1.0  0.6649990302186595  0.7841206713450002  0.14847615354200636  1.0000
  C   C11       1.0  0.7573942794296613  0.882795494395097  0.8005522039447117  1.0000
  C   C12       1.0  0.7516477260150792  0.6552611950492631  0.9772845136152459  1.0000
  C   C13       1.0  0.7473581081113279  0.4999560650447561  0.9763536790617171  1.0000
  C   C14       1.0  0.7477743284090363  0.5772049954286371  0.9057056942105819  1.0000
  C   C15       1.0  0.7478360825760786  0.5783180108413715  0.9526385698226254  1.0000
  C   C16       1.0  0.7485806095960256  0.49995684095014054  0.8834278931391001  1.0000
  C   C17       1.0  0.7475208876489104  0.11798404132004947  0.8008264916015267  1.0000
  C   C18       1.0  0.7419625609933931  0.34468732675289704  0.9775607993902615  1.0000
  C   C19       1.0  0.7486983460482575  0.42272991580163916  0.9058434905416921  1.0000
  C   C20       1.0  0.7472124168757047  0.42160846102944294  0.9527780905646853  1.0000
  C   C21       1.0  0.748045865388718  0.19566600983900875  0.8284673757112986  1.0000
  C   C22       1.0  0.7486645431501487  0.3436939157179564  0.8796327566108038  1.0000
  C   C23       1.0  0.7539312087899644  0.8043201744166595  0.8278342066220791  1.0000
  C   C24       1.0  0.8385624389538079  0.7485503000807369  0.8283212767954995  1.0000
  C   C25       1.0  0.8356254471070981  0.6747416270264565  0.8533316288772571  1.0000
  C   C26       1.0  0.749348791947497  0.6562173423035061  0.8792729187978455  1.0000
  C   C27       1.0  0.6650734795624869  0.7126670133706623  0.8788935934652432  1.0000
  C   C28       1.0  0.6668311778311986  0.7853799859687313  0.85295072897619  1.0000
  C   C29       1.0  0.7373931949801075  0.11619335831323237  0.19878761422013017  1.0000
  C   C30       1.0  0.7411225865165676  0.3446983225964144  0.022798152452885707  1.0000
  C   C31       1.0  0.7460396363024984  0.4226674458300437  0.09433320381421592  1.0000
  C   C32       1.0  0.7457893541876003  0.42159987002744254  0.04742295503044151  1.0000
  C   C33       1.0  0.7397837132105209  0.1945960685604077  0.17146986256364025  1.0000
  C   C34       1.0  0.6547230715600701  0.24992915349302786  0.170890007611476  1.0000
  C   C35       1.0  0.6573828513308438  0.3240275193936241  0.14609729866640467  1.0000
  C   C36       1.0  0.743972590115021  0.34340136589427317  0.12054993509917013  1.0000
  C   C37       1.0  0.8285593259004072  0.2872786591707949  0.12095709459018883  1.0000
  C   C38       1.0  0.8269981447485647  0.21423307735137334  0.14660575927128866  1.0000
  C   C39       1.0  0.7521468680017519  0.803493282109009  0.17211971318511135  1.0000
  C   C40       1.0  0.7493602170487604  0.6561154915441065  0.12056427143245685  1.0000
  C   C41       1.0  0.664084265481925  0.25212514097323435  0.8282589370086914  1.0000
  C   C42       1.0  0.665129144888226  0.32593876840633834  0.8531519743797136  1.0000
  C   C43       1.0  0.832055402886567  0.2862980565911498  0.8800623781162289  1.0000
  C   C44       1.0  0.8323444996896115  0.21357524765078034  0.8542711077214665  1.0000
  C   C45       1.0  0.0106767602033102  0.8821740041128759  0.6990419616117624  1.0000
  C   C46       1.0  0.9997087246841189  0.6557717993747189  0.5216728026406019  1.0000
  C   C47       1.0  0.9971157742659925  0.5004039963977077  0.5232520739780995  1.0000
  C   C48       1.0  0.9992907348148204  0.5781099512108412  0.5936121813308974  1.0000
  C   C49       1.0  0.9975745159737526  0.578959916167541  0.5466746413049749  1.0000
  C   C50       1.0  0.001117366811847396  0.5009805578348717  0.616130031913187  1.0000
  C   C51       1.0  0.00754952500234649  0.8045374171596933  0.6714333655778335  1.0000
  C   C52       1.0  0.6018079453534427  0.7531434342029328  0.6678810867993195  1.0000
  C   C53       1.0  0.5992205868159315  0.6788550719463086  0.64342348105194  1.0000
  C   C54       1.0  0.5128965532704086  0.6595980547784418  0.6190514011804924  1.0000
  C   C55       1.0  0.9181779320730995  0.7143308690491564  0.6213488678539181  1.0000
  C   C56       1.0  0.9205938382582558  0.7867337102799536  0.6473130575643753  1.0000
  C   C57       1.0  0.0019877102204901896  0.881368178261546  0.29965647292653597  1.0000
  C   C58       1.0  0.9981113697117789  0.6554463272355803  0.4764461744281976  1.0000
  C   C59       1.0  0.9952704409587766  0.5000629302199754  0.4758843260828984  1.0000
  C   C60       1.0  0.9927991016836373  0.5767020705068829  0.405085428883048  1.0000
  C   C61       1.0  0.9942167654412513  0.5782575875760328  0.4520045276718039  1.0000
  C   C62       1.0  0.9923865904353875  0.4993004908714409  0.3829828329775965  1.0000
  C   C63       1.0  0.9943565652957673  0.6554247183419403  0.3784263429618805  1.0000
  C   C64       1.0  0.9822136518604195  0.11623162978818156  0.3013813961404141  1.0000
  C   C65       1.0  0.9920524999127024  0.3447430829841735  0.47746738463816757  1.0000
  C   C66       1.0  0.9932030284754062  0.42220990828381844  0.4055357640684819  1.0000
  C   C67       1.0  0.9946198496162422  0.42151521069660447  0.45247019049745785  1.0000
  C   C68       1.0  0.9994800894302145  0.8030768976013433  0.32689632183588213  1.0000
  C   C69       1.0  0.5812354952756421  0.745920435092138  0.32661140759285007  1.0000
  C   C70       1.0  0.5807736229439583  0.6720720552572954  0.3516225913820251  1.0000
  C   C71       1.0  0.9105923073396409  0.7124405588125312  0.3783306117041364  1.0000
  C   C72       1.0  0.9124809053598282  0.7850121529496615  0.3523172569357557  1.0000
  C   C73       1.0  0.0012298930042077996  0.11795335855281046  0.6993376905839599  1.0000
  C   C74       1.0  0.9941935817909666  0.3450407970053958  0.5226759243990673  1.0000
  C   C75       1.0  0.0013567512890517962  0.42356763256595537  0.5940224190028263  1.0000
  C   C76       1.0  0.9987781333331184  0.4221714834321444  0.5471126281789441  1.0000
  C   C77       1.0  0.49961944164400046  0.19825255573604741  0.6721731678230045  1.0000
  C   C78       1.0  0.9189136437057072  0.2531536635742667  0.6737613479170578  1.0000
  C   C79       1.0  0.9194589684202084  0.326984372818714  0.6487399243172123  1.0000
  C   C80       1.0  0.002410763103455299  0.34477372696890984  0.6206200041659573  1.0000
  C   C81       1.0  0.5927226857698996  0.2918767955207213  0.6238667800051019  1.0000
  C   C82       1.0  0.5893972484827684  0.21870873432147417  0.6493545025258671  1.0000
  C   C83       1.0  0.48940430422786807  0.19186683568157997  0.33014432506057306  1.0000
  C   C84       1.0  0.9009882920467119  0.2513901856063398  0.32975138224104955  1.0000
  C   C85       1.0  0.9046046681688508  0.3253496956664462  0.35447171554318413  1.0000
  C   C86       1.0  0.9906616088915072  0.3430267708516154  0.379428978127237  1.0000
  C   C87       1.0  0.5791676277844215  0.28389797917198917  0.37916644465902766  1.0000
  C   C88       1.0  0.5769564553523735  0.21103623308960803  0.3535406962276469  1.0000
  C   C89       1.0  0.2534319195464717  0.8839067604262706  0.19798347791993365  1.0000
  C   C90       1.0  0.2590870778208583  0.6551666383611517  0.020912647385593206  1.0000
  C   C91       1.0  0.2543273350019106  0.499897218051565  0.022855503961601208  1.0000
  C   C92       1.0  0.2529483262648498  0.5784173475207409  0.09303493809022002  1.0000
  C   C93       1.0  0.25439019872863605  0.5786728022701408  0.046080799602080405  1.0000
  C   C94       1.0  0.2527061156327761  0.5015457454689807  0.11580396948985344  1.0000
  C   C95       1.0  0.3382568222970049  0.7505964271032821  0.16966119720202505  1.0000
  C   C96       1.0  0.33755549999846574  0.6768295240805884  0.14468130430824291  1.0000
  C   C97       1.0  0.16836877284939075  0.7139932049448985  0.11961150900489775  1.0000
  C   C98       1.0  0.16776130494969266  0.7866667612695151  0.14553451057081196  1.0000
  C   C99       1.0  0.2640599729600837  0.879465807645033  0.7983567842286167  1.0000
  C   C100      1.0  0.26008087011907577  0.6543287809015297  0.9756604964340813  1.0000
  C   C101      1.0  0.25493687530475023  0.4990494448251396  0.9754540008648154  1.0000
  C   C102      1.0  0.2564584577911048  0.5750663422226266  0.9044133787848954  1.0000
  C   C103      1.0  0.2561570116708011  0.5769702362766862  0.9513593804295657  1.0000
  C   C104      1.0  0.2557784392548186  0.49741352205122513  0.8825145187591308  1.0000
  C   C105      1.0  0.24345441416945585  0.11467660336009536  0.8010881414127555  1.0000
  C   C106      1.0  0.24970750475953443  0.34381977790412316  0.9774060808481981  1.0000
  C   C107      1.0  0.254519445933731  0.42057534838629346  0.905293682885443  1.0000
  C   C108      1.0  0.254095010587413  0.4203123447137712  0.952233024313742  1.0000
  C   C109      1.0  0.24567898694768076  0.19295512641765097  0.8283472980339401  1.0000
  C   C110      1.0  0.25165899860438395  0.3411125692334948  0.8793476409472023  1.0000
  C   C111      1.0  0.26225640678432427  0.8013818481340919  0.82586528013772  1.0000
  C   C112      1.0  0.34650410433545886  0.7452093034466004  0.825886712845254  1.0000
  C   C113      1.0  0.3439090983125439  0.6715880856355766  0.851098414853077  1.0000
  C   C114      1.0  0.25837890644819345  0.6537549207969772  0.8776792795699182  1.0000
  C   C115      1.0  0.17453376490984598  0.7107354008110105  0.877712775116692  1.0000
  C   C116      1.0  0.17573912679825546  0.7831857995373068  0.8515834955449579  1.0000
  C   C117      1.0  0.2400042495084661  0.1188394793202789  0.19948065695435  1.0000
  C   C118      1.0  0.24947731706718906  0.3446021088586732  0.022651062111847912  1.0000
  C   C119      1.0  0.2531765359329298  0.4238866409108438  0.09390154717247164  1.0000
  C   C120      1.0  0.2534578121271096  0.42194929330823766  0.04695208161788141  1.0000
  C   C121      1.0  0.24398104509587168  0.19684017611962892  0.17193128000428007  1.0000
  C   C122      1.0  0.16084870684918676  0.25417160995053917  0.17205378479464176  1.0000
  C   C123      1.0  0.16492050207373407  0.32805604518862436  0.14713503417902277  1.0000
  C   C124      1.0  0.25075675081465926  0.3451936357085683  0.12059575705951894  1.0000
  C   C125      1.0  0.33362632865236447  0.28721648407361033  0.12045324180089526  1.0000
  C   C126      1.0  0.33084722882515644  0.21444668790405064  0.1463039473425597  1.0000
  C   C127      1.0  0.25309354313115756  0.8058283978877723  0.17042563164059746  1.0000
  C   C128      1.0  0.25302111402590544  0.6578548061570969  0.11905518047910854  1.0000
  C   C129      1.0  0.1611175259955998  0.24873046062955945  0.8303453776089643  1.0000
  C   C130      1.0  0.16464607763481343  0.322498700608726  0.8552405106550938  1.0000
  C   C131      1.0  0.335832470365517  0.28454948772549926  0.8774128084123024  1.0000
  C   C132      1.0  0.33343689687921335  0.21179063047870972  0.8516946213664058  1.0000
  C   C133      1.0  0.5179612506985976  0.8866001932456128  0.6965930395056648  1.0000
  C   C134      1.0  0.5123725859332211  0.6556914933792723  0.521237978146438  1.0000
  C   C135      1.0  0.507178667301936  0.5004756606933326  0.5237809585591651  1.0000
  C   C136      1.0  0.5108634690122074  0.5797458058414974  0.5935691797646998  1.0000
  C   C137      1.0  0.5091067073870262  0.5794659249467741  0.5466795479835087  1.0000
  C   C138      1.0  0.5114482734907853  0.5031992604382295  0.6166599837438513  1.0000
  C   C139      1.0  0.5168918219695157  0.808560300463547  0.669212455138599  1.0000
  C   C140      1.0  0.09149123190805845  0.7480658186001888  0.6698889596786943  1.0000
  C   C141      1.0  0.08789805504353858  0.6746144554640664  0.6447922693331665  1.0000
  C   C142      1.0  0.001700095484551387  0.6570857028351185  0.6198923144324981  1.0000
  C   C143      1.0  0.42849442567368345  0.7159888892158504  0.6201507285114902  1.0000
  C   C144      1.0  0.42987442571539686  0.7892419828201013  0.6454886478611146  1.0000
  C   C145      1.0  0.4970400021835885  0.8792900014119165  0.2998207271513281  1.0000
  C   C146      1.0  0.5092323091649289  0.6543775279509417  0.476056150939627  1.0000
  C   C147      1.0  0.5039570338323145  0.4990514232313642  0.4764866244152658  1.0000
  C   C148      1.0  0.4975428183303163  0.5743776077643329  0.40540796950051594  1.0000
  C   C149      1.0  0.5025265980981857  0.5767323141639621  0.4522055099523003  1.0000
  C   C150      1.0  0.4953667133633032  0.4966117468725313  0.38374606994383254  1.0000
  C   C151      1.0  0.496575589723946  0.6530762123726671  0.3787262806359309  1.0000
  C   C152      1.0  0.4867006604243753  0.11413432312289727  0.3024672551811492  1.0000
  C   C153      1.0  0.5005149213119394  0.343760518061913  0.4790483012481135  1.0000
  C   C154      1.0  0.49783405601613134  0.41992134472714315  0.4067104645858991  1.0000
  C   C155      1.0  0.50181222064176  0.42004158700566296  0.4535854133182726  1.0000
  C   C156      1.0  0.4961053002767315  0.8012313092284271  0.32734139386728617  1.0000
  C   C157      1.0  0.08339285696680317  0.7466004107591288  0.32685182587991346  1.0000
  C   C158      1.0  0.08018841256672718  0.6729476265739648  0.35197579523867983  1.0000
  C   C159      1.0  0.41202164993009655  0.7092770622501162  0.3797251907093583  1.0000
  C   C160      1.0  0.4111915991251536  0.7820562463217084  0.35381349224435626  1.0000
  C   C161      1.0  0.4966068742408963  0.12017426110432437  0.6995392074081653  1.0000
  C   C162      1.0  0.503449119220221  0.34512181694273636  0.5242452673589997  1.0000
  C   C163      1.0  0.5099900318311369  0.4254725528557869  0.5949739623256038  1.0000
  C   C164      1.0  0.5079197670041039  0.4229033136662678  0.5481229758228283  1.0000
  C   C165      1.0  0.002850559355230996  0.19659968102916275  0.6721443208119385  1.0000
  C   C166      1.0  0.4137594246959252  0.2523511647447306  0.6697828002151314  1.0000
  C   C167      1.0  0.4180754934032149  0.3264350462486972  0.6450585218179443  1.0000
  C   C168      1.0  0.5072647797985609  0.3467517740256908  0.621598638837071  1.0000
  C   C169      1.0  0.08604286791025119  0.28762422497067763  0.6189834012056326  1.0000
  C   C170      1.0  0.08686491112347028  0.21488038328300252  0.6449441786084693  1.0000
  C   C171      1.0  0.9846786307157273  0.19466354607862965  0.328563026169377  1.0000
  C   C172      1.0  0.40445208336414845  0.24721166742643408  0.332339275748808  1.0000
  C   C173      1.0  0.4077092675513824  0.32109163231778126  0.3571263961432366  1.0000
  C   C174      1.0  0.49479900364685375  0.34024897890375877  0.3810492613999515  1.0000
  C   C175      1.0  0.07398491414631539  0.2855473972929871  0.37829590965583304  1.0000
  C   C176      1.0  0.0716921326082343  0.2127159502449841  0.3526303384997221  1.0000
  O   O1        1.0  0.7416765304194254  0.9980521787412114  0.278274769965691  1.0000
  O   O2        1.0  0.8372387779317305  0.9002813765048924  0.2170153435183338  1.0000
  O   O3        1.0  0.7567612641789763  0.0029085623641761983  0.7216676620106175  1.0000
  O   O4        1.0  0.6744423329295155  0.9255789433297749  0.795712485431139  1.0000
  O   O5        1.0  0.8307432107904446  0.07494136747318686  0.7964936767728832  1.0000
  O   O6        1.0  0.8433778713831116  0.901873747634063  0.7840551278165367  1.0000
  O   O7        1.0  0.6512996292278216  0.09596760704238248  0.21507632689327502  1.0000
  O   O8        1.0  0.670197489616555  0.9238347994332655  0.20417012362305811  1.0000
  O   O9        1.0  0.8209189286486875  0.07478463126287235  0.2040327624244541  1.0000
  O   O10       1.0  0.6638921014792485  0.09953440847134937  0.7832690773207037  1.0000
  O   O11       1.0  0.0042889699095952  0.9980625330642421  0.7781768471235329  1.0000
  O   O12       1.0  0.6029912574579226  0.9063552781184822  0.7129691999548914  1.0000
  O   O13       1.0  0.9938186200054344  0.0014409043939736  0.221907531033466  1.0000
  O   O14       1.0  0.9190819962517977  0.9234292057442274  0.29524326043653565  1.0000
  O   O15       1.0  0.5699138949363557  0.0714218619663285  0.2970459993878905  1.0000
  O   O16       1.0  0.5816013732800441  0.8986706700918886  0.2821364387003912  1.0000
  O   O17       1.0  0.916312574352737  0.09939420247758328  0.7170186055917259  1.0000
  O   O18       1.0  0.9280845213864807  0.9257042366532953  0.704205104641112  1.0000
  O   O19       1.0  0.5799659645623831  0.07929571316039837  0.705024157652659  1.0000
  O   O20       1.0  0.8962614845600495  0.09596263818855276  0.2860264368455249  1.0000
  O   O21       1.0  0.2419919810688214  0.9998601152312074  0.27787370926550653  1.0000
  O   O22       1.0  0.3375393080872655  0.9023873532168307  0.21531747271605894  1.0000
  O   O23       1.0  0.2554999227205954  0.9997115710297066  0.7208474862954549  1.0000
  O   O24       1.0  0.18070454718596096  0.9207185963645653  0.793524669988962  1.0000
  O   O25       1.0  0.3265691289975692  0.07263825006005219  0.7957450001638764  1.0000
  O   O26       1.0  0.34965240588446267  0.900123331230503  0.7815519961641615  1.0000
  O   O27       1.0  0.1536172115687862  0.09877091576908724  0.2154689597572529  1.0000
  O   O28       1.0  0.17026644592434073  0.9267487243214062  0.20221593200053437  1.0000
  O   O29       1.0  0.3230343644173245  0.07716179636568647  0.2053369241317712  1.0000
  O   O30       1.0  0.15804517942247281  0.09498901806387747  0.7850402690978345  1.0000
  O   O31       1.0  0.504000428888247  0.0004157496451426998  0.7770892667804365  1.0000
  O   O32       1.0  0.09538399483626847  0.900397145259653  0.7156829198421807  1.0000
  O   O33       1.0  0.49417493844759963  0.0004607977045196998  0.2220872276364291  1.0000
  O   O34       1.0  0.41370702724802294  0.9218347809894495  0.29574365627966887  1.0000
  O   O35       1.0  0.06565414958394909  0.07495170090402326  0.29543322094700397  1.0000
  O   O36       1.0  0.08752980993274659  0.9014595372363914  0.2826364486439631  1.0000
  O   O37       1.0  0.4104735653075052  0.09936213798314947  0.7157156774097261  1.0000
  O   O38       1.0  0.4343598686802819  0.9280041905067475  0.7018542624963904  1.0000
  O   O39       1.0  0.08415039739981718  0.07452935651956238  0.7029328139689571  1.0000
  O   O40       1.0  0.4017142635516889  0.0956681402338191  0.28610235750772983  1.0000
