data_image0
_chemical_formula_structural       Al6H68C85N2O33
_chemical_formula_sum              "Al6 H68 C85 N2 O33"
_cell_length_a       12.707302368873947
_cell_length_b       12.88876977314533
_cell_length_c       28.44074800125606
_cell_angle_alpha    91.0019847541773
_cell_angle_beta     90.429089552406
_cell_angle_gamma    60.3094941758465

_space_group_name_H-M_alt    "P 1"
_space_group_IT_number       1

loop_
  _space_group_symop_operation_xyz
  'x, y, z'

loop_
  _atom_site_type_symbol
  _atom_site_label
  _atom_site_symmetry_multiplicity
  _atom_site_fract_x
  _atom_site_fract_y
  _atom_site_fract_z
  _atom_site_occupancy
  Al  Al1       1.0  0.5922389836015969  0.5844212629047618  0.499840151850492  1.0000
  Al  Al2       1.0  0.5824544664298517  0.3398939062595048  0.4988368142091133  1.0000
  Al  Al3       1.0  0.3464237411054469  0.5702182140901044  0.5001660253367176  1.0000
  Al  Al4       1.0  0.0735882254438636  0.07981783413182342  0.002821385065345799  1.0000
  Al  Al5       1.0  0.32446024825060965  0.0835690240746843  0.0010825750248670998  1.0000
  Al  Al6       1.0  0.09261889597588889  0.31855307457371407  0.9988469349701176  1.0000
  H   H1        1.0  0.5477317674988172  0.1855962909620459  0.7799276961871511  1.0000
  H   H2        1.0  0.42675614435160714  0.12233185054660115  0.710059989091711  1.0000
  H   H3        1.0  0.47625505752345987  0.4023518067821926  0.732919882064941  1.0000
  H   H4        1.0  0.26069443914610696  0.5152227404389081  0.7875151948741106  1.0000
  H   H5        1.0  0.1413800363054917  0.45171671264863306  0.717447929446834  1.0000
  H   H6        1.0  0.21418315772844204  0.23352999934631677  0.7640312942895021  1.0000
  H   H7        1.0  0.2785499199625506  0.6925798664791502  0.8083495952235822  1.0000
  H   H8        1.0  0.272427607592725  0.668520696854479  0.7264366682192145  1.0000
  H   H9        1.0  0.14818834695897443  0.8791021279537434  0.713815466103348  1.0000
  H   H10       1.0  0.14220870652101775  0.9185616747774504  0.7948056369229873  1.0000
  H   H11       1.0  0.2118465860677716  0.006491420303461802  0.7851064652789717  1.0000
  H   H12       1.0  0.5352416730507271  0.7170329869357348  0.7165402579148716  1.0000
  H   H13       1.0  0.45464585872210245  0.8713342825505067  0.7054228923606515  1.0000
  H   H14       1.0  0.5304556768084439  0.763819839908493  0.7969237728379496  1.0000
  H   H15       1.0  0.43177480181777367  0.5983737119224842  0.7250442562638426  1.0000
  H   H16       1.0  0.437371944593508  0.6292978220018669  0.8062287844284979  1.0000
  H   H17       1.0  0.43456546667452745  0.9173325876822677  0.7858300268126897  1.0000
  H   H18       1.0  0.7752227016015995  0.5208302687236214  0.7918180490077376  1.0000
  H   H19       1.0  0.7303323593627411  0.5302646193939822  0.7113099471558257  1.0000
  H   H20       1.0  0.007411027724039253  0.23278405705667649  0.6953841721539786  1.0000
  H   H21       1.0  0.9516872023653064  0.38771474864356753  0.7004237672963852  1.0000
  H   H22       1.0  0.9967650753554766  0.36398125408943827  0.7809054744433579  1.0000
  H   H23       1.0  0.03767099277789748  0.21170909073755692  0.7771231235387004  1.0000
  H   H24       1.0  0.7054422556387578  0.25239667703196034  0.7167957191040628  1.0000
  H   H25       1.0  0.86160628120264  0.15193614865135172  0.70959351118033  1.0000
  H   H26       1.0  0.7288363295478535  0.2562144967819151  0.7986310348791787  1.0000
  H   H27       1.0  0.6295963927120098  0.4758731373501279  0.7213522521311332  1.0000
  H   H28       1.0  0.6661561257519112  0.4770064305413301  0.8023418731170364  1.0000
  H   H29       1.0  0.8827051522837907  0.1475661616026755  0.7918704418088893  1.0000
  H   H30       1.0  0.18497525542355214  0.5124113726635002  0.20704750951802  1.0000
  H   H31       1.0  0.200554577399963  0.5229455833402881  0.28889886303933565  1.0000
  H   H32       1.0  0.29641059676122683  0.1954802831064626  0.2950038918792544  1.0000
  H   H33       1.0  0.16916105973955797  0.34075131147640303  0.299728778539368  1.0000
  H   H34       1.0  0.14594631747559098  0.34941028913276284  0.21762207809415196  1.0000
  H   H35       1.0  0.264530692213377  0.19854901315698473  0.21439068934207475  1.0000
  H   H36       1.0  0.5264193460861792  0.2917441358144401  0.2800988017543204  1.0000
  H   H37       1.0  0.5078813873770686  0.16643812059192706  0.2894225670562704  1.0000
  H   H38       1.0  0.5184601050336825  0.2600021206847032  0.1994680006576317  1.0000
  H   H39       1.0  0.35002168292361807  0.4980270527336402  0.2821574719431581  1.0000
  H   H40       1.0  0.4759045401217038  0.15059849244644144  0.20902673722053314  1.0000
  H   H41       1.0  0.5235289896695433  0.728217278166561  0.20466439266910894  1.0000
  H   H42       1.0  0.5306060526194684  0.6999514715330337  0.2867942661729542  1.0000
  H   H43       1.0  0.2640173070137166  0.9979702691103187  0.3110771661977054  1.0000
  H   H44       1.0  0.4233630852414407  0.9149052658416396  0.3069709028466789  1.0000
  H   H45       1.0  0.244837520552899  0.0385055915277448  0.2319795899089954  1.0000
  H   H46       1.0  0.21841236379398776  0.7374273899180184  0.2787951173543775  1.0000
  H   H47       1.0  0.1414610829919879  0.8904597265976337  0.2942832082950986  1.0000
  H   H48       1.0  0.20651473968660367  0.788670355858564  0.19913205679657858  1.0000
  H   H49       1.0  0.4518386204896741  0.6210842402621851  0.2769214022636888  1.0000
  H   H50       1.0  0.42911275981134617  0.6662326545507186  0.19729260042336697  1.0000
  H   H51       1.0  0.13480724831809698  0.9411893821185872  0.21513943140181618  1.0000
  H   H52       1.0  0.7506473950482118  0.2524980580482108  0.19585292953406247  1.0000
  H   H53       1.0  0.7210572514751377  0.24878431022010974  0.2768463259513395  1.0000
  H   H54       1.0  0.01993870211641279  0.22746189021437857  0.3020013862170146  1.0000
  H   H55       1.0  0.9458392565580453  0.14357319692223314  0.2928092488473126  1.0000
  H   H56       1.0  0.973747777553612  0.14246273840289805  0.21135464842537735  1.0000
  H   H57       1.0  0.053847946746081704  0.22021801900869062  0.22078196381368537  1.0000
  H   H58       1.0  0.7407466160032075  0.5273925628885223  0.2921407576213041  1.0000
  H   H59       1.0  0.8976147026822119  0.45517125232455413  0.3033525848441981  1.0000
  H   H60       1.0  0.7796348435166607  0.526483448902404  0.2115918832410983  1.0000
  H   H61       1.0  0.6353615045101934  0.4064623633822536  0.2777376065473902  1.0000
  H   H62       1.0  0.6686412770433492  0.4099688114531831  0.19747801638521167  1.0000
  H   H63       1.0  0.9366855211791929  0.4498161775322346  0.22250471471117084  1.0000
  H   H64       1.0  0.5745611126654568  0.8277550391999213  0.24019409697154254  1.0000
  H   H65       1.0  0.5534931381781902  0.954281891156832  0.2744129109262161  1.0000
  H   H66       1.0  0.5945371201949072  0.9405650520904489  0.213544729043214  1.0000
  H   H67       1.0  0.7094879752338129  0.6660986320804414  0.5280458074827122  1.0000
  H   H68       1.0  0.9980166764840849  0.9547946226190547  0.9783726752314195  1.0000
  C   C1        1.0  0.7206208172939341  0.3750674028153611  0.5656252473280574  1.0000
  C   C2        1.0  0.39261214854249005  0.3850397453755149  0.5638732607212873  1.0000
  C   C3        1.0  0.3860275822635374  0.7000469407078499  0.5697725050981218  1.0000
  C   C4        1.0  0.7181762221168669  0.3776357553165681  0.4324444175113413  1.0000
  C   C5        1.0  0.3950357733598011  0.3812004923587296  0.4337811411637488  1.0000
  C   C6        1.0  0.3785090478309598  0.7071419948217115  0.4347337053842181  1.0000
  C   C7        1.0  0.3911023752308367  0.20931519538558527  0.7276313273429905  1.0000
  C   C8        1.0  0.4575074515155962  0.24459690709150553  0.7657393242986783  1.0000
  C   C9        1.0  0.3111893823830556  0.2839865572596453  0.8869384493824695  1.0000
  C   C10       1.0  0.37007942392020954  0.3582227088592377  0.6102296600803143  1.0000
  C   C11       1.0  0.2717336136941597  0.2720676496003023  0.7568482675984141  1.0000
  C   C12       1.0  0.3378325107599665  0.30728145668900453  0.7966063982402076  1.0000
  C   C13       1.0  0.23150397062222805  0.3927003504338486  0.7317256373589627  1.0000
  C   C14       1.0  0.35107467785992696  0.33016995797296295  0.700799509784538  1.0000
  C   C15       1.0  0.2978045186662968  0.428124507632191  0.7698103965226577  1.0000
  C   C16       1.0  0.41748844381574196  0.36515410739721  0.7405251557283632  1.0000
  C   C17       1.0  0.3256089001847117  0.29500011984798397  0.8453097853245166  1.0000
  C   C18       1.0  0.36066670587844374  0.3441401978127702  0.6520119054494342  1.0000
  C   C19       1.0  0.34988977738601784  0.6792335178159093  0.7369982279127851  1.0000
  C   C20       1.0  0.2211688907353135  0.8955867215357358  0.7252185083710783  1.0000
  C   C21       1.0  0.22014029958954512  0.9186410305719973  0.7784545883712892  1.0000
  C   C22       1.0  0.31999750670446775  0.8787644995567871  0.892580564698953  1.0000
  C   C23       1.0  0.34417967808321503  0.7859248713606135  0.7100914384339204  1.0000
  C   C24       1.0  0.3522561802594027  0.6981463193726897  0.7907754923360383  1.0000
  C   C25       1.0  0.33898783798559873  0.8222187931750754  0.8013877570402597  1.0000
  C   C26       1.0  0.44672408452050405  0.8278842281608406  0.7791348598764998  1.0000
  C   C27       1.0  0.4529255378199791  0.8008250412745925  0.7258312405792252  1.0000
  C   C28       1.0  0.33153134000284  0.8481328239674967  0.85145403646338  1.0000
  C   C29       1.0  0.3484909984047918  0.7635683757558099  0.6598144754273532  1.0000
  C   C30       1.0  0.3581359616621425  0.7426848097215315  0.6178059071085541  1.0000
  C   C31       1.0  0.7220441714517705  0.4586778080871738  0.7282662485037078  1.0000
  C   C32       1.0  0.9425573612289142  0.31380030223787264  0.7146227113337602  1.0000
  C   C33       1.0  0.9663111037152774  0.3022708438390467  0.7681590880840048  1.0000
  C   C34       1.0  0.902633047049271  0.3090205914031472  0.8864690659254888  1.0000
  C   C35       1.0  0.8126023690940372  0.3378853661334348  0.7044981810319297  1.0000
  C   C36       1.0  0.747445420658309  0.4552536413389916  0.7816652392279905  1.0000
  C   C37       1.0  0.8495658844133656  0.3293605052628977  0.7952047052091655  1.0000
  C   C38       1.0  0.8125799521930048  0.23588728362078368  0.7800166991280902  1.0000
  C   C39       1.0  0.7959741124715691  0.23739918646387542  0.7260954090281257  1.0000
  C   C40       1.0  0.8747339453727534  0.3217678595689506  0.8451679545914031  1.0000
  C   C41       1.0  0.7904749443886558  0.34401833255037684  0.6543549936708287  1.0000
  C   C42       1.0  0.7685201224096974  0.3510360209607128  0.612528983291277  1.0000
  C   C43       1.0  0.2895576538193793  0.4625461465251918  0.2733320796596885  1.0000
  C   C44       1.0  0.25654252566531005  0.28686470125488484  0.2818244670715302  1.0000
  C   C45       1.0  0.2400516212023262  0.28792841678951936  0.227821791106571  1.0000
  C   C46       1.0  0.3053820738737727  0.3028072960741213  0.1101379031920402  1.0000
  C   C47       1.0  0.341871065271505  0.33662902425223973  0.29470995108142967  1.0000
  C   C48       1.0  0.27792052113392884  0.45678610276095094  0.21954570265528153  1.0000
  C   C49       1.0  0.32419702898412334  0.32557113334340937  0.20271510345955324  1.0000
  C   C50       1.0  0.4557383674590553  0.24121028093711772  0.21886975264732197  1.0000
  C   C51       1.0  0.46768466806640424  0.2537208291485697  0.2724255689267067  1.0000
  C   C52       1.0  0.3128402019992508  0.3167316475010368  0.15215611631325737  1.0000
  C   C53       1.0  0.3533979373231944  0.3459476547451034  0.345316386051735  1.0000
  C   C54       1.0  0.36713153338723703  0.3566858020028079  0.3871516868697355  1.0000
  C   C55       1.0  0.44826840580011396  0.7067335824845247  0.27094472225456906  1.0000
  C   C56       1.0  0.3393662301743559  0.925756066993266  0.2912886979430098  1.0000
  C   C57       1.0  0.33191252763108275  0.9575844961525778  0.23882424124587223  1.0000
  C   C58       1.0  0.3111932206378613  0.9136220929537302  0.11745367212882477  1.0000
  C   C59       1.0  0.33697235194608777  0.8077324889319328  0.297228487574813  1.0000
  C   C60       1.0  0.4404002938295264  0.7328613004179019  0.21781618117527293  1.0000
  C   C61       1.0  0.3302434168392029  0.8569639353543721  0.20787878129847565  1.0000
  C   C62       1.0  0.2141245686854703  0.8537465853746653  0.22224227731594937  1.0000
  C   C63       1.0  0.219736917885484  0.8213866400320953  0.27463853295634516  1.0000
  C   C64       1.0  0.3233481474994234  0.8864956649186057  0.1586221431356805  1.0000
  C   C65       1.0  0.34375212502087743  0.7797989738910334  0.3467130058640676  1.0000
  C   C66       1.0  0.35209401105476723  0.7550393711872729  0.38810783571376817  1.0000
  C   C67       1.0  0.7227893599796785  0.33004307704506897  0.2671277970155543  1.0000
  C   C68       1.0  0.9472780188337142  0.22426099351014983  0.2819363659198472  1.0000
  C   C69       1.0  0.9682993551551178  0.22219186648943184  0.2283479733750937  1.0000
  C   C70       1.0  0.906108751189116  0.32321204785588986  0.11349452149708839  1.0000
  C   C71       1.0  0.8249370283141176  0.33498371310403025  0.2955038326129581  1.0000
  C   C72       1.0  0.7439644001892207  0.3317172843847374  0.21380927488159773  1.0000
  C   C73       1.0  0.8628009364677779  0.33413885419938083  0.20536629140560336  1.0000
  C   C74       1.0  0.8524774060777107  0.44793486282932815  0.22894251912502733  1.0000
  C   C75       1.0  0.8278566746682259  0.4495990168320888  0.2821692665818104  1.0000
  C   C76       1.0  0.8852971037290587  0.3307410107886143  0.1554007262619663  1.0000
  C   C77       1.0  0.7998914674127918  0.33766618506356144  0.34522945327886123  1.0000
  C   C78       1.0  0.7721671701232042  0.3464621775935868  0.3864818965041579  1.0000
  C   C79       1.0  0.29094227361538555  0.9375466831298668  0.938019241291741  1.0000
  C   C80       1.0  0.28149050441178497  0.26370919313335867  0.9332327273956478  1.0000
  C   C81       1.0  0.9552281913324806  0.27881732100519946  0.9326146001070013  1.0000
  C   C82       1.0  0.2806536524282848  0.9615690223294139  0.07093187681756769  1.0000
  C   C83       1.0  0.2836213709637647  0.2742260151498074  0.06325682541363879  1.0000
  C   C84       1.0  0.952296192482841  0.29564114477511794  0.06632867864280459  1.0000
  C   C85       1.0  0.5406472840929196  0.9243372698207893  0.2393157273419604  1.0000
  N   N1        1.0  0.3481905610171978  0.5060914556607657  0.19461597188043805  1.0000
  N   N2        1.0  0.19840012532736748  0.004110403908398994  0.6973782642755422  1.0000
  O   O1        1.0  0.4892993174596895  0.6748398008635307  0.5549630901965301  1.0000
  O   O2        1.0  0.7024567046143559  0.47113056563176775  0.5473056362389599  1.0000
  O   O3        1.0  0.6948402443109742  0.2983457298215343  0.5469975590548088  1.0000
  O   O4        1.0  0.4911875179178721  0.3089926022979912  0.543657189825545  1.0000
  O   O5        1.0  0.3149751728888647  0.4861866655747207  0.5470522500241515  1.0000
  O   O6        1.0  0.3051273924151943  0.6868503393345479  0.5470849393037724  1.0000
  O   O7        1.0  0.4767162755943345  0.6889724491885334  0.4530505079771672  1.0000
  O   O8        1.0  0.6870821214981078  0.4816305818081902  0.4473935133023089  1.0000
  O   O9        1.0  0.701641510023805  0.29901214870467646  0.4536259528130984  1.0000
  O   O10       1.0  0.4985497571200241  0.3066007740033854  0.4505401293779484  1.0000
  O   O11       1.0  0.31729375676997046  0.4786938181827055  0.45380689177670047  1.0000
  O   O12       1.0  0.3010720898905531  0.6822908442642446  0.4531449416966851  1.0000
  O   O13       1.0  0.5058019633765057  0.4972712938105061  0.49990796204289  1.0000
  O   O14       1.0  0.9852654914700593  0.17583183601903582  0.9470424840054644  1.0000
  O   O15       1.0  0.19072730672318255  0.9621239368698795  0.9560717390081164  1.0000
  O   O16       1.0  0.36832409778263286  0.9652448138031534  0.9550199415144858  1.0000
  O   O17       1.0  0.35658251626716003  0.1668608471972135  0.9534106909678852  1.0000
  O   O18       1.0  0.17864663673805828  0.3424092546197954  0.9499085894603851  1.0000
  O   O19       1.0  0.971579603717487  0.35840595947276205  0.9544874095947619  1.0000
  O   O20       1.0  0.9660300243218243  0.20005664399501208  0.0477961566952558  1.0000
  O   O21       1.0  0.17522271520864754  0.992125261646706  0.05653150489173699  1.0000
  O   O22       1.0  0.36212338052146004  0.9729678144427966  0.04829959810922448  1.0000
  O   O23       1.0  0.3595429637874189  0.17080217085270283  0.046861291342438  1.0000
  O   O24       1.0  0.18715896235585916  0.350931532642889  0.04275773469153419  1.0000
  O   O25       1.0  0.9811112327470967  0.36876866133059133  0.04761798356547329  1.0000
  O   O26       1.0  0.16505974075015215  0.16143867431390652  0.0006381590836070999  1.0000
  O   O27       1.0  0.4526406742998575  0.4736922563375502  0.20858064296819379  1.0000
  O   O28       1.0  0.29834948310338655  0.5732268888344835  0.16131978867610994  1.0000
  O   O29       1.0  0.4180057280743126  0.991281961961079  0.22391764093362806  1.0000
  O   O30       1.0  0.1279233959475974  0.030968949986330995  0.6638161043347637  1.0000
  O   O31       1.0  0.2530005717151269  0.0577981639966723  0.7094541388775822  1.0000
  O   O32       1.0  0.6667189013064245  0.6678294883846974  0.4995768179870906  1.0000
  O   O33       1.0  0.9884118922433062  0.0071845942658868  0.0046920389724220985  1.0000
