data_image0
_chemical_formula_structural       Cd6H16C16N12Cl4O8
_chemical_formula_sum              "Cd6 H16 C16 N12 Cl4 O8"
_cell_length_a       6.767544343578646
_cell_length_b       8.197718031360553
_cell_length_c       14.236009849007829
_cell_angle_alpha    89.99993609997901
_cell_angle_beta     89.99992691947766
_cell_angle_gamma    110.18131844958481

_space_group_name_H-M_alt    "P 1"
_space_group_IT_number       1

loop_
  _space_group_symop_operation_xyz
  'x, y, z'

loop_
  _atom_site_type_symbol
  _atom_site_label
  _atom_site_symmetry_multiplicity
  _atom_site_fract_x
  _atom_site_fract_y
  _atom_site_fract_z
  _atom_site_occupancy
  Cd  Cd1       1.0  0.7018851890783748  0.8283759320319531  0.7184859605030594  1.0000
  Cd  Cd2       1.0  0.29811541432595573  0.671625044936789  0.21848507397047706  1.0000
  Cd  Cd3       1.0  0.2981148232399206  0.1716243124579648  0.28151553535140283  1.0000
  Cd  Cd4       1.0  0.7018845979965177  0.32837519955637606  0.7815143145519199  1.0000
  Cd  Cd5       1.0  0.49999954586129275  0.5000007765223555  0.4999993430391214  1.0000
  Cd  Cd6       1.0  0.5000013715672081  0.9999995740803768  2.320169798999999e-07  1.0000
  H   H1        1.0  0.6276571780503772  0.1700489100792737  0.4496482220784656  1.0000
  H   H2        1.0  0.3723459973791278  0.3299500570283627  0.9496493075161964  1.0000
  H   H3        1.0  0.372344861411669  0.8299526250869248  0.5503511664429084  1.0000
  H   H4        1.0  0.6276549355418481  0.6700488789121691  0.0503514858943817  1.0000
  H   H5        1.0  0.7340755533230239  0.0185823666287206  0.4994929633625133  1.0000
  H   H6        1.0  0.2659259503727824  0.4814164558241458  0.9994947192357699  1.0000
  H   H7        1.0  0.2659235383981764  0.9814191864149107  0.5005064251597418  1.0000
  H   H8        1.0  0.7340770096835739  0.5185837707861721  0.0005081815058503  1.0000
  H   H9        1.0  0.19632441881106633  0.6661709224206047  0.8234980344587939  1.0000
  H   H10       1.0  0.8036695049210179  0.8338323748744045  0.32350025004704724  1.0000
  H   H11       1.0  0.8036755935128068  0.33382932207364036  0.1765006516195839  1.0000
  H   H12       1.0  0.19632719232428994  0.16617049565516595  0.6765012458075788  1.0000
  H   H13       1.0  0.998636530646692  0.6422628303316742  0.418177764446888  1.0000
  H   H14       1.0  0.001357937848375372  0.8577388666643483  0.9181804621072018  1.0000
  H   H15       1.0  0.0013599806671890605  0.35773613242825764  0.5818209216329535  1.0000
  H   H16       1.0  0.9986450222149583  0.14226135995137668  0.08181892641431429  1.0000
  C   C1        1.0  0.6074677002603507  0.07310021172131087  0.5050247310506535  1.0000
  C   C2        1.0  0.3925346597196793  0.42689753517009876  0.0050271367141121  1.0000
  C   C3        1.0  0.3925317587943764  0.926898733161188  0.49497395502830693  1.0000
  C   C4        1.0  0.6074692209393573  0.5731013828908329  0.9949750615836236  1.0000
  C   C5        1.0  0.19228781233273642  0.6078551533291048  0.754794111919594  1.0000
  C   C6        1.0  0.8077117263394553  0.8921470203069714  0.2547948829912059  1.0000
  C   C7        1.0  0.8077112793926416  0.3921463997177667  0.2452031692706029  1.0000
  C   C8        1.0  0.19228791865227624  0.10785583234948598  0.7452038030864542  1.0000
  C   C9        1.0  0.9071138748360569  0.5493509257606846  0.3668860618619689  1.0000
  C   C10       1.0  0.09288245707519846  0.9506548281240796  0.8668872398770373  1.0000
  C   C11       1.0  0.09288429628246317  0.450651935832326  0.6331140291041777  1.0000
  C   C12       1.0  0.9071155281035244  0.0493441256928051  0.1331142559784482  1.0000
  C   C13       1.0  0.6241358168713801  0.16121897774741709  0.599303924615441  1.0000
  C   C14       1.0  0.3758658015275955  0.3387810867914709  0.0993070990128757  1.0000
  C   C15       1.0  0.37586419545249317  0.8387812667468281  0.40069476146292965  1.0000
  C   C16       1.0  0.624134578121449  0.6612165495351404  0.9006950992863239  1.0000
  N   N1        1.0  0.9768163067810676  0.5176023887200571  0.28226191719794264  1.0000
  N   N2        1.0  0.02318164898182557  0.9823997092121456  0.7822645221444589  1.0000
  N   N3        1.0  0.02318223167237922  0.48239786471290796  0.7177367688808758  1.0000
  N   N4        1.0  0.9768174427365822  0.017601843829318398  0.2177362712658422  1.0000
  N   N5        1.0  0.7071355809148583  0.4515655837189883  0.3815932241551181  1.0000
  N   N6        1.0  0.2928604953080195  0.04843363778557829  0.881595942174634  1.0000
  N   N7        1.0  0.2928609304004155  0.5484333790420238  0.6184047594807041  1.0000
  N   N8        1.0  0.7071430180216606  0.9515678884397402  0.11840485123433808  1.0000
  N   N9        1.0  0.3569969405546017  0.6511142044805425  0.6966063952553084  1.0000
  N   N10       1.0  0.6430037496985505  0.848886839905518  0.19660729382383116  1.0000
  N   N11       1.0  0.6430019652323793  0.34888344079128325  0.3033915883802152  1.0000
  N   N12       1.0  0.35699736915942276  0.15111600380897977  0.8033934995854395  1.0000
  Cl  Cl1       1.0  0.8371672432136916  0.7471522141468013  0.5637150493471168  1.0000
  Cl  Cl2       1.0  0.16283250069335498  0.7528492486743941  0.0637141930976597  1.0000
  Cl  Cl3       1.0  0.16283129523696965  0.2528480392839896  0.4362850416197474  1.0000
  Cl  Cl4       1.0  0.8371675116291257  0.24715099581876385  0.9362851954247373  1.0000
  O   O1        1.0  0.6845700328292493  0.09564535118727949  0.671102837896612  1.0000
  O   O2        1.0  0.3154292734225024  0.4043532014383188  0.1711046022627372  1.0000
  O   O3        1.0  0.31542795235365856  0.9043536026328451  0.3288965506268156  1.0000
  O   O4        1.0  0.6845716594956812  0.5956457345000459  0.8288975960358798  1.0000
  O   O5        1.0  0.4174177669625719  0.6993919133903148  0.39155318680403167  1.0000
  O   O6        1.0  0.5825830700419272  0.8006072217359586  0.8915520560799735  1.0000
  O   O7        1.0  0.5825840865610771  0.30060571400083086  0.6084469041626617  1.0000
  O   O8        1.0  0.4174138085985177  0.1993891328574193  0.10844943977667751  1.0000
