data_image0
_chemical_formula_structural       Ag2H44C42N8O4
_chemical_formula_sum              "Ag2 H44 C42 N8 O4"
_cell_length_a       9.206410146981625
_cell_length_b       9.948692043225526
_cell_length_c       12.323544608753318
_cell_angle_alpha    76.67105697546634
_cell_angle_beta     69.91528778916607
_cell_angle_gamma    66.88130890644214

_space_group_name_H-M_alt    "P 1"
_space_group_IT_number       1

loop_
  _space_group_symop_operation_xyz
  'x, y, z'

loop_
  _atom_site_type_symbol
  _atom_site_label
  _atom_site_symmetry_multiplicity
  _atom_site_fract_x
  _atom_site_fract_y
  _atom_site_fract_z
  _atom_site_occupancy
  Ag  Ag1       1.0  0.2800615273118865  0.08899670238820788  0.8215899007641312  1.0000
  Ag  Ag2       1.0  0.719930975854602  0.9109946616080434  0.17841769091847237  1.0000
  H   H1        1.0  0.9046805510924758  0.6859220707375185  0.44063875395511326  1.0000
  H   H2        1.0  0.09531042991658012  0.31408251767797424  0.5593578804862247  1.0000
  H   H3        1.0  0.8128951077937786  0.47209815985112147  0.5395722337981752  1.0000
  H   H4        1.0  0.18709114517017153  0.5279097403157565  0.4604249991180114  1.0000
  H   H5        1.0  0.5588182537761811  0.5019413495247633  0.7040729629196534  1.0000
  H   H6        1.0  0.4411699882101346  0.498064335881253  0.2959266028817212  1.0000
  H   H7        1.0  0.38865059050458933  0.7478390718011027  0.7772114467297656  1.0000
  H   H8        1.0  0.6113461698948582  0.2521654694039483  0.22278940458956248  1.0000
  H   H9        1.0  0.7939406395158245  0.1294660496404774  0.40091135304878384  1.0000
  H   H10       1.0  0.20605024117339354  0.8705418224304537  0.5990871407256081  1.0000
  H   H11       1.0  0.8542388240644958  0.959078280329791  0.3490040865251417  1.0000
  H   H12       1.0  0.14575604115093913  0.04092517710005689  0.6509958227977821  1.0000
  H   H13       1.0  0.04562541120354524  0.8415371680788226  0.475739175285483  1.0000
  H   H14       1.0  0.9543662971207071  0.1584684860248089  0.5242635706870402  1.0000
  H   H15       1.0  0.09470464655001357  0.9823994940336294  0.37072237233472555  1.0000
  H   H16       1.0  0.9052850662703947  0.0176083599502306  0.6292812909744542  1.0000
  H   H17       1.0  0.44809695818220535  0.27393742668775894  0.659422013173753  1.0000
  H   H18       1.0  0.5518970648148666  0.7260682152279758  0.34058095695014856  1.0000
  H   H19       1.0  0.5374145234220222  0.2843256682207169  0.5056166131385142  1.0000
  H   H20       1.0  0.46257760439103623  0.7156788899198077  0.49438541498898303  1.0000
  H   H21       1.0  0.6632823047488613  0.2418126716881872  0.5990175450903055  1.0000
  H   H22       1.0  0.3367137186131686  0.7581907815077924  0.4009820700305725  1.0000
  H   H23       1.0  0.09760168944952605  0.7641298706920024  0.9383319000645474  1.0000
  H   H24       1.0  0.9024146392923668  0.23586583981391843  0.061659902221386176  1.0000
  H   H25       1.0  0.978814726292562  0.8568838123102153  0.772517602282555  1.0000
  H   H26       1.0  0.021196227964424  0.1431108159616272  0.22747657827947176  1.0000
  H   H27       1.0  0.987331913578764  0.6839635696036056  0.6500855625281263  1.0000
  H   H28       1.0  0.012675561377328377  0.31603106020936883  0.34991193830640555  1.0000
  H   H29       1.0  0.1143952953171308  0.4117924290205366  0.694967415697832  1.0000
  H   H30       1.0  0.885610699082655  0.5882000098936542  0.30503086296163656  1.0000
  H   H31       1.0  0.2916406806140657  0.4225992631826472  0.1532882115614669  1.0000
  H   H32       1.0  0.7083704973531723  0.5774008475974526  0.846706532155267  1.0000
  H   H33       1.0  0.16184226737242105  0.6008978309905402  0.11529312491064304  1.0000
  H   H34       1.0  0.8381670137904326  0.3991011922941894  0.884701489365142  1.0000
  H   H35       1.0  0.39196056331916657  0.6565690855166507  0.9633526013453634  1.0000
  H   H36       1.0  0.6080498727495396  0.34342992609388995  0.036643343839294525  1.0000
  H   H37       1.0  0.43688105130085114  0.600699601207154  0.0969152371030759  1.0000
  H   H38       1.0  0.5631306399935525  0.3992961150737671  0.9030801796574013  1.0000
  H   H39       1.0  0.32137776909422666  0.20204200758148969  0.1466796208353074  1.0000
  H   H40       1.0  0.6786277103580219  0.7979548221117199  0.8533187973358738  1.0000
  H   H41       1.0  0.5003697425443222  0.15173639902824482  0.027381824917831837  1.0000
  H   H42       1.0  0.49963490279140643  0.848262633751638  0.9726155912770411  1.0000
  H   H43       1.0  0.3374824262092346  0.0833057300937767  0.05135380399720907  1.0000
  H   H44       1.0  0.6625230532430139  0.9166910995994325  0.9486446141739722  1.0000
  C   C1        1.0  0.5835007491558599  0.0671835957504001  0.5964935591171499  1.0000
  C   C2        1.0  0.41649295143149345  0.9328198510326831  0.40350989462964293  1.0000
  C   C3        1.0  0.6979828640753923  0.8346795671909459  0.5559681612805535  1.0000
  C   C4        1.0  0.30200116481334766  0.16532503918743663  0.4440318634839572  1.0000
  C   C5        1.0  0.794142069977056  0.6987245796107402  0.5139920401691713  1.0000
  C   C6        1.0  0.20584807043400843  0.30128219701079934  0.48600684251768916  1.0000
  C   C7        1.0  0.7414860844779055  0.5799848516844577  0.5701175174052937  1.0000
  C   C8        1.0  0.2585021591287814  0.4200208374417115  0.4298812358406181  1.0000
  C   C9        1.0  0.5968957867041667  0.5969980959953674  0.6635673679830845  1.0000
  C   C10       1.0  0.4030944524063713  0.4030053932505737  0.336430467926178  1.0000
  C   C11       1.0  0.5012837103488863  0.7331011283263891  0.705464696289404  1.0000
  C   C12       1.0  0.498706104411724  0.2669034457221855  0.294536295131266  1.0000
  C   C13       1.0  0.5543987168977864  0.8521659497517149  0.6514195224361574  1.0000
  C   C14       1.0  0.44559654350090483  0.14783635591267347  0.34859185737359877  1.0000
  C   C15       1.0  0.8392734948699072  0.0100705800570822  0.424289984653349  1.0000
  C   C16       1.0  0.16071937646204745  0.9899350809731473  0.5757100294507609  1.0000
  C   C17       1.0  0.0034892627210964798  0.9614774357940304  0.45174694549098865  1.0000
  C   C18       1.0  0.99650128745656  0.0385282225434693  0.5482560946835805  1.0000
  C   C19       1.0  0.5571219715209497  0.22555225296145662  0.5894334874680994  1.0000
  C   C20       1.0  0.44287131443871186  0.7744523009451995  0.410568246457352  1.0000
  C   C21       1.0  0.2853636249296869  0.3056239890526555  0.9807184651801609  1.0000
  C   C22       1.0  0.7146406963759663  0.6943728448744153  0.019280247193066195  1.0000
  C   C23       1.0  0.17140177853990926  0.5365533151555155  0.9091605589249597  1.0000
  C   C24       1.0  0.8286122258069428  0.46344238521736253  0.0908358945423444  1.0000
  C   C25       1.0  0.10259483343404696  0.688244252032071  0.885212570534556  1.0000
  C   C26       1.0  0.8974188517438293  0.3117492606484618  0.11478274144473491  1.0000
  C   C27       1.0  0.03720036723119334  0.7387390232764588  0.7908150524624845  1.0000
  C   C28       1.0  0.962812482209806  0.2612566887706008  0.20918007009595393  1.0000
  C   C29       1.0  0.042306973606535896  0.640739380535443  0.7221115834767602  1.0000
  C   C30       1.0  0.9576986013044363  0.3592541543418548  0.2778874130277416  1.0000
  C   C31       1.0  0.11197371425738112  0.4887721110223636  0.7463147111553216  1.0000
  C   C32       1.0  0.8880356607438317  0.5112236137262939  0.2536812940092402  1.0000
  C   C33       1.0  0.17651419174564606  0.4366471753467138  0.8415386968600843  1.0000
  C   C34       1.0  0.823487071368284  0.563348567878542  0.1584618053851514  1.0000
  C   C35       1.0  0.2727441781941167  0.5088779679784919  0.08085424053164299  1.0000
  C   C36       1.0  0.7272639432017769  0.49112105581994586  0.9191414805016437  1.0000
  C   C37       1.0  0.4211454495755263  0.5601031636440937  0.027327172453105647  1.0000
  C   C38       1.0  0.5788658238504354  0.4398936523200875  0.9726681495969489  1.0000
  C   C39       1.0  0.36571449013362684  0.17888893615273097  0.05591810059617331  1.0000
  C   C40       1.0  0.634290151961366  0.8211100891868456  0.9440809407096113  1.0000
  C   C41       1.0  0.9425985518746814  0.04228447733985521  0.957800306080678  1.0000
  C   C42       1.0  0.0574022297909876  0.957700222745615  0.04221613351975862  1.0000
  N   N1        1.0  0.4868028292916975  0.9977877787879662  0.674335824387427  1.0000
  N   N2        1.0  0.5131861481116645  0.002218990906975199  0.3256657901678467  1.0000
  N   N3        1.0  0.7119278373359634  0.973063476285155  0.522258918076851  1.0000
  N   N4        1.0  0.288063133950871  0.026941089809390906  0.47774259169722916  1.0000
  N   N5        1.0  0.2475022575554391  0.29443386311946534  0.8886069515491716  1.0000
  N   N6        1.0  0.752503223517181  0.7055629702938973  0.11139065406655389  1.0000
  N   N7        1.0  0.24072334786765742  0.4505936516567531  0.9965813989730775  1.0000
  N   N8        1.0  0.7592871836597794  0.549402065137876  0.0034151245449010213  1.0000
  O   O1        1.0  0.009119117473318285  0.08876392487800192  0.8549899078415779  1.0000
  O   O2        1.0  0.9908810456842401  0.9112284422016116  0.14503015571453662  1.0000
  O   O3        1.0  0.7906452494923641  0.059186031941521805  0.9984314514679584  1.0000
  O   O4        1.0  0.20935164958730468  0.940799802849746  0.0015809006954298928  1.0000
