data_image0
_chemical_formula_structural       Ag2P4H62C58N4O8
_chemical_formula_sum              "Ag2 P4 H62 C58 N4 O8"
_cell_length_a       11.018807547877017
_cell_length_b       11.887566151093846
_cell_length_c       12.905492172907321
_cell_angle_alpha    112.39275263269994
_cell_angle_beta     102.33393680706057
_cell_angle_gamma    105.78731989053512

_space_group_name_H-M_alt    "P 1"
_space_group_IT_number       1

loop_
  _space_group_symop_operation_xyz
  'x, y, z'

loop_
  _atom_site_type_symbol
  _atom_site_label
  _atom_site_symmetry_multiplicity
  _atom_site_fract_x
  _atom_site_fract_y
  _atom_site_fract_z
  _atom_site_occupancy
  Ag  Ag1       1.0  0.20216555988005783  0.48474084152050523  0.32399379611769774  1.0000
  Ag  Ag2       1.0  0.7978341953842616  0.5152591131623014  0.6760068969636066  1.0000
  P   P1        1.0  0.3190135091889558  0.34641575640216615  0.342912165838939  1.0000
  P   P2        1.0  0.6809875734214829  0.6535851824681983  0.6570883406291586  1.0000
  P   P3        1.0  0.1091742326096252  0.6282541505575593  0.43433507950454237  1.0000
  P   P4        1.0  0.8908251224277846  0.37174481530468023  0.5656659683205021  1.0000
  H   H1        1.0  0.4042701091348134  0.44883854515433097  0.558202094266015  1.0000
  H   H2        1.0  0.5957324292318305  0.5511613959874211  0.44179755392351433  1.0000
  H   H3        1.0  0.5109223337095229  0.37427890656909557  0.5026774444438046  1.0000
  H   H4        1.0  0.4890788790557181  0.625720050743098  0.497320841075556  1.0000
  H   H5        1.0  0.13709001499657347  0.5886935230108392  0.6043561358907965  1.0000
  H   H6        1.0  0.8629106665145939  0.41130642685995883  0.3956454999627326  1.0000
  H   H7        1.0  0.9971532660066696  0.6334330663253809  0.5810520812106857  1.0000
  H   H8        1.0  0.0028468877398566232  0.3665678768200067  0.41894980641025364  1.0000
  H   H9        1.0  0.942866221288021  0.3442553282785639  0.02038359979152913  1.0000
  H   H10       1.0  0.05713300795637372  0.6557456200368179  0.9796157957738174  1.0000
  H   H11       1.0  0.7757734207091928  0.9685077998682631  0.9516365812588247  1.0000
  H   H12       1.0  0.22422911765745104  0.031492141273489  0.048363066930711796  1.0000
  H   H13       1.0  0.6530555809780408  0.027268324794277998  0.9942828095158943  1.0000
  H   H14       1.0  0.3469469556438867  0.9727316159894812  0.005718387957010337  1.0000
  H   H15       1.0  0.8186628850704238  0.09047888935010209  0.10322435904774352  1.0000
  H   H16       1.0  0.1813400517784131  0.9095220402542306  0.8967764836814281  1.0000
  H   H17       1.0  0.7790025116455792  0.2296132215229392  0.8511842204641766  1.0000
  H   H18       1.0  0.220997243618747  0.7703867331598743  0.14881647261712763  1.0000
  H   H19       1.0  0.6275933222839283  0.12938456302496348  0.8541196021671098  1.0000
  H   H20       1.0  0.3724060344981978  0.8706144031952686  0.14587989637455914  1.0000
  H   H21       1.0  0.7316031399982987  0.054611119042107206  0.7903146112196852  1.0000
  H   H22       1.0  0.26839661613838217  0.9453888358196919  0.20968530721992795  1.0000
  H   H23       1.0  0.2972009786040246  0.3523572958589226  0.11634596712072208  1.0000
  H   H24       1.0  0.7027983799228109  0.6476416707192952  0.8836519821375646  1.0000
  H   H25       1.0  0.42911870436549987  0.3072783617126119  0.980969727152214  1.0000
  H   H26       1.0  0.5708819788903766  0.6927215885161715  0.019030359417932605  1.0000
  H   H27       1.0  0.6170212736814448  0.23966593285710758  0.031225628678896545  1.0000
  H   H28       1.0  0.38297888268215263  0.7603350108252585  0.9687739350169836  1.0000
  H   H29       1.0  0.668491396011923  0.20376071819182323  0.21195033986889908  1.0000
  H   H30       1.0  0.3315091588338745  0.7962412139531236  0.7880504183666232  1.0000
  H   H31       1.0  0.537884122242218  0.24621433156357847  0.34521703574611  1.0000
  H   H32       1.0  0.4621159057112934  0.753788594034951  0.6547831996151315  1.0000
  H   H33       1.0  0.07460403981114182  0.1368844259689439  0.16008988941130298  1.0000
  H   H34       1.0  0.925396115680101  0.8631165175344292  0.8399104489262684  1.0000
  H   H35       1.0  0.9330067340678027  0.9164634620336967  0.1293430169993213  1.0000
  H   H36       1.0  0.0669930229412401  0.0835364930071023  0.8706561267986004  1.0000
  H   H37       1.0  0.9906200937972611  0.8479107334904654  0.2875362217042364  1.0000
  H   H38       1.0  0.009379264729574285  0.15208823308775266  0.71246172755405  1.0000
  H   H39       1.0  0.19632047834480199  0.9957621437042902  0.47030784331558795  1.0000
  H   H40       1.0  0.8036779530628306  0.0042368275069435005  0.5296899378121651  1.0000
  H   H41       1.0  0.3448559789780177  0.20863155591765548  0.4963867007790199  1.0000
  H   H42       1.0  0.6551428491671061  0.7913684033981667  0.5036138241717508  1.0000
  H   H43       1.0  0.03279296874276848  0.5712953221132153  0.1887948788991949  1.0000
  H   H44       1.0  0.9672073125414896  0.4287036389370158  0.8112071116980674  1.0000
  H   H45       1.0  0.8273315291474714  0.5485414092997021  0.04144209406387494  1.0000
  H   H46       1.0  0.1726691514913341  0.45145854039210315  0.9585603164313383  1.0000
  H   H47       1.0  0.6402857875849788  0.5895121341299614  0.10777474127198149  1.0000
  H   H48       1.0  0.3597160919898599  0.41049078166555125  0.8922281542754007  1.0000
  H   H49       1.0  0.658988913943098  0.6582970073814779  0.3181764094259947  1.0000
  H   H50       1.0  0.3410107129111422  0.34170492921749224  0.6818249553206783  1.0000
  H   H51       1.0  0.8610062244881148  0.6774215234134074  0.46514549268847805  1.0000
  H   H52       1.0  0.13899485637760733  0.3225794150989572  0.5348565630629949  1.0000
  H   H53       1.0  0.07339644016632012  0.8454992728862791  0.6216978204885634  1.0000
  H   H54       1.0  0.9266015901420415  0.15449870932539508  0.3783010900246068  1.0000
  H   H55       1.0  0.22446342943749895  0.07895881439338841  0.7580234168185952  1.0000
  H   H56       1.0  0.7755350002254247  0.9210401564598596  0.2419759135925331  1.0000
  H   H57       1.0  0.45067561940427214  0.17123105457475418  0.7504065085639979  1.0000
  H   H58       1.0  0.549321882267087  0.8287679207325097  0.24959342835828105  1.0000
  H   H59       1.0  0.5283734375037666  0.026631824117991705  0.6047822352442438  1.0000
  H   H60       1.0  0.47162539064135706  0.9733681351978306  0.3952182897065201  1.0000
  H   H61       1.0  0.37652239434353874  0.7907952601357026  0.46514929709347547  1.0000
  H   H62       1.0  0.6234764346739397  0.2092046993591126  0.5348504532156042  1.0000
  C   C1        1.0  0.4532467239709702  0.43361726855076205  0.4909825408531603  1.0000
  C   C2        1.0  0.5467548881488256  0.5663826774029984  0.5090161645641516  1.0000
  C   C3        1.0  0.04727858251314392  0.572764488265264  0.5347368730763975  1.0000
  C   C4        1.0  0.9527220998703784  0.42723546178452665  0.46526398813544023  1.0000
  C   C5        1.0  0.9182251729630407  0.2726380318484729  0.05551757520967726  1.0000
  C   C6        1.0  0.08177365692679937  0.727361927825342  0.9444814004577111  1.0000
  C   C7        1.0  0.7612540166183661  0.056012358624570886  0.008945265337771968  1.0000
  C   C8        1.0  0.2387470659920793  0.9439885802457861  0.9910552411303326  1.0000
  C   C9        1.0  0.7323590066834882  0.14267726033990868  0.8619940316430217  1.0000
  C   C10       1.0  0.2676407494531928  0.8573226945218976  0.13800588679659137  1.0000
  C   C11       1.0  0.40996023582196267  0.3041602604856948  0.2404478030033061  1.0000
  C   C12       1.0  0.5900381947133155  0.6958387105465462  0.759550752766131  1.0000
  C   C13       1.0  0.37798945725150895  0.3187562675976351  0.13637930840950924  1.0000
  C   C14       1.0  0.6220093726383239  0.6812436920761726  0.8636196672578862  1.0000
  C   C15       1.0  0.4513245808911037  0.29321295416333015  0.060445165162349164  1.0000
  C   C16       1.0  0.5486751761179391  0.706787000877469  0.9395539786355798  1.0000
  C   C17       1.0  0.5569339980903364  0.2538925038653588  0.08833342041386769  1.0000
  C   C18       1.0  0.44306483092714183  0.7461074556294562  0.9116663298952119  1.0000
  C   C19       1.0  0.58720347243716  0.23612518100124896  0.19043717955278786  1.0000
  C   C20       1.0  0.4127962845718827  0.7638747740395432  0.809561964245134  1.0000
  C   C21       1.0  0.5135671527243488  0.2606377489798176  0.2659825244217302  1.0000
  C   C22       1.0  0.4864320756476914  0.7393631991565712  0.7340176457853005  1.0000
  C   C23       1.0  0.2205990404595397  0.18723138064435574  0.3289849246048817  1.0000
  C   C24       1.0  0.7793993900757383  0.812767590387878  0.6710136311645626  1.0000
  C   C25       1.0  0.10358749236173279  0.10352130326514694  0.22587213285926566  1.0000
  C   C26       1.0  0.896411736882662  0.8964796450502346  0.7741272627060738  1.0000
  C   C27       1.0  0.02273308954395487  0.9811630845413358  0.21022527068268432  1.0000
  C   C28       1.0  0.977267067691997  0.018837859320029796  0.7897735183715042  1.0000
  C   C29       1.0  0.05511211195424443  0.9424130407452438  0.2986256897422521  1.0000
  C   C30       1.0  0.9448872457002363  0.05758592565398148  0.7013730341577258  1.0000
  C   C31       1.0  0.17066550662262606  0.0252333618565359  0.4011345304896636  1.0000
  C   C32       1.0  0.8293334516772999  0.9747646159011154  0.5988637735123561  1.0000
  C   C33       1.0  0.25439142147354227  0.1464813315358953  0.4160143202239297  1.0000
  C   C34       1.0  0.7456070081893813  0.8535176393173531  0.5839850101871991  1.0000
  C   C35       1.0  0.9603662600932237  0.6246289987660703  0.3361453102173826  1.0000
  C   C36       1.0  0.03963269558963132  0.3753689784545955  0.6638553177097037  1.0000
  C   C37       1.0  0.9505898832104689  0.5903990172652767  0.21690909413063506  1.0000
  C   C38       1.0  0.0494090724723861  0.4095989599553888  0.7830915337964512  1.0000
  C   C39       1.0  0.8366428006870946  0.5791725895121047  0.13488464246189835  1.0000
  C   C40       1.0  0.1633578799517181  0.42082736017970035  0.865117768033322  1.0000
  C   C41       1.0  0.7318290096169944  0.6026925526383521  0.17196685253736624  1.0000
  C   C42       1.0  0.26817074564733184  0.39730740204445414  0.8280338405439381  1.0000
  C   C43       1.0  0.7416830558626017  0.6396645153521874  0.2909726041511077  1.0000
  C   C44       1.0  0.2583193514768851  0.3603374071687426  0.709030039628857  1.0000
  C   C45       1.0  0.8552681107547925  0.6500595819508844  0.3728266772761798  1.0000
  C   C46       1.0  0.14473031803576927  0.3499393887233637  0.6271734277766328  1.0000
  C   C47       1.0  0.21590441862997503  0.8019810061314057  0.5349618684211136  1.0000
  C   C48       1.0  0.784094938152144  0.19801796008881922  0.46503763012054833  1.0000
  C   C49       1.0  0.17327470047440133  0.8835681528474665  0.6177149796793485  1.0000
  C   C50       1.0  0.8267228020693196  0.1164308226387902  0.38228418260124636  1.0000
  C   C51       1.0  0.2584015148121424  0.015488709665355302  0.6949946816585921  1.0000
  C   C52       1.0  0.7415982395798224  0.9845112448384512  0.3050067860643963  1.0000
  C   C53       1.0  0.3861257942061087  0.0673036618199419  0.6906433774335454  1.0000
  C   C54       1.0  0.6138721085645285  0.9326963024868884  0.30935543010330924  1.0000
  C   C55       1.0  0.4288208659027789  0.986525980975145  0.6085256275750696  1.0000
  C   C56       1.0  0.5711779631146995  0.013473978519669997  0.3914741227340103  1.0000
  C   C57       1.0  0.3441619317233774  0.854227286954256  0.5304612120579083  1.0000
  C   C58       1.0  0.6558364979395462  0.14577168389898532  0.4695381183532206  1.0000
  N   N1        1.0  0.3613740795868807  0.6086192567262642  0.1984056150682533  1.0000
  N   N2        1.0  0.638628057680485  0.39137969541592815  0.8015951625067075  1.0000
  N   N3        1.0  0.8076957923904045  0.1621294156181676  0.9787540710835714  1.0000
  N   N4        1.0  0.19230396374627648  0.8378705392436316  0.0212458473560416  1.0000
  O   O1        1.0  0.2338717492512146  0.5407077041851381  0.16204318968112827  1.0000
  O   O2        1.0  0.7661311875976222  0.45929322541919504  0.8379576530480435  1.0000
  O   O3        1.0  0.43307193285443896  0.6532060608613506  0.307212371738565  1.0000
  O   O4        1.0  0.5669294057038099  0.34679091399769374  0.6927875660404864  1.0000
  O   O5        1.0  0.4122768358518343  0.628621741922089  0.12552800002377032  1.0000
  O   O6        1.0  0.587726228534734  0.37137720558708753  0.8744729456817238  1.0000
  O   O7        1.0  0.9872225329369471  0.29420292637244927  0.15624906553671275  1.0000
  O   O8        1.0  0.012778550545846227  0.7057980126769009  0.8437506662897079  1.0000
