data_image0
_chemical_formula_structural       Cu4H52C56N10O20
_chemical_formula_sum              "Cu4 H52 C56 N10 O20"
_cell_length_a       11.484245462463475
_cell_length_b       12.37236336560427
_cell_length_c       14.335
_cell_angle_alpha    101.61273096884037
_cell_angle_beta     103.03901406880689
_cell_angle_gamma    96.49364871860979

_space_group_name_H-M_alt    "P 1"
_space_group_IT_number       1

loop_
  _space_group_symop_operation_xyz
  'x, y, z'

loop_
  _atom_site_type_symbol
  _atom_site_label
  _atom_site_symmetry_multiplicity
  _atom_site_fract_x
  _atom_site_fract_y
  _atom_site_fract_z
  _atom_site_occupancy
  Cu  Cu1       1.0  0.1044761276118891  0.0617249785665592  0.7062145157255626  1.0000
  Cu  Cu2       1.0  0.8955155919004125  0.9382831011750598  0.2937891583427825  1.0000
  Cu  Cu3       1.0  0.9000807948712646  0.0557136420968831  0.5152616028985404  1.0000
  Cu  Cu4       1.0  0.0999164570719273  0.944305315619971  0.4847484490012589  1.0000
  H   H1        1.0  0.4312995625536259  0.309341165663831  0.543906322562911  1.0000
  H   H2        1.0  0.5687043214562948  0.69064013752336  0.4560962933468672  1.0000
  H   H3        1.0  0.4135166257414724  0.3958587233311804  0.265161735728597  1.0000
  H   H4        1.0  0.5864705961707058  0.6041342945985733  0.7348440893820578  1.0000
  H   H5        1.0  0.7567052707182141  0.4471366618331701  0.4775972924634074  1.0000
  H   H6        1.0  0.2432937021371657  0.5528471516560033  0.5223923152183756  1.0000
  H   H7        1.0  0.8036234601719839  0.32346077752203684  0.7715715202042047  1.0000
  H   H8        1.0  0.1963742148534138  0.6765456286849343  0.22842526602768484  1.0000
  H   H9        1.0  0.9394370336781178  0.3992133235409483  0.7606595192333285  1.0000
  H   H10       1.0  0.060569137243021494  0.6007955929680051  0.23934133151756495  1.0000
  H   H11       1.0  0.036310908618915505  0.3026846815858448  0.34673797033983067  1.0000
  H   H12       1.0  0.9636920072547707  0.6973359496656715  0.6532796743924292  1.0000
  H   H13       1.0  0.047251228020655796  0.2906837645969631  0.47064087868242405  1.0000
  H   H14       1.0  0.9527434740120879  0.7093259886793106  0.5293664155943388  1.0000
  H   H15       1.0  0.5876651025435818  0.6591283167951332  0.1624330466624712  1.0000
  H   H16       1.0  0.4123498272725357  0.3408647011346204  0.8375631371165821  1.0000
  H   H17       1.0  0.7118849569623862  0.5841414128794753  0.17082091546342326  1.0000
  H   H18       1.0  0.2881347334530843  0.4158482579809757  0.8291929871079088  1.0000
  H   H19       1.0  0.6887938301098088  0.8865834319407924  0.4780258730209893  1.0000
  H   H20       1.0  0.31119176427863954  0.11341544336024613  0.5219834659272209  1.0000
  H   H21       1.0  0.468817359680834  0.8598185922527222  0.38918390850254525  1.0000
  H   H22       1.0  0.531168997011349  0.1401894874888967  0.610832748116806  1.0000
  H   H23       1.0  0.5463026870122646  0.1758064887182726  0.31218927306919386  1.0000
  H   H24       1.0  0.4537147641309289  0.8241806718402032  0.687789606558759  1.0000
  H   H25       1.0  0.761678734027548  0.1859991515157589  0.39939309374666715  1.0000
  H   H26       1.0  0.2383339279329277  0.8139762943001544  0.6005863729465304  1.0000
  H   H27       1.0  0.3154395180512992  0.06692046689342851  0.3410780002221259  1.0000
  H   H28       1.0  0.6845624849634574  0.9330901231501727  0.6589140168242691  1.0000
  H   H29       1.0  0.30765558964459666  0.9238262720844972  0.2930994421287209  1.0000
  H   H30       1.0  0.6923367320884707  0.0761851547264314  0.7068986439552488  1.0000
  H   H31       1.0  0.3763710442386952  0.1101244374672561  0.19177307456128995  1.0000
  H   H32       1.0  0.6236379491199102  0.8898802952050604  0.8082212811157203  1.0000
  H   H33       1.0  0.3643851694244802  0.9651316175957235  0.14282654834225636  1.0000
  H   H34       1.0  0.6356187526966011  0.0348697680072902  0.8571704947766745  1.0000
  H   H35       1.0  0.1613849834165109  0.08987885201572253  0.19216211296510718  1.0000
  H   H36       1.0  0.8386173111808402  0.910128390958576  0.8078391415846794  1.0000
  H   H37       1.0  0.1431218215248578  0.9420042054735946  0.15280737459178076  1.0000
  H   H38       1.0  0.8568807646550879  0.0579996904314015  0.8471842824422282  1.0000
  H   H39       1.0  0.1667359696835362  0.8547218424703189  0.9821033384302564  1.0000
  H   H40       1.0  0.8332682726034972  0.1452912578752645  0.017903471353733384  1.0000
  H   H41       1.0  0.13724850441989392  0.8769371782071576  0.8095128230298767  1.0000
  H   H42       1.0  0.8627486998843492  0.1230566764899237  0.19048518544096985  1.0000
  H   H43       1.0  0.1347859947934111  0.2160257102404088  0.8950613598428204  1.0000
  H   H44       1.0  0.8652098735697038  0.7839706547586545  0.10492637938997965  1.0000
  H   H45       1.0  0.16440346636363048  0.20846719098503294  0.07315935195482129  1.0000
  H   H46       1.0  0.8355968900718195  0.7915392152219385  0.9268295478149609  1.0000
  H   H47       1.0  0.8221724670939068  0.3638373113014525  0.5793642329808718  1.0000
  H   H48       1.0  0.17783178472091518  0.6361808096480814  0.4206294989175773  1.0000
  H   H49       1.0  0.2547618920747113  0.3156010220293198  0.5057109240372739  1.0000
  H   H50       1.0  0.7452291966334669  0.6843886488311313  0.4942964136671718  1.0000
  H   H51       1.0  0.5203199911080674  0.5751319390808973  0.2797399780499318  1.0000
  H   H52       1.0  0.47968153165775357  0.4248610788488635  0.7202593631879209  1.0000
  C   C1        1.0  0.6007296807807805  0.3743420883115149  0.5211424856144546  1.0000
  C   C2        1.0  0.3992602130136688  0.6256459090142812  0.4788476031205348  1.0000
  C   C3        1.0  0.47470040000337116  0.3408086377237823  0.49212828926975033  1.0000
  C   C4        1.0  0.5252936616974608  0.6591776860673663  0.5078678427965285  1.0000
  C   C5        1.0  0.4079277652706209  0.3474743262423559  0.3996059462437812  1.0000
  C   C6        1.0  0.5920661458750232  0.6525111607814651  0.6003907108269643  1.0000
  C   C7        1.0  0.4676078334556593  0.3902155644849259  0.3365127416503951  1.0000
  C   C8        1.0  0.5323910174278906  0.6097824740487852  0.6634904768769656  1.0000
  C   C9        1.0  0.5927973692372177  0.4264090984018837  0.3656622120439577  1.0000
  C   C10       1.0  0.4072026479767032  0.5735755518546172  0.6343326129322974  1.0000
  C   C11       1.0  0.6595355085019321  0.4160097540748851  0.457024593058783  1.0000
  C   C12       1.0  0.3404619778571174  0.583975732948936  0.5429685246621786  1.0000
  C   C13       1.0  0.6656957792578169  0.3657083230422913  0.62190743371886  1.0000
  C   C14       1.0  0.3343053204257984  0.6342972463973524  0.37809052372753627  1.0000
  C   C15       1.0  0.8592951944171932  0.3356282112087784  0.7204378717509029  1.0000
  C   C16       1.0  0.1407115596691284  0.6643740111615628  0.279564711767513  1.0000
  C   C17       1.0  0.903915769014766  0.2256401668156514  0.6846064800307798  1.0000
  C   C18       1.0  0.0960787824627829  0.7743687496932949  0.31539854887723345  1.0000
  C   C19       1.0  0.2728460727188775  0.3139559374664884  0.36388317675198306  1.0000
  C   C20       1.0  0.7271509810301778  0.6860370804632652  0.6361237278429639  1.0000
  C   C21       1.0  0.084364476795173  0.268234134008857  0.40641206968729177  1.0000
  C   C22       1.0  0.9156373851921841  0.7317806398713742  0.5936008789565718  1.0000
  C   C23       1.0  0.06045157205148399  0.1397652464546368  0.3732365800090705  1.0000
  C   C24       1.0  0.9395374469951887  0.8602327920790742  0.6267557927277564  1.0000
  C   C25       1.0  0.6585729942457874  0.4832624175967197  0.30483966156374004  1.0000
  C   C26       1.0  0.34142568702699794  0.516724742961749  0.6951588460405274  1.0000
  C   C27       1.0  0.6550918711348217  0.627588882745151  0.21290981980239815  1.0000
  C   C28       1.0  0.3449196340230714  0.37240497195193  0.7870942614751043  1.0000
  C   C29       1.0  0.7383543797697669  0.7294569370071926  0.2900710860667103  1.0000
  C   C30       1.0  0.26165548833660784  0.2705377544572158  0.7099419134075475  1.0000
  C   C31       1.0  0.6515502858613402  0.9475235227556029  0.4400497968426932  1.0000
  C   C32       1.0  0.3484388742127322  0.05247033194147831  0.5599537335885998  1.0000
  C   C33       1.0  0.5300952005342978  0.9346389794705132  0.3909294226282539  1.0000
  C   C34       1.0  0.4699045536803935  0.0653640796671482  0.6090797145852633  1.0000
  C   C35       1.0  0.4872650415659691  0.0164583765342527  0.3438283355112118  1.0000
  C   C36       1.0  0.512737535086181  0.983540498766786  0.6561757018150229  1.0000
  C   C37       1.0  0.5726948976277484  0.10868352413195481  0.3470042473882059  1.0000
  C   C38       1.0  0.4273118374030033  0.8913086570304714  0.6529826363031005  1.0000
  C   C39       1.0  0.6929598915732597  0.11615585635275491  0.39628069669642935  1.0000
  C   C40       1.0  0.3070498164501387  0.8838329777403688  0.6037089332227764  1.0000
  C   C41       1.0  0.3553637956433349  0.0068012448253825  0.29503106890251013  1.0000
  C   C42       1.0  0.6446423752778117  0.9932076716835709  0.7049662938818669  1.0000
  C   C43       1.0  0.3291065131851951  0.0272777780588811  0.19103064427989114  1.0000
  C   C44       1.0  0.6708992060703736  0.97272862814809  0.808966200737977  1.0000
  C   C45       1.0  0.19245058522744776  0.021338403579235905  0.14779038106189546  1.0000
  C   C46       1.0  0.8075555856936915  0.9786705129297106  0.8522104696890053  1.0000
  C   C47       1.0  0.1686514358294815  0.030524435283595608  0.04284820796470971  1.0000
  C   C48       1.0  0.8313523547919812  0.9694861547600057  0.9571504105264307  1.0000
  C   C49       1.0  0.16087254369045917  0.9370254398841454  0.9666806015524825  1.0000
  C   C50       1.0  0.8391275211624033  0.0629843133921284  0.0333206861062934  1.0000
  C   C51       1.0  0.144873078333795  0.9481259952302921  0.870429548086001  1.0000
  C   C52       1.0  0.8551277202394372  0.0518779006746968  0.12957434252243863  1.0000
  C   C53       1.0  0.1430236702722851  0.1383586405797033  0.918664005374296  1.0000
  C   C54       1.0  0.8569668447984995  0.8616427450233104  0.08132573130387746  1.0000
  C   C55       1.0  0.1591667890361066  0.1330142076688148  0.016698654385883988  1.0000
  C   C56       1.0  0.8408329842341615  0.8669988926767617  0.9833003717025333  1.0000
  N   N1        1.0  0.7875080824082871  0.3717606611109403  0.6391331399815101  1.0000
  N   N2        1.0  0.2124974862920936  0.6282449083287034  0.3608649276341183  1.0000
  N   N3        1.0  0.21152752671550698  0.3129819402990748  0.4343454836643801  1.0000
  N   N4        1.0  0.7884744477158847  0.6870135879326612  0.5656641416462306  1.0000
  N   N5        1.0  0.5947394295211836  0.5516773509343125  0.2575005611872426  1.0000
  N   N6        1.0  0.4052670139269736  0.4483181772974235  0.7425028959528817  1.0000
  N   N7        1.0  0.7313052170121495  0.0371717149210014  0.4425955230760578  1.0000
  N   N8        1.0  0.2686817037896461  0.9628196294741045  0.5574001905506732  1.0000
  N   N9        1.0  0.1359774807711531  0.0473593571145301  0.8465767602385981  1.0000
  N   N10       1.0  0.8640173432334137  0.9526361711172059  0.15342529431222118  1.0000
  O   O1        1.0  0.6097171676241331  0.3526748351731825  0.6853095137962055  1.0000
  O   O2        1.0  0.3902912425692904  0.647336591637746  0.31469496819943993  1.0000
  O   O3        1.0  0.8864552728569706  0.19790551379680474  0.589850040276083  1.0000
  O   O4        1.0  0.11354657960259831  0.8021042394794764  0.4101557560475299  1.0000
  O   O5        1.0  0.9514984109375034  0.17515464697135033  0.7459837320761409  1.0000
  O   O6        1.0  0.04849868092270534  0.8248584533742263  0.25401132138823357  1.0000
  O   O7        1.0  0.22120766894462204  0.2927053944564761  0.2744098426949576  1.0000
  O   O8        1.0  0.7787812186024397  0.7073018485178224  0.7255980572801448  1.0000
  O   O9        1.0  0.1437096326040006  0.08417879299130251  0.38543919322601977  1.0000
  O   O10       1.0  0.856279565581225  0.9158351441216086  0.6145594620077329  1.0000
  O   O11       1.0  0.9460483375266192  0.09997612333804541  0.3353298451508308  1.0000
  O   O12       1.0  0.053931160321340585  0.9000286093342709  0.6646745263460544  1.0000
  O   O13       1.0  0.7628406925001343  0.4696172528123341  0.30048497354166404  1.0000
  O   O14       1.0  0.23715648322075106  0.5303615400728745  0.6995111105809072  1.0000
  O   O15       1.0  0.7490079422935878  0.7377894660390752  0.37916879716269847  1.0000
  O   O16       1.0  0.2509853856868673  0.2622027151233581  0.6208407765998913  1.0000
  O   O17       1.0  0.7875395010702491  0.7970518383653414  0.2462960233902719  1.0000
  O   O18       1.0  0.2124721451150435  0.2029378324951097  0.7537150300218725  1.0000
  O   O19       1.0  0.0650114749969006  0.0641808906682471  0.5723758736257877  1.0000
  O   O20       1.0  0.9349867641381024  0.935808780192204  0.42761880463266516  1.0000
