data_image0
_chemical_formula_structural       Al2H6C24S12O30
_chemical_formula_sum              "Al2 H6 C24 S12 O30"
_cell_length_a       4.3963317022105235
_cell_length_b       19.90510007788872
_cell_length_c       19.904620005601387
_cell_angle_alpha    119.99979563341583
_cell_angle_beta     90.00056955105028
_cell_angle_gamma    89.9988747708991

_space_group_name_H-M_alt    "P 1"
_space_group_IT_number       1

loop_
  _space_group_symop_operation_xyz
  'x, y, z'

loop_
  _atom_site_type_symbol
  _atom_site_label
  _atom_site_symmetry_multiplicity
  _atom_site_fract_x
  _atom_site_fract_y
  _atom_site_fract_z
  _atom_site_occupancy
  Al  Al1       1.0  0.9708893452839004  0.5000022993880789  0.5000025830244255  1.0000
  Al  Al2       1.0  0.9703112468416817  0.16666077050039269  0.8333280402789426  1.0000
  H   H1        1.0  0.02968039424781919  0.533471581084292  0.8001336141888868  1.0000
  H   H2        1.0  0.029048501673649692  0.13318551928120564  0.5332240822670115  1.0000
  H   H3        1.0  0.029473660672472594  0.7666403794198331  0.46652673572332043  1.0000
  H   H4        1.0  0.029044576125130596  0.9000369444160655  0.8668166833491142  1.0000
  H   H5        1.0  0.029434534394375995  0.1998958748512507  0.23335149050862466  1.0000
  H   H6        1.0  0.0292399189621761  0.4667885856924414  0.09996384409431866  1.0000
  C   C1        1.0  0.47961574246518507  0.4506696544836686  0.3853471174487311  1.0000
  C   C2        1.0  0.47961788666689387  0.43467694250660566  0.5493337014241674  1.0000
  C   C3        1.0  0.47962386682681296  0.6146524787999323  0.5653188103953184  1.0000
  C   C4        1.0  0.47904082922369173  0.23197039013327692  0.7839755717630863  1.0000
  C   C5        1.0  0.47903257504403024  0.05199600305822125  0.7680194575490944  1.0000
  C   C6        1.0  0.47904752147282176  0.21602086788353597  0.9479943239829963  1.0000
  C   C7        1.0  0.5193427721339035  0.42978767258955475  0.6783321062248574  1.0000
  C   C8        1.0  0.519102917492077  0.23685067299581425  0.6549799551877626  1.0000
  C   C9        1.0  0.519101278856489  0.39792408926692957  0.5984663851896028  1.0000
  C   C10       1.0  0.518662022831087  0.2687343017368065  0.734847736914567  1.0000
  C   C11       1.0  0.545974499027288  0.2958219753850386  0.6343569900415174  1.0000
  C   C12       1.0  0.5459726130083522  0.370824640118151  0.6989657779699596  1.0000
  C   C13       1.0  0.5193374826488578  0.74853640892983  0.5702094228622981  1.0000
  C   C14       1.0  0.5190772443061532  0.9181254629343485  0.7631473554689662  1.0000
  C   C15       1.0  0.5190924098789081  0.7005396903543472  0.602076379455795  1.0000
  C   C16       1.0  0.5186695005291568  0.9661011604879092  0.7312582158688699  1.0000
  C   C17       1.0  0.5459518661481367  0.8385330214620906  0.7041785251904144  1.0000
  C   C18       1.0  0.5459620081850572  0.8281377836232124  0.6291722195953965  1.0000
  C   C19       1.0  0.519276534592066  0.3216792023924597  0.2514596662169879  1.0000
  C   C20       1.0  0.5191693027981328  0.34502978052380934  0.08186723407231251  1.0000
  C   C21       1.0  0.5190989104687345  0.40154323474657616  0.2994627398486854  1.0000
  C   C22       1.0  0.5186804628436974  0.2651625327838474  0.0338864686218869  1.0000
  C   C23       1.0  0.5460061910649187  0.3656507253079937  0.16146307085047334  1.0000
  C   C24       1.0  0.5459228724390215  0.3010433762875451  0.17185950599900218  1.0000
  S   S1        1.0  0.5445212721225017  0.29768356944337887  0.5487662578362275  1.0000
  S   S2        1.0  0.544252739331  0.3689836145357717  0.7845701107155563  1.0000
  S   S3        1.0  0.5444817692492023  0.7510828522765891  0.7023211911449891  1.0000
  S   S4        1.0  0.5442749277141984  0.9155736235987391  0.6310117366593316  1.0000
  S   S5        1.0  0.5445849838414317  0.4512399259967522  0.2489175543971739  1.0000
  S   S6        1.0  0.5441618818564746  0.2154473920277837  0.08442085635682867  1.0000
  S   S7        1.0  0.46354342644046637  0.528687112215465  0.748435520621598  1.0000
  S   S8        1.0  0.4630931378438061  0.13795880301694302  0.5848682048478153  1.0000
  S   S9        1.0  0.4634331072183925  0.7197452266942149  0.47130900486948235  1.0000
  S   S10       1.0  0.4630815103086972  0.9469060251764959  0.8620415514170856  1.0000
  S   S11       1.0  0.463390535277405  0.251572062150302  0.28024988184578337  1.0000
  S   S12       1.0  0.4632439026801334  0.4151399426691498  0.0530832784770752  1.0000
  O   O1        1.0  0.6977143524458994  0.577918486583556  0.5744944305893469  1.0000
  O   O2        1.0  0.697737283500011  0.49657661194244435  0.4220813459015886  1.0000
  O   O3        1.0  0.697735468189954  0.4255055827741217  0.5034268780803686  1.0000
  O   O4        1.0  0.22639044293657654  0.588457452355854  0.5324323457453984  1.0000
  O   O5        1.0  0.22643048842887475  0.46756540694693177  0.5560253070727583  1.0000
  O   O6        1.0  0.22643737448028384  0.4439794937091577  0.41154534588804376  1.0000
  O   O7        1.0  0.6970395711177844  0.17008154889344212  0.911240282062003  1.0000
  O   O8        1.0  0.6970322884860279  0.24115009678140345  0.8299143129174593  1.0000
  O   O9        1.0  0.6970534032897076  0.08875490122459692  0.7588401041111297  1.0000
  O   O10       1.0  0.22578093821820028  0.2226888998837281  0.9218082545488212  1.0000
  O   O11       1.0  0.2257892013215397  0.07818455357990921  0.8008763028426172  1.0000
  O   O12       1.0  0.2257650768072352  0.19911818851593213  0.7773040476015608  1.0000
  O   O13       1.0  0.7436764901160158  0.5612457761231083  0.7912598726167557  1.0000
  O   O14       1.0  0.32370153471688207  0.5690746160003428  0.7139978027939405  1.0000
  O   O15       1.0  0.25348816481059083  0.5205553955437876  0.8068151552959361  1.0000
  O   O16       1.0  0.7431157143337257  0.10537807705001268  0.5419893591904454  1.0000
  O   O17       1.0  0.3233769609563025  0.0975890128177426  0.6193450743338076  1.0000
  O   O18       1.0  0.2528843865193124  0.14613800615665434  0.5265484881617795  1.0000
  O   O19       1.0  0.7434858489376167  0.7300286702291245  0.43872793570447044  1.0000
  O   O20       1.0  0.32363943884599417  0.6449134995525583  0.4309201060092248  1.0000
  O   O21       1.0  0.25328239625935817  0.7862478343315543  0.4794613472602902  1.0000
  O   O22       1.0  0.7431070723776682  0.9366088314761567  0.8946211076431607  1.0000
  O   O23       1.0  0.3233435221882104  0.02175372936310533  0.9024101278435664  1.0000
  O   O24       1.0  0.2528885964566143  0.8804087772803086  0.8538646510345345  1.0000
  O   O25       1.0  0.7434597990743439  0.2087180311894556  0.2699674927393332  1.0000
  O   O26       1.0  0.3235991448423333  0.2860175716198867  0.3550861564344458  1.0000
  O   O27       1.0  0.25325508034961786  0.193220127093376  0.21374651546355486  1.0000
  O   O28       1.0  0.7433052582659838  0.4580035300540075  0.06337701965026805  1.0000
  O   O29       1.0  0.3235020957279885  0.38066699753333205  0.9782387937019904  1.0000
  O   O30       1.0  0.25306985393048353  0.4734694135643877  0.1195858928363051  1.0000
