data_image0
_chemical_formula_structural       Cd2Si2H56C40N16F12
_chemical_formula_sum              "Cd2 Si2 H56 C40 N16 F12"
_cell_length_a       10.358174216339766
_cell_length_b       10.358134975985033
_cell_length_c       15.730999652350434
_cell_angle_alpha    89.37339409834497
_cell_angle_beta     89.37377456648456
_cell_angle_gamma    96.60490500382735

_space_group_name_H-M_alt    "P 1"
_space_group_IT_number       1

loop_
  _space_group_symop_operation_xyz
  'x, y, z'

loop_
  _atom_site_type_symbol
  _atom_site_label
  _atom_site_symmetry_multiplicity
  _atom_site_fract_x
  _atom_site_fract_y
  _atom_site_fract_z
  _atom_site_occupancy
  Cd  Cd1       1.0  0.9856107458435445  0.014381823135863706  0.7500001264779286  1.0000
  Cd  Cd2       1.0  0.014382744070203967  0.9856236615404085  0.24999965708764899  1.0000
  Si  Si1       1.0  2.480985202201697e-06  2.521751426302012e-06  0.9999991209084057  1.0000
  Si  Si2       1.0  1.1704475185000089e-06  7.63503386699509e-07  0.5000008340000619  1.0000
  H   H1        1.0  0.08920748450748309  0.8207649608770708  0.8921308434018441  1.0000
  H   H2        1.0  0.09037461343249481  0.22326658804762906  0.6044696371867673  1.0000
  H   H3        1.0  0.8116784404258012  0.7516068210810403  0.6580225222155747  1.0000
  H   H4        1.0  0.8390169675740609  0.5863867009360887  0.6412150190585564  1.0000
  H   H5        1.0  0.9438250163133259  0.7165946080611149  0.5941475683367371  1.0000
  H   H6        1.0  0.2579692534985938  0.6368642492745309  0.9190066640173669  1.0000
  H   H7        1.0  0.20228262661697016  0.48247675185644556  0.8753553787156179  1.0000
  H   H8        1.0  0.11429950382247972  0.5468642142544623  0.9593603549907141  1.0000
  H   H9        1.0  0.8394815672930348  0.2363059686069136  0.856557087674389  1.0000
  H   H10       1.0  0.8719779053642398  0.4078114646929548  0.8718124823996476  1.0000
  H   H11       1.0  0.9829620959659665  0.30008287949249285  0.9071909467382325  1.0000
  H   H12       1.0  0.08720774064825318  0.5127377445082786  0.5308439499780064  1.0000
  H   H13       1.0  0.23538010952916716  0.4529373456660012  0.5573486508546068  1.0000
  H   H14       1.0  0.1875925330915393  0.5936191591308102  0.6084022020190575  1.0000
  H   H15       1.0  0.1792334990781299  0.9107772800658154  0.6078726944849888  1.0000
  H   H16       1.0  0.7767323463196049  0.9096296783160724  0.8955332245733771  1.0000
  H   H17       1.0  0.2483908426409371  0.188311935537989  0.8419757319353849  1.0000
  H   H18       1.0  0.41360962826929176  0.1609749874906754  0.8587830185777037  1.0000
  H   H19       1.0  0.2834049165433044  0.05616649262538689  0.9058516749761552  1.0000
  H   H20       1.0  0.3631397360601127  0.7420200449789718  0.5809912484390835  1.0000
  H   H21       1.0  0.5175268091324908  0.7977116744604869  0.6246440032947334  1.0000
  H   H22       1.0  0.45313517246000146  0.8856993400096016  0.5406374217778378  1.0000
  H   H23       1.0  0.7636916715283774  0.16051716456269113  0.6434454986245441  1.0000
  H   H24       1.0  0.5921853677025553  0.1280292908631964  0.6281878647284671  1.0000
  H   H25       1.0  0.6999107688795972  0.0170385149978216  0.5928111856748897  1.0000
  H   H26       1.0  0.48726900494612824  0.912791474536213  0.9691569916345342  1.0000
  H   H27       1.0  0.5470654581768314  0.7646204287230773  0.9426572042958623  1.0000
  H   H28       1.0  0.4063830179494303  0.8124024862619876  0.8916058078544464  1.0000
  H   H29       1.0  0.910787706216837  0.1792385748367522  0.10786830539255018  1.0000
  H   H30       1.0  0.9096312905479208  0.7767378428615785  0.3955313751412958  1.0000
  H   H31       1.0  0.1883192384301182  0.24839287348929415  0.34196963888861376  1.0000
  H   H32       1.0  0.16098527805216634  0.41361099988209565  0.3587796752177751  1.0000
  H   H33       1.0  0.056180581479431196  0.2834069527546461  0.40584837026622717  1.0000
  H   H34       1.0  0.742024136253974  0.36314028060626674  0.0809912163898332  1.0000
  H   H35       1.0  0.7977133114993861  0.5175248517271669  0.12464186740982798  1.0000
  H   H36       1.0  0.8856947334833122  0.45313933829159947  0.0406375259059075  1.0000
  H   H37       1.0  0.1605223899213399  0.7636984560176002  0.1434458391082032  1.0000
  H   H38       1.0  0.12803184081099767  0.5921929274224169  0.128190422769471  1.0000
  H   H39       1.0  0.017048531987335018  0.699920569530292  0.09280814442023198  1.0000
  H   H40       1.0  0.9127998660253951  0.487272546724178  0.4691532196977519  1.0000
  H   H41       1.0  0.7646299884668578  0.5470699621990107  0.44265424203951653  1.0000
  H   H42       1.0  0.8124107940043855  0.40638816954046325  0.3916026233408232  1.0000
  H   H43       1.0  0.820763651759343  0.08921066048237239  0.39212904836711  1.0000
  H   H44       1.0  0.22326508595013908  0.0903767223618459  0.1044703549916264  1.0000
  H   H45       1.0  0.7516106537105927  0.8116798881247008  0.1580240728910312  1.0000
  H   H46       1.0  0.5863910376414408  0.8390178306278315  0.1412148785092526  1.0000
  H   H47       1.0  0.716599107238103  0.943830191197719  0.09414683068742848  1.0000
  H   H48       1.0  0.6368538071297322  0.2579698781961497  0.4190085933886322  1.0000
  H   H49       1.0  0.48247315884081143  0.20227531786575534  0.3753532825922008  1.0000
  H   H50       1.0  0.5468597158981365  0.11429352203209933  0.459359225422574  1.0000
  H   H51       1.0  0.2363020453457594  0.8394824489539588  0.35655812038883977  1.0000
  H   H52       1.0  0.4078078705515722  0.8719742328589035  0.3718138342704762  1.0000
  H   H53       1.0  0.3000829536986842  0.9829611042258506  0.40719179758848156  1.0000
  H   H54       1.0  0.5127299259291861  0.08720325830260123  0.030845354723673796  1.0000
  H   H55       1.0  0.4529336958373875  0.23537623653478335  0.0573464053790431  1.0000
  H   H56       1.0  0.5936146850311701  0.1875902796267965  0.1083997290393981  1.0000
  C   C1        1.0  0.886386306156453  0.6853565424482541  0.651424692151174  1.0000
  C   C2        1.0  0.9686331570040281  0.6872473472084693  0.728672680688099  1.0000
  C   C3        1.0  0.03235984055169181  0.5844988220372543  0.7628413726804764  1.0000
  C   C4        1.0  0.09355732566042718  0.6345900868498049  0.8364229027807468  1.0000
  C   C5        1.0  0.17133026428874834  0.5722646409733443  0.9008791434886376  1.0000
  C   C6        1.0  0.9156041046755379  0.31912023231324577  0.8562818203968519  1.0000
  C   C7        1.0  0.982900178391446  0.3356119479800698  0.7720099811359019  1.0000
  C   C8        1.0  0.03308391409010621  0.45324304523443004  0.7305572437758698  1.0000
  C   C9        1.0  0.08560177432774908  0.4162860422493324  0.6532433152141977  1.0000
  C   C10       1.0  0.15261512048161308  0.4974411563686587  0.5836871606759145  1.0000
  C   C11       1.0  0.3146374510957273  0.113600227072908  0.8485719906301694  1.0000
  C   C12       1.0  0.3127456173949311  0.031350398227999704  0.7713273709967866  1.0000
  C   C13       1.0  0.4154932252100565  0.9676306650233645  0.737155566382917  1.0000
  C   C14       1.0  0.36541214815373724  0.9064323818623305  0.6635772037959313  1.0000
  C   C15       1.0  0.4277374624611738  0.8286613721784659  0.599119990580206  1.0000
  C   C16       1.0  0.6808743371399258  0.08439876342367822  0.6437188401711181  1.0000
  C   C17       1.0  0.6643830538670984  0.017099382723891703  0.7279908010746536  1.0000
  C   C18       1.0  0.5467592898375813  0.9669117427587893  0.7694431037900529  1.0000
  C   C19       1.0  0.583713188220976  0.9143932035862791  0.8467546989420072  1.0000
  C   C20       1.0  0.5025637465853308  0.8473808813043887  0.9163139760175054  1.0000
  C   C21       1.0  0.11361243768745061  0.3146441014993613  0.348569368509132  1.0000
  C   C22       1.0  0.03135806854773189  0.312755249675618  0.2713252151069199  1.0000
  C   C23       1.0  0.9676382731737618  0.4155047259571206  0.237154586557125  1.0000
  C   C24       1.0  0.9064392045280484  0.3654163820235752  0.16357368713636328  1.0000
  C   C25       1.0  0.8286664605179367  0.4277437317839555  0.0991218884952332  1.0000
  C   C26       1.0  0.08440252958450149  0.6808822493446698  0.14371919651229353  1.0000
  C   C27       1.0  0.01710100161608349  0.6643934648155607  0.2279929523617668  1.0000
  C   C28       1.0  0.9669141939312097  0.5467604970529152  0.26943935121174417  1.0000
  C   C29       1.0  0.9143962937645824  0.5837174600888488  0.3467577300234979  1.0000
  C   C30       1.0  0.8473912582973212  0.5025671679137673  0.4163131995354803  1.0000
  C   C31       1.0  0.685359003686969  0.8863896969687132  0.1514259331407715  1.0000
  C   C32       1.0  0.6872526155429524  0.968638508818543  0.22867436416139944  1.0000
  C   C33       1.0  0.5844944345618827  0.0323583415724471  0.2628417581498894  1.0000
  C   C34       1.0  0.6345884664197285  0.0935603848929532  0.33642641504114573  1.0000
  C   C35       1.0  0.5722588864562113  0.1713275913606509  0.400876665782377  1.0000
  C   C36       1.0  0.3191226260354297  0.9156037495880439  0.35628475576054086  1.0000
  C   C37       1.0  0.3356121197448018  0.9829041358688569  0.27201025496977843  1.0000
  C   C38       1.0  0.4532462661435375  0.033081968822095596  0.23056049294412864  1.0000
  C   C39       1.0  0.41628346876672145  0.0856064393319969  0.1532438232645461  1.0000
  C   C40       1.0  0.4974348381733336  0.15261094149180107  0.08368774686569218  1.0000
  N   N1        1.0  0.9905766008349489  0.7924731765750082  0.7782130477525726  1.0000
  N   N2        1.0  0.06734819199630238  0.7587954645318717  0.8420430501419176  1.0000
  N   N3        1.0  0.004091143809546296  0.23444578078565567  0.7229085859062109  1.0000
  N   N4        1.0  0.0663637520383418  0.28510767710893953  0.6518090655311752  1.0000
  N   N5        1.0  0.2075229249053621  0.009406046102157003  0.7217861781584671  1.0000
  N   N6        1.0  0.24120336755995447  0.93263235953156  0.6579574111499795  1.0000
  N   N7        1.0  0.7655511609652024  0.9959139632718818  0.7770934319264384  1.0000
  N   N8        1.0  0.7148900762875954  0.93363945257407  0.8481955245615537  1.0000
  N   N9        1.0  0.009415935660264595  0.2075323249335099  0.22178546791521817  1.0000
  N   N10       1.0  0.9326424091411525  0.2412100421059975  0.15795610848038416  1.0000
  N   N11       1.0  0.9959146428972759  0.7655576782070027  0.2770924305135196  1.0000
  N   N12       1.0  0.9336401050148595  0.7148957927200997  0.3481919580930465  1.0000
  N   N13       1.0  0.7924718176584875  0.9905858154878687  0.2782136518836751  1.0000
  N   N14       1.0  0.7587927296978166  0.0673546430533918  0.3420411606459695  1.0000
  N   N15       1.0  0.234447347700808  0.004093398197369401  0.2229107756946647  1.0000
  N   N16       1.0  0.2851080691493451  0.066364981731482  0.15180996683456266  1.0000
  F   F1        1.0  0.01756370799779461  0.05437292474213249  0.8963127189051434  1.0000
  F   F2        1.0  0.12269342115332899  0.9040604574482385  0.9840572575732907  1.0000
  F   F3        1.0  0.8877270698518417  0.8747461265363086  0.9691847207817685  1.0000
  F   F4        1.0  0.9456270425761913  0.9824419130256743  0.6036858936609162  1.0000
  F   F5        1.0  0.09594038620598871  0.8773073980062451  0.5159441952556136  1.0000
  F   F6        1.0  0.12525612649563558  0.11227329483637052  0.5308197329433708  1.0000
  F   F7        1.0  0.9824453535309486  0.9456334622807248  0.1036850956827919  1.0000
  F   F8        1.0  0.8773144295931348  0.09594397974566249  0.015941840300250497  1.0000
  F   F9        1.0  0.11227885124100112  0.12525832149397334  0.030814384296256495  1.0000
  F   F10       1.0  0.054374756141506  0.017560584309144603  0.3963164127594893  1.0000
  F   F11       1.0  0.9040640952615178  0.12269316206900531  0.4840555655413326  1.0000
  F   F12       1.0  0.8747461508420713  0.8877252922929912  0.4691844934914826  1.0000
