data_image0
_chemical_formula_structural       Cd4H44C36S2N8O20
_chemical_formula_sum              "Cd4 H44 C36 S2 N8 O20"
_cell_length_a       10.407847641484137
_cell_length_b       12.1459204994692
_cell_length_c       12.360264275142034
_cell_angle_alpha    80.60064267510707
_cell_angle_beta     68.75118533708753
_cell_angle_gamma    70.57830643642994

_space_group_name_H-M_alt    "P 1"
_space_group_IT_number       1

loop_
  _space_group_symop_operation_xyz
  'x, y, z'

loop_
  _atom_site_type_symbol
  _atom_site_label
  _atom_site_symmetry_multiplicity
  _atom_site_fract_x
  _atom_site_fract_y
  _atom_site_fract_z
  _atom_site_occupancy
  Cd  Cd1       1.0  0.39976211932665956  0.7010236480033001  0.018518924847789758  1.0000
  Cd  Cd2       1.0  0.6002369700445271  0.2989773841407271  0.98148055390341  1.0000
  Cd  Cd3       1.0  0.03870002166767958  0.5106608206889052  0.8147627538056244  1.0000
  Cd  Cd4       1.0  0.9613000962514419  0.48934021777584746  0.18523640815696762  1.0000
  H   H1        1.0  0.008635962201203962  0.639987721731714  0.43585319813911394  1.0000
  H   H2        1.0  0.9913650975967842  0.3600080666688967  0.5641465751751229  1.0000
  H   H3        1.0  0.09964841548153196  0.6996343756896337  0.22406414416827405  1.0000
  H   H4        1.0  0.9003536728643906  0.3003614190317023  0.7759353123573548  1.0000
  H   H5        1.0  0.5217831067761695  0.5946515683080236  0.223186920005226  1.0000
  H   H6        1.0  0.4782173370010198  0.40534861580069065  0.7768139066651687  1.0000
  H   H7        1.0  0.44823652200646796  0.5318727986028763  0.43303497723268713  1.0000
  H   H8        1.0  0.5517619067361891  0.46813001085741496  0.566966826751795  1.0000
  H   H9        1.0  0.9875735565280407  0.07838954308106592  0.050873200696791736  1.0000
  H   H10       1.0  0.012423848759475088  0.9216132208561094  0.9491256888483622  1.0000
  H   H11       1.0  0.362529167218554  0.07717229485271561  0.12539193730884077  1.0000
  H   H12       1.0  0.6374660879380017  0.9228252490611482  0.8746125529887367  1.0000
  H   H13       1.0  0.8797655121748279  0.2869735521637935  0.10278865435932265  1.0000
  H   H14       1.0  0.12023259070976176  0.713030111652536  0.8972114849173496  1.0000
  H   H15       1.0  0.23635180393450386  0.2846354728551574  0.18041694929310387  1.0000
  H   H16       1.0  0.7636434499488588  0.7153620808593006  0.8195883488114506  1.0000
  H   H17       1.0  0.3505408095072653  0.725835034300438  0.7673263618246083  1.0000
  H   H18       1.0  0.6494605825147916  0.2741598507411426  0.23267103716251825  1.0000
  H   H19       1.0  0.358647752421369  0.7116265881852756  0.5924063914088296  1.0000
  H   H20       1.0  0.6413577984001791  0.28837094053103124  0.40758846854671305  1.0000
  H   H21       1.0  0.531064770527543  0.6660807746034081  0.4829154010681053  1.0000
  H   H22       1.0  0.4689425038926062  0.33391767991397364  0.5170820074443156  1.0000
  H   H23       1.0  0.43677926638879666  0.8183021399596985  0.4981049895890168  1.0000
  H   H24       1.0  0.5632286648402811  0.18169456664321607  0.5018925171110808  1.0000
  H   H25       1.0  0.6828645093788952  0.8291536856955944  0.5498790385171405  1.0000
  H   H26       1.0  0.3171355588396878  0.17084477357971653  0.4501246265505047  1.0000
  H   H27       1.0  0.7375224425024598  0.68219091534381  0.5078076323843919  1.0000
  H   H28       1.0  0.2624797248733374  0.317810194565979  0.4921957428428812  1.0000
  H   H29       1.0  0.7291397464905246  0.7096214655350437  0.6483229978648025  1.0000
  H   H30       1.0  0.2708565346675725  0.2903761043007337  0.35168279125812785  1.0000
  H   H31       1.0  0.30417836472956583  0.2816968295226374  0.8403117097436169  1.0000
  H   H32       1.0  0.6958216996694163  0.7183016591544698  0.1596943787449875  1.0000
  H   H33       1.0  0.09593964422878536  0.13184854456652326  0.7756835545110835  1.0000
  H   H34       1.0  0.9040618828896858  0.8681541858499527  0.22430922103770704  1.0000
  H   H35       1.0  0.20523783577973367  0.9942788595567792  0.8154318490165056  1.0000
  H   H36       1.0  0.7947626194562646  0.005721236346538201  0.1845617073910263  1.0000
  H   H37       1.0  0.2560228727836247  0.05203918376584232  0.6683246957988588  1.0000
  H   H38       1.0  0.7439831364460048  0.9479653555705241  0.3316688210401325  1.0000
  H   H39       1.0  0.5066281101396014  0.048372351993314994  0.6985362204957328  1.0000
  H   H40       1.0  0.4933757489590674  0.9516269673197331  0.30146289709567514  1.0000
  H   H41       1.0  0.43165883026506446  0.9830533439017658  0.8370773939551344  1.0000
  H   H42       1.0  0.568343673154402  0.016946833247189406  0.16292118352406262  1.0000
  H   H43       1.0  0.47708751183854053  0.11405779313025025  0.8287689661458872  1.0000
  H   H44       1.0  0.5229139617597909  0.8859423874985807  0.17123073592890853  1.0000
  C   C1        1.0  0.16931721910490433  0.548744486319862  0.5789931444988171  1.0000
  C   C2        1.0  0.8306839260889587  0.45125656826621025  0.42100650848214394  1.0000
  C   C3        1.0  0.22074097215978844  0.5834458904147796  0.45160215981007223  1.0000
  C   C4        1.0  0.7792581146649978  0.41655516133044307  0.5483989345551026  1.0000
  C   C5        1.0  0.1225031997457009  0.631414908408459  0.3912874726916159  1.0000
  C   C6        1.0  0.8774975341942197  0.3685817343481901  0.608710635914811  1.0000
  C   C7        1.0  0.172965213573363  0.6643980173274998  0.2741089879435493  1.0000
  C   C8        1.0  0.8270362179636308  0.33559952530831083  0.725890370394396  1.0000
  C   C9        1.0  0.4089520855982727  0.604590282173895  0.27377746803110636  1.0000
  C   C10       1.0  0.5910497584658643  0.3954116624907371  0.726222626874389  1.0000
  C   C11       1.0  0.3669539058397645  0.5696569716026972  0.39080993880742926  1.0000
  C   C12       1.0  0.6330462528675015  0.43034671465567703  0.609190374698997  1.0000
  C   C13       1.0  0.25659059599305317  0.9339898627360199  0.05719517120694214  1.0000
  C   C14       1.0  0.7434064439214652  0.0660110979629707  0.9428000942795765  1.0000
  C   C15       1.0  0.18302557128478006  0.05961779689653211  0.08835902681318694  1.0000
  C   C16       1.0  0.8169714660833378  0.9403831834036541  0.9116378542873069  1.0000
  C   C17       1.0  0.04563915883547761  0.11940322201063941  0.08153918582320333  1.0000
  C   C18       1.0  0.9543582923329833  0.8806021505177671  0.9184576240378495  1.0000
  C   C19       1.0  0.2532959103019722  0.11953472243524742  0.12402302923058531  1.0000
  C   C20       1.0  0.7467017787822742  0.880464549152855  0.8759771812855278  1.0000
  C   C21       1.0  0.9843760154021693  0.2357846970090804  0.11079841795206147  1.0000
  C   C22       1.0  0.015619005658209076  0.7642189184432908  0.8892002482694966  1.0000
  C   C23       1.0  0.1837944182091817  0.23502171827561819  0.15385632360789717  1.0000
  C   C24       1.0  0.8162039710185384  0.7649784335904499  0.8461435210257593  1.0000
  C   C25       1.0  0.4591587261300205  0.7359790623782987  0.7427443588188967  1.0000
  C   C26       1.0  0.5408385950348206  0.2640184255728145  0.2572538432525563  1.0000
  C   C27       1.0  0.4598998126598772  0.733101068345988  0.5459832173015615  1.0000
  C   C28       1.0  0.5401064332123369  0.26689737985066847  0.4540145079994674  1.0000
  C   C29       1.0  0.6782863136644438  0.7397686364246427  0.5810322707182608  1.0000
  C   C30       1.0  0.32171618848182254  0.26023155052491376  0.41896711456792707  1.0000
  C   C31       1.0  0.23456957573966963  0.24748032603781672  0.8140235574111616  1.0000
  C   C32       1.0  0.7654301653476453  0.7525189973941336  0.1859792507556577  1.0000
  C   C33       1.0  0.20664936746933196  0.07480290778759979  0.7601507785256205  1.0000
  C   C34       1.0  0.7933549143420887  0.9252007351494814  0.23984261317745859  1.0000
  C   C35       1.0  0.43397230307108  0.0669432344066152  0.7884619430572005  1.0000
  C   C36       1.0  0.5660295002049125  0.9330560624643881  0.2115370003044533  1.0000
  S   S1        1.0  0.7325067385175501  0.5157461435192233  0.005589597974896912  1.0000
  S   S2        1.0  0.2674899169259532  0.48425316095055865  0.9944141605577673  1.0000
  N   N1        1.0  0.31395039540274183  0.6514025908006431  0.21626755512732396  1.0000
  N   N2        1.0  0.6860503755057151  0.3485967291514315  0.7837341284438966  1.0000
  N   N3        1.0  0.051531774700890785  0.29228330069849323  0.14733280188725936  1.0000
  N   N4        1.0  0.9484638560142784  0.7077159680487668  0.8526688500130676  1.0000
  N   N5        1.0  0.5298961499680387  0.735483131516503  0.6279463639835116  1.0000
  N   N6        1.0  0.4701059778928212  0.26451532079906315  0.37205505189293586  1.0000
  N   N7        1.0  0.2890298258483739  0.13446291327471732  0.7894498760680053  1.0000
  N   N8        1.0  0.7109699228781491  0.8655363513536404  0.21054808525690322  1.0000
  O   O1        1.0  0.38326601227520013  0.8874807316390517  0.06344706209719678  1.0000
  O   O2        1.0  0.6167365433912123  0.1125220050981497  0.9365453966629718  1.0000
  O   O3        1.0  0.19082546900617794  0.8794414365704885  0.026452800408961342  1.0000
  O   O4        1.0  0.8091622528175509  0.12055697625793733  0.9735570895430216  1.0000
  O   O5        1.0  0.509997084990772  0.7460122182177074  0.8169749284726822  1.0000
  O   O6        1.0  0.48999788891546814  0.253988798444027  0.18302662523996824  1.0000
  O   O7        1.0  0.846626734728396  0.5032948517408115  0.05559298398586078  1.0000
  O   O8        1.0  0.15336987610736935  0.49670183433713094  0.9444120464239207  1.0000
  O   O9        1.0  0.6587293056214422  0.4236384375726416  0.05984564357511601  1.0000
  O   O10       1.0  0.341262252963318  0.5763634438847519  0.9401576192165211  1.0000
  O   O11       1.0  0.800220985477722  0.5037531351828762  0.8778132529955232  1.0000
  O   O12       1.0  0.19977669978692345  0.49624616580702974  0.12218938094154205  1.0000
  O   O13       1.0  0.6253361896252657  0.6337242945833382  0.031970629616388566  1.0000
  O   O14       1.0  0.3746618686515859  0.3662767508411592  0.9680307815374011  1.0000
  O   O15       1.0  0.03536437391326069  0.5567123979043772  0.6258073307929453  1.0000
  O   O16       1.0  0.9646364008147973  0.4432868926459008  0.3741919293573233  1.0000
  O   O17       1.0  0.2595716837214113  0.5148037024583232  0.6336019673109022  1.0000
  O   O18       1.0  0.7404274464379126  0.4851999774793328  0.36639866298414614  1.0000
  O   O19       1.0  0.11278821081889125  0.3100333674373132  0.809814941799431  1.0000
  O   O20       1.0  0.8872112005907623  0.6899668397524721  0.19018862508053774  1.0000
