data_image0
_chemical_formula_structural       Cu4H8C8S2I4N4
_chemical_formula_sum              "Cu4 H8 C8 S2 I4 N4"
_cell_length_a       7.122997149443619
_cell_length_b       7.931743304771333
_cell_length_c       8.704733372562952
_cell_angle_alpha    98.31989910018564
_cell_angle_beta     101.172332685209
_cell_angle_gamma    110.02045237344002

_space_group_name_H-M_alt    "P 1"
_space_group_IT_number       1

loop_
  _space_group_symop_operation_xyz
  'x, y, z'

loop_
  _atom_site_type_symbol
  _atom_site_label
  _atom_site_symmetry_multiplicity
  _atom_site_fract_x
  _atom_site_fract_y
  _atom_site_fract_z
  _atom_site_occupancy
  Cu  Cu1       1.0  0.33583261427676103  0.9158589155509563  0.8847841449900714  1.0000
  Cu  Cu2       1.0  0.6641636004003857  0.0841446044041234  0.11521311185474305  1.0000
  Cu  Cu3       1.0  0.40228675672072  0.27215472735561264  0.9539074793014991  1.0000
  Cu  Cu4       1.0  0.5977112792696175  0.727843217308667  0.046084738299214216  1.0000
  H   H1        1.0  0.9522674443728719  0.7868145654194836  0.6255401813419752  1.0000
  H   H2        1.0  0.047736505516205306  0.2131902869642772  0.3744584261211941  1.0000
  H   H3        1.0  0.6586972531629983  0.48738324657013976  0.4763792533172619  1.0000
  H   H4        1.0  0.341323314502155  0.5126172743455301  0.523610985363348  1.0000
  H   H5        1.0  0.6826517071413678  0.1933098707657663  0.5536922231330693  1.0000
  H   H6        1.0  0.3173437752921729  0.8066853689271982  0.4463049998596915  1.0000
  H   H7        1.0  0.9592243295114429  0.2289217515451085  0.766109850158678  1.0000
  H   H8        1.0  0.04076940615044584  0.7710722809534118  0.2339087788726602  1.0000
  C   C1        1.0  0.9440607799059748  0.6573885467856897  0.6584907532053563  1.0000
  C   C2        1.0  0.055973933731948484  0.34262153298982406  0.3414994302360697  1.0000
  C   C3        1.0  0.7824660091386803  0.4915212242503557  0.5739585652069579  1.0000
  C   C4        1.0  0.2175356641827833  0.5084684637304521  0.4260411803189825  1.0000
  C   C5        1.0  0.7919867390168349  0.3323005479741994  0.6141738778750607  1.0000
  C   C6        1.0  0.208013251110863  0.6676918981414984  0.3858236703529272  1.0000
  C   C7        1.0  0.10102286024596908  0.5121298558681601  0.8247890115241461  1.0000
  C   C8        1.0  0.8989840034432675  0.48786818711487007  0.17522524287870314  1.0000
  S   S1        1.0  0.2711590445620971  0.5099640491727797  0.9900703060686668  1.0000
  S   S2        1.0  0.7288279053373471  0.49003126273969855  0.00992792428055372  1.0000
  I   I1        1.0  0.3008838725503935  0.07982637773382352  0.1633189510979989  1.0000
  I   I2        1.0  0.6991227837731416  0.9201783709922465  0.8366685666390055  1.0000
  I   I3        1.0  0.2767794996105053  0.1186196073458774  0.6530413620655722  1.0000
  I   I4        1.0  0.7232272399672083  0.8813880864397987  0.3469706753324218  1.0000
  N   N1        1.0  0.10182928158900495  0.6694175090870119  0.779025382718956  1.0000
  N   N2        1.0  0.8981480527523545  0.3305820115799279  0.22097192742428728  1.0000
  N   N3        1.0  0.9510244833508353  0.3469769904602984  0.7349622230207588  1.0000
  N   N4        1.0  0.04894434872324641  0.653015794360158  0.265049004649633  1.0000
