data_image0
_chemical_formula_structural       V8Co4H16C8N4O28
_chemical_formula_sum              "V8 Co4 H16 C8 N4 O28"
_cell_length_a       7.059030315345144
_cell_length_b       9.583443998125475
_cell_length_c       12.366463235272223
_cell_angle_alpha    89.49003606662909
_cell_angle_beta     106.61805084206722
_cell_angle_gamma    90.83595218686418

_space_group_name_H-M_alt    "P 1"
_space_group_IT_number       1

loop_
  _space_group_symop_operation_xyz
  'x, y, z'

loop_
  _atom_site_type_symbol
  _atom_site_label
  _atom_site_symmetry_multiplicity
  _atom_site_fract_x
  _atom_site_fract_y
  _atom_site_fract_z
  _atom_site_occupancy
  V   V1        1.0  0.3141803663752681  0.4654829029462632  0.39860093055676044  1.0000
  V   V2        1.0  0.18571223633333736  0.9695934464051562  0.10398562771344898  1.0000
  V   V3        1.0  0.6742534662258776  0.5347058777163909  0.6044006739648324  1.0000
  V   V4        1.0  0.8279380507594991  0.0342506661979129  0.8948422834610027  1.0000
  V   V5        1.0  0.8105101995155267  0.4656541185378842  0.4026148836558646  1.0000
  V   V6        1.0  0.6886344656717254  0.9673441720315026  0.09972725690497695  1.0000
  V   V7        1.0  0.1769201314420599  0.5290906147242112  0.6016788649248567  1.0000
  V   V8        1.0  0.3251532535584474  0.028862650815099804  0.8986637618146599  1.0000
  Co  Co1       1.0  0.4812245130617399  0.6971654755019898  0.22768043421208967  1.0000
  Co  Co2       1.0  0.016151824761479402  0.19791271351260056  0.2768759498631752  1.0000
  Co  Co3       1.0  0.5212242584933762  0.3024257247212175  0.7736602183907805  1.0000
  Co  Co4       1.0  0.9833550981617732  0.8025945597866695  0.7239376560198989  1.0000
  H   H1        1.0  0.5315098140076913  0.38847824242965595  0.18519174124462265  1.0000
  H   H2        1.0  0.9594201344515055  0.8955701808076738  0.3086912597185787  1.0000
  H   H3        1.0  0.4553236976600488  0.604671420988204  0.8177267857805716  1.0000
  H   H4        1.0  0.052810468715065895  0.10859936795583283  0.6764727883445686  1.0000
  H   H5        1.0  0.5751539347723877  0.25107601743197694  0.023788994622464095  1.0000
  H   H6        1.0  0.9338161144020631  0.7544861237838916  0.4729460250390787  1.0000
  H   H7        1.0  0.40852318665817927  0.7416466025468437  0.9787937670038784  1.0000
  H   H8        1.0  0.07899824209254548  0.25026661205230033  0.5122352958077485  1.0000
  H   H9        1.0  0.44859832233047564  0.8021726461429493  0.43181936188881304  1.0000
  H   H10       1.0  0.05607128298014889  0.2898655605337055  0.08810231766101849  1.0000
  H   H11       1.0  0.5824330026283846  0.21325838288548477  0.5737457339011484  1.0000
  H   H12       1.0  0.9133573804847116  0.7090863303947471  0.9210976838981252  1.0000
  H   H13       1.0  0.3903875555320794  0.9183637270825785  0.3372311406265353  1.0000
  H   H14       1.0  0.11516021463621227  0.410131094041219  0.1796446105249316  1.0000
  H   H15       1.0  0.6323068076007773  0.0915304762150697  0.6643871362338629  1.0000
  H   H16       1.0  0.8673551918977082  0.5868213342763083  0.8319000818245357  1.0000
  C   C1        1.0  0.5121346038018828  0.43679398045730283  0.1028877703847471  1.0000
  C   C2        1.0  0.9814816716190649  0.9437946856086511  0.39056761952459595  1.0000
  C   C3        1.0  0.4733781840775322  0.5562798877186522  0.8998305830499619  1.0000
  C   C4        1.0  0.029401776782385997  0.060569103442865896  0.5942277633652749  1.0000
  C   C5        1.0  0.5371296680365703  0.3606254567718565  0.013202302997264286  1.0000
  C   C6        1.0  0.9670411965369182  0.8654150879811053  0.4827497386865857  1.0000
  C   C7        1.0  0.447595369932813  0.6323235091779367  0.9892738871193956  1.0000
  C   C8        1.0  0.0439409516406855  0.14000385502231444  0.5028445303973186  1.0000
  N   N1        1.0  0.4690587859227832  0.5731119143309229  0.09075852093777566  1.0000
  N   N2        1.0  0.0168752364866194  0.0824105997167166  0.4002682674302135  1.0000
  N   N3        1.0  0.5178617380615692  0.4202292843025999  0.9121400320034212  1.0000
  N   N4        1.0  0.9897218223638191  0.9230139157201692  0.5842829700076776  1.0000
  O   O1        1.0  0.29561158929392656  0.5498494752703208  0.2775781275359818  1.0000
  O   O2        1.0  0.20373257682338416  0.05852754303165849  0.22165371489408153  1.0000
  O   O3        1.0  0.6930032701982042  0.4555862209403045  0.7279539277282439  1.0000
  O   O4        1.0  0.8110874496719518  0.9519892074934116  0.7737556139517919  1.0000
  O   O5        1.0  0.6990320620125344  0.6018602650205763  0.3233652482189128  1.0000
  O   O6        1.0  0.8052359852330683  0.1014755869222626  0.18021905817872863  1.0000
  O   O7        1.0  0.2923058253648563  0.3948359445583804  0.6812523532014294  1.0000
  O   O8        1.0  0.2089698203238655  0.8940135750421231  0.8194394149499683  1.0000
  O   O9        1.0  0.6745732632279413  0.8272136519848913  0.1763788858764315  1.0000
  O   O10       1.0  0.8171777942238307  0.32865814000686555  0.3235532360533  1.0000
  O   O11       1.0  0.3379014257626168  0.1635582460245431  0.8162381718914415  1.0000
  O   O12       1.0  0.1661826879337411  0.6645556041096511  0.6817471374706301  1.0000
  O   O13       1.0  0.2654257082167746  0.8063384076802576  0.1420593949389541  1.0000
  O   O14       1.0  0.22607299914196935  0.30140639312848083  0.36737005208370016  1.0000
  O   O15       1.0  0.7472235633271183  0.19822756248687057  0.8628795941758439  1.0000
  O   O16       1.0  0.7580542025493529  0.6993905646787935  0.6321753357100659  1.0000
  O   O17       1.0  0.5846743101484578  0.42260629971503494  0.4603522315248154  1.0000
  O   O18       1.0  0.9129764845730008  0.9273910828376302  0.04225469763375137  1.0000
  O   O19       1.0  0.40135340755407606  0.5745912026401001  0.5436346491813281  1.0000
  O   O20       1.0  0.10225300731817547  0.07443314629568928  0.9555998703305517  1.0000
  O   O21       1.0  0.079214681555051  0.5254972440109352  0.4354070126895947  1.0000
  O   O22       1.0  0.4226527280700481  0.027037891752577498  0.06547899924553488  1.0000
  O   O23       1.0  0.9074952491977653  0.46833717457781904  0.5690162484272461  1.0000
  O   O24       1.0  0.5926055764275234  0.9702016016835556  0.9323329504848841  1.0000
  O   O25       1.0  0.4863095520771878  0.8444928068370674  0.3687251007416065  1.0000
  O   O26       1.0  0.0175156939832775  0.33445928044971396  0.1493162210920573  1.0000
  O   O27       1.0  0.5364599719498528  0.16538321823653485  0.6319347946058257  1.0000
  O   O28       1.0  0.9628091293923688  0.6624197301472349  0.8648488076617296  1.0000
