data_image0
_chemical_formula_structural       Mg2H24C40N4O8
_chemical_formula_sum              "Mg2 H24 C40 N4 O8"
_cell_length_a       9.270707577146526
_cell_length_b       10.014862006878488
_cell_length_c       10.014854186155747
_cell_angle_alpha    61.26076282983438
_cell_angle_beta     85.01761486328542
_cell_angle_gamma    85.01769902721492

_space_group_name_H-M_alt    "P 1"
_space_group_IT_number       1

loop_
  _space_group_symop_operation_xyz
  'x, y, z'

loop_
  _atom_site_type_symbol
  _atom_site_label
  _atom_site_symmetry_multiplicity
  _atom_site_fract_x
  _atom_site_fract_y
  _atom_site_fract_z
  _atom_site_occupancy
  Mg  Mg1       1.0  0.25000025654644986  0.052329418674489085  0.9476706972397505  1.0000
  Mg  Mg2       1.0  0.7499991126440263  0.9476703046274582  0.05233079071192023  1.0000
  H   H1        1.0  0.9889074467883745  0.2726102309633445  0.9967582481941546  1.0000
  H   H2        1.0  0.5110938904821863  0.003241934506213801  0.727389871235111  1.0000
  H   H3        1.0  0.011094029655048108  0.727390640366849  0.0032415230684890287  1.0000
  H   H4        1.0  0.48890764412179527  0.9967577908323548  0.27261143989328207  1.0000
  H   H5        1.0  0.8971506468030199  0.5460658657950075  0.8618433107719097  1.0000
  H   H6        1.0  0.6028514579101412  0.13815492553499809  0.45393392585219045  1.0000
  H   H7        1.0  0.10284974446459219  0.45393501589665425  0.13815454662127277  1.0000
  H   H8        1.0  0.39715007422478277  0.8618448111833386  0.5460653829951027  1.0000
  H   H9        1.0  0.9969824260360907  0.7161307014202122  0.5980561115394065  1.0000
  H   H10       1.0  0.5030207037359418  0.40194412789565337  0.28386918849658116  1.0000
  H   H11       1.0  0.0030190479382668  0.2838701812897567  0.4019416574421441  1.0000
  H   H12       1.0  0.4969808296335074  0.5980556031327918  0.7161311214912586  1.0000
  H   H13       1.0  0.16108232273628437  0.7428732064665481  0.3717911226472592  1.0000
  H   H14       1.0  0.33892271088430453  0.6282078156900042  0.25712527141494224  1.0000
  H   H15       1.0  0.8389192069295746  0.2571265416315569  0.6282061839189338  1.0000
  H   H16       1.0  0.6610809285035586  0.3717930690565865  0.7428723207433232  1.0000
  H   H17       1.0  0.7669681828183741  0.9685343735682038  0.6530398598783336  1.0000
  H   H18       1.0  0.7330314165791237  0.34696278699722427  0.0314661490391117  1.0000
  H   H19       1.0  0.23303112821155034  0.03146649572537541  0.346960088207588  1.0000
  H   H20       1.0  0.26696681297858044  0.6530380755881566  0.9685348885989948  1.0000
  H   H21       1.0  0.22368249747367494  0.0243502542583727  0.6045469414341081  1.0000
  H   H22       1.0  0.2763179356496863  0.39545097357611064  0.9756496124613033  1.0000
  H   H23       1.0  0.7763156739234773  0.9756517543186408  0.3954525563382559  1.0000
  H   H24       1.0  0.7236814904668166  0.604547609424081  0.024352414215556586  1.0000
  C   C1        1.0  0.19330333393714486  0.38271052892549307  0.6813112704053095  1.0000
  C   C2        1.0  0.3067002655322923  0.3186897816546618  0.6172885339207353  1.0000
  C   C3        1.0  0.806698314518883  0.6172869158095721  0.3186911181734756  1.0000
  C   C4        1.0  0.6933034889421493  0.6813088167985412  0.3827111368284831  1.0000
  C   C5        1.0  0.03395442476441699  0.35058286837148234  0.8838230257889063  1.0000
  C   C6        1.0  0.46604747989644574  0.11617575515772668  0.6494156412742382  1.0000
  C   C7        1.0  0.9660471618274614  0.6494157394248745  0.11617481950248286  1.0000
  C   C8        1.0  0.5339551361797489  0.8838239768890261  0.3505845803019624  1.0000
  C   C9        1.0  0.9815573251883835  0.5037038947876978  0.807078204754063  1.0000
  C   C10       1.0  0.518446220156818  0.19292219455851267  0.4962954121875354  1.0000
  C   C11       1.0  0.018443066079228694  0.4962969869039569  0.19291965263911942  1.0000
  C   C12       1.0  0.48155633899335026  0.8070786777899955  0.5037042706634692  1.0000
  C   C13       1.0  0.03646066462204799  0.5974549027330625  0.6613672478465628  1.0000
  C   C14       1.0  0.4635412922674149  0.3386317249647631  0.4025447399359263  1.0000
  C   C15       1.0  0.963539782337058  0.4025448443467353  0.3386301471312692  1.0000
  C   C16       1.0  0.5364591571607562  0.6613680107352592  0.5974546573230056  1.0000
  C   C17       1.0  0.1432471822727024  0.5373841812301448  0.5925362734519837  1.0000
  C   C18       1.0  0.35675479419197137  0.40746371267622555  0.46261376768553925  1.0000
  C   C19       1.0  0.8567544067882408  0.4626144151864364  0.4074635741205056  1.0000
  C   C20       1.0  0.6432456552361998  0.592536023023797  0.5373856295733929  1.0000
  C   C21       1.0  0.19982133817227077  0.62456455262528  0.4390519582393606  1.0000
  C   C22       1.0  0.30018295953279056  0.5609469718486721  0.37543638647102257  1.0000
  C   C23       1.0  0.8001801939626462  0.3754351840930569  0.5609473506079324  1.0000
  C   C24       1.0  0.6998196553088789  0.4390527658879718  0.6245628339646314  1.0000
  C   C25       1.0  0.9948350992243321  0.9965507214625544  0.6419635801815956  1.0000
  C   C26       1.0  0.5051641615561095  0.3580370109158153  0.003449130639275248  1.0000
  C   C27       1.0  0.005163072172820201  0.0034512871144656  0.35803591759076864  1.0000
  C   C28       1.0  0.49483412616215366  0.6419627056779331  0.9965534468645811  1.0000
  C   C29       1.0  0.8678461938650841  0.982803447790367  0.584099874136605  1.0000
  C   C30       1.0  0.6321516761313503  0.41589940365325617  0.017199319238578453  1.0000
  C   C31       1.0  0.1321530590042883  0.017198567494851602  0.4158985340835739  1.0000
  C   C32       1.0  0.36784450309943406  0.5840991706021158  0.9828039738137516  1.0000
  C   C33       1.0  0.9894996459406117  0.9955323084773935  0.7934773793772363  1.0000
  C   C34       1.0  0.5105006090288172  0.20652254173570128  0.0044668306874058265  1.0000
  C   C35       1.0  0.010511517937537499  0.0044697123193416  0.2065210574554753  1.0000
  C   C36       1.0  0.48948690731344163  0.7934760300630829  0.9955361685174818  1.0000
  C   C37       1.0  0.1268423294295431  0.0132724489303584  0.557159967339288  1.0000
  C   C38       1.0  0.37315720648229705  0.44283882048032547  0.986729091551346  1.0000
  C   C39       1.0  0.873158064307127  0.9867284213815279  0.4428398923349945  1.0000
  C   C40       1.0  0.6268401148503173  0.5571586031118444  0.01327665409564096  1.0000
  N   N1        1.0  0.13835858369649398  0.2915978498520175  0.8246644700694925  1.0000
  N   N2        1.0  0.3616432175204097  0.1753346254692403  0.708400499680543  1.0000
  N   N3        1.0  0.8616408399509441  0.7084007445279497  0.17533555432627415  1.0000
  N   N4        1.0  0.6383594542472791  0.8246639719656556  0.2915992594803142  1.0000
  O   O1        1.0  0.10971199654265014  0.9835248743642635  0.8500256227443398  1.0000
  O   O2        1.0  0.390288029951364  0.14997380012614056  0.016475838596946315  1.0000
  O   O3        1.0  0.8902828091786148  0.016479428830976396  0.14997005939089544  1.0000
  O   O4        1.0  0.6097123699579612  0.8500270417363255  0.9835290267800897  1.0000
  O   O5        1.0  0.8645168188530619  0.005181150552346001  0.8518185783544678  1.0000
  O   O6        1.0  0.6354832748070934  0.14818262877325586  0.9948163298386558  1.0000
  O   O7        1.0  0.13547821951041777  0.9948185686763582  0.14818326324375858  1.0000
  O   O8        1.0  0.3645162070009036  0.8518148196150718  0.005185234422853781  1.0000
