data_image0
_chemical_formula_structural       Ag12H60C42N48O24
_chemical_formula_sum              "Ag12 H60 C42 N48 O24"
_cell_length_a       13.997151799706955
_cell_length_b       13.997159900741849
_cell_length_c       13.997135181870465
_cell_angle_alpha    104.75696371680527
_cell_angle_beta     104.75697381165752
_cell_angle_gamma    104.75702581225889

_space_group_name_H-M_alt    "P 1"
_space_group_IT_number       1

loop_
  _space_group_symop_operation_xyz
  'x, y, z'

loop_
  _atom_site_type_symbol
  _atom_site_label
  _atom_site_symmetry_multiplicity
  _atom_site_fract_x
  _atom_site_fract_y
  _atom_site_fract_z
  _atom_site_occupancy
  Ag  Ag1       1.0  0.7889576734212654  0.7889537910410456  0.5270868743334773  1.0000
  Ag  Ag2       1.0  0.7889537130370743  0.5270864899808461  0.7889565066142481  1.0000
  Ag  Ag3       1.0  0.5270859540275694  0.7889563343737864  0.7889527489898001  1.0000
  Ag  Ag4       1.0  0.2110448536678575  0.4729127229412669  0.21104654026162004  1.0000
  Ag  Ag5       1.0  0.21104797386819027  0.21104341520570816  0.4729146092110526  1.0000
  Ag  Ag6       1.0  0.47291497110715147  0.2110510781124688  0.21104370370209577  1.0000
  Ag  Ag7       1.0  0.27445758005337945  0.9999979537441703  0.7255413686217765  1.0000
  Ag  Ag8       1.0  0.9999995188250211  0.7255435841748222  0.2744587624591616  1.0000
  Ag  Ag9       1.0  0.7255402310322909  0.27445748519335217  5.747368802578003e-07  1.0000
  Ag  Ag10      1.0  0.7255464962196357  1.6720374915758992e-06  0.2744546159302743  1.0000
  Ag  Ag11      1.0  0.9999979047815868  0.2744493933119115  0.7255457059103846  1.0000
  Ag  Ag12      1.0  0.2744530213471137  0.7255463459895423  1.7051604785702262e-06  1.0000
  H   H1        1.0  0.6362992577377968  0.5315816853695169  0.2940426077050446  1.0000
  H   H2        1.0  0.5315815545226172  0.2940411152399562  0.6362969344978922  1.0000
  H   H3        1.0  0.2940432310459755  0.6362990228139367  0.5315819949479632  1.0000
  H   H4        1.0  0.3636977638269131  0.7059511860363018  0.46842079926243235  1.0000
  H   H5        1.0  0.46842170700412566  0.36369777864101144  0.7059496852836986  1.0000
  H   H6        1.0  0.7059514159273306  0.46841994485555477  0.3636980143840561  1.0000
  H   H7        1.0  0.3636985212043983  0.46841873506550513  0.7059612606846954  1.0000
  H   H8        1.0  0.46841780080671913  0.7059620653265316  0.3636987525571698  1.0000
  H   H9        1.0  0.705961627760715  0.3637008685958494  0.4684199724556566  1.0000
  H   H10       1.0  0.6363047387643732  0.29404568231934297  0.5315790814121542  1.0000
  H   H11       1.0  0.5315792211924802  0.6363052017966739  0.294046351968511  1.0000
  H   H12       1.0  0.2940455779103246  0.5315794681953536  0.6363046822946572  1.0000
  H   H13       1.0  0.10762488161022081  0.8200218959825634  0.574975528102442  1.0000
  H   H14       1.0  0.8200219295410777  0.5749754937873918  0.10762472936576724  1.0000
  H   H15       1.0  0.5749757543233045  0.10762490245991062  0.8200223605062291  1.0000
  H   H16       1.0  0.8923752850010588  0.42502439085051696  0.17997705647994167  1.0000
  H   H17       1.0  0.1799766863038244  0.8923750156297248  0.425024116918067  1.0000
  H   H18       1.0  0.42502431556425796  0.17997702466331592  0.8923742847622975  1.0000
  H   H19       1.0  0.8923807677519733  0.17997383396679115  0.42502415049081316  1.0000
  H   H20       1.0  0.1799727045211625  0.42502311020457034  0.8923793022128592  1.0000
  H   H21       1.0  0.425023599565975  0.8923812334068304  0.1799726512392539  1.0000
  H   H22       1.0  0.10762013344568544  0.5749766981756751  0.8200278091549222  1.0000
  H   H23       1.0  0.8200281754301957  0.10762118278201882  0.574976909117467  1.0000
  H   H24       1.0  0.5749766113268607  0.8200281720241097  0.10762160310873989  1.0000
  H   H25       1.0  0.9712035653073273  0.7615814001504904  0.5069184688563483  1.0000
  H   H26       1.0  0.7615808769535874  0.5069171714116935  0.9712029251652226  1.0000
  H   H27       1.0  0.5069155665145288  0.9712009186003032  0.7615773034888491  1.0000
  H   H28       1.0  0.0287981693246593  0.49308443638263105  0.23842392921412883  1.0000
  H   H29       1.0  0.2384239338501644  0.028799042736295577  0.493084315235528  1.0000
  H   H30       1.0  0.49308380975971733  0.23842334560431058  0.02879773201654959  1.0000
  H   H31       1.0  0.0287981496557776  0.23841593666754338  0.493082759260517  1.0000
  H   H32       1.0  0.23841533105950674  0.49308271190523817  0.028798262147674298  1.0000
  H   H33       1.0  0.4930861480921109  0.028800852971755792  0.2384200548555597  1.0000
  H   H34       1.0  0.9712011824847975  0.5069157839235886  0.7615802893727661  1.0000
  H   H35       1.0  0.7615801379610261  0.9712027961387336  0.5069165193495095  1.0000
  H   H36       1.0  0.5069147556869282  0.7615803011700067  0.9712028734909027  1.0000
  H   H37       1.0  0.6023745171160756  0.811735652967592  0.5216836664650304  1.0000
  H   H38       1.0  0.8117358748403589  0.521683768537919  0.6023745854604667  1.0000
  H   H39       1.0  0.5216840452912167  0.6023750162378863  0.8117359141644797  1.0000
  H   H40       1.0  0.3976248642501474  0.4783186060695287  0.18826620081299691  1.0000
  H   H41       1.0  0.18826504368191624  0.3976245842249854  0.47831846402510797  1.0000
  H   H42       1.0  0.4783184328212471  0.18826539320553345  0.3976256296901893  1.0000
  H   H43       1.0  0.3976295595606203  0.18826175566250922  0.4783138958722333  1.0000
  H   H44       1.0  0.1882626928537192  0.4783124886330229  0.39762985092699676  1.0000
  H   H45       1.0  0.4783129476045005  0.39762957016665723  0.18826310101539426  1.0000
  H   H46       1.0  0.6023705542438123  0.5216847005591347  0.8117363728346234  1.0000
  H   H47       1.0  0.8117366706485072  0.6023712735901868  0.5216852443526178  1.0000
  H   H48       1.0  0.5216856416953634  0.8117364483749585  0.6023709196827056  1.0000
  H   H49       1.0  0.2550958306164972  0.17587535183475472  0.7517715864441713  1.0000
  H   H50       1.0  0.1758755143829802  0.7517714391279359  0.25509575267792434  1.0000
  H   H51       1.0  0.7517719529483317  0.25509511372939647  0.17587582040899719  1.0000
  H   H52       1.0  0.744901895276655  0.24822665625305254  0.824122394226464  1.0000
  H   H53       1.0  0.8241231061248158  0.7449025472108988  0.2482269339745287  1.0000
  H   H54       1.0  0.24822819646271915  0.8241238526618204  0.7449047418040493  1.0000
  H   H55       1.0  0.7449043128320483  0.8241221864648054  0.24822714886947483  1.0000
  H   H56       1.0  0.8241222685701218  0.2482267677627946  0.7449039798808457  1.0000
  H   H57       1.0  0.24822740246835204  0.7449051101840996  0.8241226845617078  1.0000
  H   H58       1.0  0.2550958850182425  0.7517737655346934  0.17587933155720492  1.0000
  H   H59       1.0  0.17587939497919794  0.25509505884254224  0.7517745633777224  1.0000
  H   H60       1.0  0.7517735162057447  0.17587865615711704  0.25509494742004074  1.0000
  C   C1        1.0  0.023489457334712  0.9185713500641627  0.5947773995385077  1.0000
  C   C2        1.0  0.918570112749947  0.5947754082039794  0.023488617393894483  1.0000
  C   C3        1.0  0.5947741714014256  0.023484550198716522  0.9185667438272348  1.0000
  C   C4        1.0  0.9765138577273478  0.4052258396436344  0.08143290060225883  1.0000
  C   C5        1.0  0.0814340168885153  0.9765138112462638  0.4052248342506389  1.0000
  C   C6        1.0  0.4052258796462525  0.08143367820095185  0.9765141520140119  1.0000
  C   C7        1.0  0.9765161899547437  0.08142585618259077  0.4052240840060292  1.0000
  C   C8        1.0  0.08142530686772892  0.405224203623  0.976515871693735  1.0000
  C   C9        1.0  0.405223614486097  0.9765173555518915  0.08142464547331942  1.0000
  C   C10       1.0  0.0234847028939242  0.5947770631201552  0.9185760870558611  1.0000
  C   C11       1.0  0.9185779199790574  0.023485549334658462  0.5947780889749551  1.0000
  C   C12       1.0  0.5947750438666333  0.918575211033613  0.023483391427142057  1.0000
  C   C13       1.0  0.0972993273261409  0.09729743977197103  0.6823336104783452  1.0000
  C   C14       1.0  0.09729702741979201  0.682332116696351  0.0972984277792222  1.0000
  C   C15       1.0  0.6823342100641769  0.09729708774567312  0.09729469738321236  1.0000
  C   C16       1.0  0.9027007535951341  0.31766682744126473  0.9027036356592362  1.0000
  C   C17       1.0  0.9027023875024016  0.902700636096583  0.3176670917101135  1.0000
  C   C18       1.0  0.3176706507278978  0.9027042840197055  0.9027026471534825  1.0000
  C   C19       1.0  0.8020501979778275  0.5911410519542954  0.32652461492719453  1.0000
  C   C20       1.0  0.5911415857603544  0.32652295007357424  0.8020495947868582  1.0000
  C   C21       1.0  0.3265233585140521  0.802050602680119  0.5911401274076412  1.0000
  C   C22       1.0  0.19794604225648274  0.6734701221871479  0.40885667477498805  1.0000
  C   C23       1.0  0.4088577274647065  0.1979461621603775  0.6734706165648277  1.0000
  C   C24       1.0  0.6734720888740995  0.4088577600259456  0.19794544476499001  1.0000
  C   C25       1.0  0.1979499372671114  0.40885943488187604  0.6734841581072217  1.0000
  C   C26       1.0  0.4088577642525806  0.6734846602869241  0.19795007871800147  1.0000
  C   C27       1.0  0.6734846475616652  0.19795036837675192  0.40885863172538006  1.0000
  C   C28       1.0  0.8020541065958255  0.32652002966541005  0.5911408920045034  1.0000
  C   C29       1.0  0.5911400604955546  0.8020542672928316  0.3265189677844376  1.0000
  C   C30       1.0  0.3265186140799443  0.5911417149405337  0.8020556628514939  1.0000
  C   C31       1.0  0.7011009432239633  0.5000005112805825  0.29889526976790404  1.0000
  C   C32       1.0  0.5000004477528392  0.298894344970897  0.7010988153226663  1.0000
  C   C33       1.0  0.2988960739883026  0.7011008797519197  0.5000006699857735  1.0000
  C   C34       1.0  0.2988968361691349  0.49999990960534296  0.7011078844198124  1.0000
  C   C35       1.0  0.4999989072601637  0.7011080960941599  0.29889811186282594  1.0000
  C   C36       1.0  0.7011079997138553  0.29889800427375957  0.5000001257068193  1.0000
  C   C37       1.0  0.6107895505832133  0.7156430597723047  0.6107877924858657  1.0000
  C   C38       1.0  0.7156433690228211  0.6107873077020685  0.6107894437102318  1.0000
  C   C39       1.0  0.6107863944682705  0.6107878280127893  0.7156423551355645  1.0000
  C   C40       1.0  0.3892105989656969  0.3892138021896727  0.2843587637579362  1.0000
  C   C41       1.0  0.28435834400211496  0.3892107663628438  0.3892141152863219  1.0000
  C   C42       1.0  0.3892137355379858  0.28435851031822784  0.38921205866176917  1.0000
  N   N1        1.0  0.0338164039647282  0.8246265860091884  0.5622542122794272  1.0000
  N   N2        1.0  0.8246255997604734  0.5622528886929814  0.033815966444990395  1.0000
  N   N3        1.0  0.5622548785203848  0.03381591899211138  0.8246269024887597  1.0000
  N   N4        1.0  0.9661829794061845  0.4377444544739575  0.17537126472777922  1.0000
  N   N5        1.0  0.175371451408644  0.9661833451522104  0.43774382618138946  1.0000
  N   N6        1.0  0.4377459690742712  0.17537351528476822  0.9661835605903449  1.0000
  N   N7        1.0  0.9661837381311075  0.17537095093764066  0.4377466656402902  1.0000
  N   N8        1.0  0.17537060915442743  0.43774699552577095  0.9661837924638591  1.0000
  N   N9        1.0  0.4377499769080657  0.9661876649648139  0.17537672048496947  1.0000
  N   N10       1.0  0.0338140202460053  0.5622527468363077  0.8246244393118688  1.0000
  N   N11       1.0  0.8246247604808091  0.03381506367095707  0.5622526993721308  1.0000
  N   N12       1.0  0.5622502410115615  0.8246248917347645  0.03381582177127024  1.0000
  N   N13       1.0  0.1108437894726748  0.0030731823890661984  0.6537905993193363  1.0000
  N   N14       1.0  0.0030726987015015  0.6537902607923345  0.11084393158188999  1.0000
  N   N15       1.0  0.6537903021946293  0.11084076991019742  0.0030709217301349728  1.0000
  N   N16       1.0  0.8891555006904782  0.3462083028300782  0.9969256751377599  1.0000
  N   N17       1.0  0.9969259257174556  0.8891559764939174  0.3462077269816674  1.0000
  N   N18       1.0  0.3462098510479521  0.9969284849741202  0.8891578613992976  1.0000
  N   N19       1.0  0.8891571423240807  0.9969224097979822  0.3462071262068137  1.0000
  N   N20       1.0  0.9969219387861941  0.34620686825495284  0.8891561524393835  1.0000
  N   N21       1.0  0.3462074831947747  0.8891589177870358  0.9969234737596794  1.0000
  N   N22       1.0  0.1108414937798656  0.6537925892236915  0.0030745412800925616  1.0000
  N   N23       1.0  0.0030757891110866  0.11084209937462931  0.653792975206791  1.0000
  N   N24       1.0  0.6537918603150175  0.0030762400945575567  0.11084167844362716  1.0000
  N   N25       1.0  0.9251892596256898  0.9251863422432297  0.5668908271515393  1.0000
  N   N26       1.0  0.9251860763164004  0.5668903896665967  0.925188549996463  1.0000
  N   N27       1.0  0.5668883152379678  0.9251862266516397  0.9251851972688526  1.0000
  N   N28       1.0  0.07481249011940601  0.4331103013565568  0.07481344502259193  1.0000
  N   N29       1.0  0.0748124557883258  0.07481099502571452  0.4331096867633022  1.0000
  N   N30       1.0  0.4331110394586943  0.07481547491198626  0.07481297004706278  1.0000
  N   N31       1.0  0.6819838421932047  0.681981685006484  0.5740075448910318  1.0000
  N   N32       1.0  0.6819814711670844  0.5740066211932131  0.6819836435303159  1.0000
  N   N33       1.0  0.5740072837393911  0.6819841923109138  0.6819816477601037  1.0000
  N   N34       1.0  0.31801630894604227  0.4259923220425821  0.31801984831218993  1.0000
  N   N35       1.0  0.3180194444662376  0.31801692888197414  0.4259944099702224  1.0000
  N   N36       1.0  0.4259928563781444  0.3180192561382429  0.3180164511364084  1.0000
  N   N37       1.0  0.5765018352533957  0.7852564643009502  0.5764993729154498  1.0000
  N   N38       1.0  0.785255655648797  0.5764986408723447  0.5765012118524098  1.0000
  N   N39       1.0  0.5764986670139223  0.5765013650930372  0.7852563480075716  1.0000
  N   N40       1.0  0.4234975389736491  0.4235022121237649  0.21474435226936348  1.0000
  N   N41       1.0  0.21474448685073366  0.4234966789229235  0.42350124385252036  1.0000
  N   N42       1.0  0.4235030256732486  0.21474416841390828  0.4234984975496445  1.0000
  N   N43       1.0  0.1820583839252947  0.18205449129774823  0.7420133926093015  1.0000
  N   N44       1.0  0.1820545062760672  0.742012509520656  0.18205841838525322  1.0000
  N   N45       1.0  0.742012272643713  0.18205621168061734  0.18205094074692596  1.0000
  N   N46       1.0  0.8179409145125477  0.2579856251070964  0.8179456941551351  1.0000
  N   N47       1.0  0.8179456913986982  0.8179429159796217  0.257986312334033  1.0000
  N   N48       1.0  0.2579878701792424  0.8179472394740019  0.8179428729374508  1.0000
  O   O1        1.0  0.8545598671004981  0.6419488344847082  0.4234590834405124  1.0000
  O   O2        1.0  0.641948240104739  0.4234561458978875  0.8545594533848373  1.0000
  O   O3        1.0  0.4234571608302176  0.8545603716621316  0.6419484682049728  1.0000
  O   O4        1.0  0.1454387286416718  0.57653651687329  0.35804686783736633  1.0000
  O   O5        1.0  0.35804714505360385  0.1454381246797993  0.5765358500436834  1.0000
  O   O6        1.0  0.5765374999268431  0.3580471078250794  0.14543849694142347  1.0000
  O   O7        1.0  0.1454426345889743  0.35804803296912274  0.5765422256381214  1.0000
  O   O8        1.0  0.35804718086564696  0.5765434672818232  0.14544289309672115  1.0000
  O   O9        1.0  0.5765429809563615  0.14544381764118702  0.35804624795503776  1.0000
  O   O10       1.0  0.8545637749859837  0.4234596133336623  0.6419521103615793  1.0000
  O   O11       1.0  0.6419537844485035  0.8545626395081458  0.4234603365896987  1.0000
  O   O12       1.0  0.4234602786990109  0.6419525731085046  0.8545666115787469  1.0000
  O   O13       1.0  0.8249381720887642  0.6136729627447156  0.2507758599409939  1.0000
  O   O14       1.0  0.6136738382605884  0.25077195819564935  0.8249355170958168  1.0000
  O   O15       1.0  0.2507738464538889  0.8249374604469822  0.6136710832601154  1.0000
  O   O16       1.0  0.17505964851928013  0.7492208066493903  0.3863268496805148  1.0000
  O   O17       1.0  0.3863270389487781  0.17506008749657553  0.7492201679326201  1.0000
  O   O18       1.0  0.7492208138279891  0.38632765845358125  0.1750587795698308  1.0000
  O   O19       1.0  0.1750627503806612  0.38632927278062834  0.7492299878659311  1.0000
  O   O20       1.0  0.38632944772604116  0.7492303509454035  0.17506380812341146  1.0000
  O   O21       1.0  0.7492302256736423  0.17506511792947774  0.38632851119449896  1.0000
  O   O22       1.0  0.8249381394338969  0.25077223094589846  0.6136701365588877  1.0000
  O   O23       1.0  0.6136691750606289  0.8249390626316643  0.25077226068237485  1.0000
  O   O24       1.0  0.25077067986333657  0.613669133604418  0.8249382731774447  1.0000
