data_image0
_chemical_formula_structural       Zn4P4H36C24N8O12
_chemical_formula_sum              "Zn4 P4 H36 C24 N8 O12"
_cell_length_a       7.953955493015504
_cell_length_b       8.067432826014924
_cell_length_c       13.497601640001392
_cell_angle_alpha    90.00001221803419
_cell_angle_beta     90.00005068105955
_cell_angle_gamma    90.00022028148764

_space_group_name_H-M_alt    "P 1"
_space_group_IT_number       1

loop_
  _space_group_symop_operation_xyz
  'x, y, z'

loop_
  _atom_site_type_symbol
  _atom_site_label
  _atom_site_symmetry_multiplicity
  _atom_site_fract_x
  _atom_site_fract_y
  _atom_site_fract_z
  _atom_site_occupancy
  Zn  Zn1       1.0  0.6518512388600823  0.6575724154886301  0.9309722724345659  1.0000
  Zn  Zn2       1.0  0.34814663666324464  0.15757000438688348  0.06902866068471519  1.0000
  Zn  Zn3       1.0  0.8481463092624041  0.15757110370764588  0.9309715502660862  1.0000
  Zn  Zn4       1.0  0.1518515662627777  0.657572555719426  0.0690286419809212  1.0000
  P   P1        1.0  0.0032848251211846004  0.7821213296192084  0.8775411375589356  1.0000
  P   P2        1.0  0.9967122783725701  0.28212139804090697  0.12245981174531546  1.0000
  P   P3        1.0  0.4967125614163876  0.282121821090378  0.8775404928789282  1.0000
  P   P4        1.0  0.5032857993153288  0.78212214612369  0.12245971555337577  1.0000
  H   H1        1.0  0.0509039147760575  0.8270328399320235  0.7809802945473192  1.0000
  H   H2        1.0  0.9490933636779173  0.32703276145160487  0.21902066059318054  1.0000
  H   H3        1.0  0.44909475910353086  0.32703315072605216  0.7809796250307456  1.0000
  H   H4        1.0  0.5509062910557817  0.82703121111291  0.21902058923829054  1.0000
  H   H5        1.0  0.6774434899531202  0.7900321261503221  0.5243281929795669  1.0000
  H   H6        1.0  0.32256118777575443  0.2900322393058444  0.47567349822702437  1.0000
  H   H7        1.0  0.8225539641728972  0.29003319636868946  0.5243274574629594  1.0000
  H   H8        1.0  0.1774444273786315  0.79003364817855  0.47567201112507707  1.0000
  H   H9        1.0  0.46570185804972664  0.5813432725906933  0.4768996982421356  1.0000
  H   H10       1.0  0.5343045211698441  0.08134544529561082  0.5230990023566804  1.0000
  H   H11       1.0  0.03429791701663021  0.08134448863582827  0.47689955325039074  1.0000
  H   H12       1.0  0.9657046904933325  0.5813429896918834  0.5231006290920843  1.0000
  H   H13       1.0  0.2571124534383814  0.47832375799325166  0.603532504647674  1.0000
  H   H14       1.0  0.7428904433421623  0.9783263275417082  0.39646476579275697  1.0000
  H   H15       1.0  0.2428865436388463  0.9783303733905767  0.6035332742977885  1.0000
  H   H16       1.0  0.7571138386795083  0.47832343079533496  0.3964677005040399  1.0000
  H   H17       1.0  0.27265223397925104  0.5878444071943746  0.7755052900846591  1.0000
  H   H18       1.0  0.7273428554334488  0.08784348925156137  0.2244904478663798  1.0000
  H   H19       1.0  0.2273442426555832  0.0878463557153637  0.7755059866541598  1.0000
  H   H20       1.0  0.7726521040043509  0.5878452593889418  0.22449493740398194  1.0000
  H   H21       1.0  0.3739846741845482  0.7865026095243194  0.8830444344176694  1.0000
  H   H22       1.0  0.6260099319078593  0.2865049881364213  0.11695429283834359  1.0000
  H   H23       1.0  0.1260127376822027  0.28650541311635164  0.8830450781350904  1.0000
  H   H24       1.0  0.8739843828864978  0.7865034241012336  0.11695587173874597  1.0000
  H   H25       1.0  0.5272633745175526  0.9225027888785176  0.8584756739792209  1.0000
  H   H26       1.0  0.4727317613845159  0.4225033549539673  0.14152455269462647  1.0000
  H   H27       1.0  0.9727338397034587  0.42250442892039786  0.8584772394097369  1.0000
  H   H28       1.0  0.027261296204550003  0.9225041940157296  0.14152446900899207  1.0000
  H   H29       1.0  0.7860854821861808  0.9739905011693177  0.6451504388308887  1.0000
  H   H30       1.0  0.2139148832359012  0.47398892028424194  0.3548505354073156  1.0000
  H   H31       1.0  0.7139128698292654  0.4739899196212745  0.6451518692666411  1.0000
  H   H32       1.0  0.28608623836098696  0.9739919809331566  0.35484836409904114  1.0000
  H   H33       1.0  0.690641864287805  0.009166687603361402  0.7556366465041504  1.0000
  H   H34       1.0  0.3093554330989221  0.509166319457101  0.24436352645757606  1.0000
  H   H35       1.0  0.8093560999058627  0.509166117895667  0.755636709950508  1.0000
  H   H36       1.0  0.1906411974827265  0.0091681287163539  0.24436272213894475  1.0000
  C   C1        1.0  0.4792214499605905  0.7506152847787176  0.7467306128875462  1.0000
  C   C2        1.0  0.5207818169880768  0.2506210304491248  0.25327107319687053  1.0000
  C   C3        1.0  0.0207781320859013  0.25062016818122856  0.7467282382274332  1.0000
  C   C4        1.0  0.9792213631492643  0.7506149074871259  0.2532697434941085  1.0000
  C   C5        1.0  0.5954077329998383  0.8117105165545836  0.6759365886653439  1.0000
  C   C6        1.0  0.4045995436716581  0.3117195648099197  0.32406658710431907  1.0000
  C   C7        1.0  0.9045950619621833  0.3117156167035304  0.6759344141933921  1.0000
  C   C8        1.0  0.09540844298931721  0.8117107459977074  0.3240628345961482  1.0000
  C   C9        1.0  0.5868319259908574  0.7465360950031226  0.5791349403285934  1.0000
  C   C10       1.0  0.4131763540055217  0.24653901190190905  0.4208667452268599  1.0000
  C   C11       1.0  0.9131679553816882  0.24653874858232427  0.5791342520733662  1.0000
  C   C12       1.0  0.0868315239578905  0.7465351187539324  0.4208652108626225  1.0000
  C   C13       1.0  0.4676167762297397  0.6279429957391753  0.5526635320611744  1.0000
  C   C14       1.0  0.5323885272973924  0.1279476137778133  0.4473373972101981  1.0000
  C   C15       1.0  0.0323858085043653  0.12794544407562108  0.5526633860714653  1.0000
  C   C16       1.0  0.9676194950162724  0.6279426863375902  0.4473353205826526  1.0000
  C   C17       1.0  0.35172720784566286  0.5707436753380647  0.6225862907169031  1.0000
  C   C18       1.0  0.6482766156104489  0.07074622952720937  0.377413149376224  1.0000
  C   C19       1.0  0.14827148724290856  0.0707453238316305  0.6225869460434976  1.0000
  C   C20       1.0  0.8517298217348712  0.570740862374059  0.377413975793459  1.0000
  C   C21       1.0  0.3593990556816777  0.6327621965071941  0.7190300972623118  1.0000
  C   C22       1.0  0.640603752152238  0.13276964605608294  0.2809700917624766  1.0000
  C   C23       1.0  0.14060128293393603  0.13276877410134347  0.7190292668434918  1.0000
  C   C24       1.0  0.8594002676603482  0.6327618289076041  0.2809694404361665  1.0000
  N   N1        1.0  0.4901872375735011  0.8006857744896577  0.8491236245775365  1.0000
  N   N2        1.0  0.5098099382473152  0.3006889636206295  0.15087732713936924  1.0000
  N   N3        1.0  0.009811435894526701  0.300688137180181  0.8491227259422799  1.0000
  N   N4        1.0  0.9901857399251811  0.8006866009298503  0.15087674402990806  1.0000
  N   N5        1.0  0.7184762995628304  0.924444262184387  0.7018241901362073  1.0000
  N   N6        1.0  0.28152638732141366  0.42444539710999846  0.2981775185366544  1.0000
  N   N7        1.0  0.7815232016947532  0.42444641626885726  0.7018234332185498  1.0000
  N   N8        1.0  0.21847571348379094  0.9244457221212413  0.2981753119640444  1.0000
  O   O1        1.0  0.874825747826705  0.6378924653211298  0.8681656157410771  1.0000
  O   O2        1.0  0.1251707937995334  0.13789294881680547  0.13183531482066257  1.0000
  O   O3        1.0  0.6251716294162577  0.13789402616988863  0.868164777274991  1.0000
  O   O4        1.0  0.3748249122142441  0.6378938670712982  0.13183541241454577  1.0000
  O   O5        1.0  0.16595852007550596  0.7193941337546831  0.9280575578671912  1.0000
  O   O6        1.0  0.8340395962879867  0.21939356727990134  0.07194264241358178  1.0000
  O   O7        1.0  0.3340399551094677  0.21939152889709124  0.9280575692132371  1.0000
  O   O8        1.0  0.6659594184834393  0.7193924534849288  0.07194337193998729  1.0000
  O   O9        1.0  0.9265389981023517  0.9291128487851449  0.9317280515213964  1.0000
  O   O10       1.0  0.0734599352591729  0.42911311383733863  0.06827365775711057  1.0000
  O   O11       1.0  0.5734558372860762  0.42911545296698245  0.9317279269547921  1.0000
  O   O12       1.0  0.4265430960839894  0.9291154678620046  0.06827230057931638  1.0000
