data_image0
_chemical_formula_structural       Zn2H20C40N2O8F6
_chemical_formula_sum              "Zn2 H20 C40 N2 O8 F6"
_cell_length_a       11.100128736722546
_cell_length_b       16.36179636795662
_cell_length_c       17.77493581574568
_cell_angle_alpha    95.58878202283233
_cell_angle_beta     90.3023685655515
_cell_angle_gamma    92.21280223163761

_space_group_name_H-M_alt    "P 1"
_space_group_IT_number       1

loop_
  _space_group_symop_operation_xyz
  'x, y, z'

loop_
  _atom_site_type_symbol
  _atom_site_label
  _atom_site_symmetry_multiplicity
  _atom_site_fract_x
  _atom_site_fract_y
  _atom_site_fract_z
  _atom_site_occupancy
  Zn  Zn1       1.0  0.4947030219167345  0.4134710508019452  0.4976752327078485  1.0000
  Zn  Zn2       1.0  0.5042080812930932  0.5850876328260882  0.5066380397555434  1.0000
  H   H1        1.0  0.3768809766119147  0.7102287885583891  0.4273542373300359  1.0000
  H   H2        1.0  0.3784034605221435  0.8617380379658357  0.4274936338270692  1.0000
  H   H3        1.0  0.6628698072083877  0.8748557413498405  0.5970936896599355  1.0000
  H   H4        1.0  0.6480579599790417  0.7216035038586385  0.5888454474142435  1.0000
  H   H5        1.0  0.3377048572288927  0.1240965775299969  0.4035142065172082  1.0000
  H   H6        1.0  0.6228031110228754  0.1366378998833682  0.5727226314518248  1.0000
  H   H7        1.0  0.6247341822854012  0.28841518749594297  0.5730668385351123  1.0000
  H   H8        1.0  0.3512230297201739  0.2774666819584226  0.4131518511185277  1.0000
  H   H9        1.0  0.5067867634571144  0.6197401020817564  0.2659676433796747  1.0000
  H   H10       1.0  0.5074266569988664  0.6137457633744176  0.1266875164212991  1.0000
  H   H11       1.0  0.4910604244469213  0.34833660436337516  0.1142951789227098  1.0000
  H   H12       1.0  0.4906940226698921  0.35683631552483763  0.2545802241151449  1.0000
  H   H13       1.0  0.5091590692969418  0.6523832073136758  0.89007637736389  1.0000
  H   H14       1.0  0.492958129452404  0.38676609362161685  0.8751971861375338  1.0000
  H   H15       1.0  0.49328387630319526  0.3824977478339875  0.7358161406888327  1.0000
  H   H16       1.0  0.5094541279202999  0.6454528784973945  0.7498687021047914  1.0000
  H   H17       1.0  0.7806216349346041  0.5986521530067179  0.401407471215613  1.0000
  H   H18       1.0  0.8963617580636125  0.6835100912146217  0.3180390528081887  1.0000
  H   H19       1.0  0.2286960780088236  0.595408871779199  0.3994132799861703  1.0000
  H   H20       1.0  0.12186863515069038  0.6819501763724107  0.3168791687282706  1.0000
  C   C1        1.0  0.49697548352300913  0.4929547513970365  0.3535542149283941  1.0000
  C   C2        1.0  0.2635766635175187  0.4960904799378057  0.5010727179038881  1.0000
  C   C3        1.0  0.5027447469694977  0.5108220710989074  0.6499447177583804  1.0000
  C   C4        1.0  0.7354283360001831  0.4970791979002129  0.5017766869891815  1.0000
  C   C5        1.0  0.4387013474227643  0.7495159171258762  0.46402284648429065  1.0000
  C   C6        1.0  0.44014081948268574  0.8343859563054534  0.4643929715265287  1.0000
  C   C7        1.0  0.5215413660859197  0.8826203616601447  0.5129291040691797  1.0000
  C   C8        1.0  0.5980917550158084  0.841060959551669  0.5585964789411407  1.0000
  C   C9        1.0  0.5903988923934378  0.7559272360034511  0.5544691656055747  1.0000
  C   C10       1.0  0.5310303952544189  0.9719527979083226  0.5187282517095184  1.0000
  C   C11       1.0  0.4698629405257222  0.02670563020636511  0.48163608353064546  1.0000
  C   C12       1.0  0.40253701499914735  0.15777918546094583  0.442081148465121  1.0000
  C   C13       1.0  0.47934464725715026  0.11606586423684462  0.487477567533844  1.0000
  C   C14       1.0  0.5609719194963105  0.16413861429994375  0.535985040712404  1.0000
  C   C15       1.0  0.5623951975344568  0.24907210889993076  0.5367471296180143  1.0000
  C   C16       1.0  0.40966690634823516  0.2429514205572119  0.4468591182552757  1.0000
  C   C17       1.0  0.4977648984385752  0.4887181060242868  0.26908503633716657  1.0000
  C   C18       1.0  0.5029545369411395  0.5605425849971867  0.23199757376383454  1.0000
  C   C19       1.0  0.5034490496466758  0.5569863265677385  0.1536114842709679  1.0000
  C   C20       1.0  0.4987816746237073  0.4802738728214848  0.1092973067010021  1.0000
  C   C21       1.0  0.49425542568468467  0.40807805048757473  0.1471457400764393  1.0000
  C   C22       1.0  0.4938208686707953  0.4125246051200905  0.22554839402337729  1.0000
  C   C23       1.0  0.49844635977438395  0.4714034641627336  0.027053283462215895  1.0000
  C   C24       1.0  0.5018232392285996  0.5285282842263044  0.9759960543263657  1.0000
  C   C25       1.0  0.506026587129135  0.5929520417983128  0.8567155880564101  1.0000
  C   C26       1.0  0.5015772875858318  0.5202274690602522  0.8937678686970187  1.0000
  C   C27       1.0  0.4969660750297463  0.44390725744734993  0.848841972460491  1.0000
  C   C28       1.0  0.4972590586415535  0.4412523873120335  0.7704907837980598  1.0000
  C   C29       1.0  0.5022642606863953  0.5136440465798843  0.734297625557339  1.0000
  C   C30       1.0  0.506343724307257  0.5894415202610687  0.7784118004961937  1.0000
  C   C31       1.0  0.8709237592053255  0.4988070017615555  0.4993709488630529  1.0000
  C   C32       1.0  0.9374164317664436  0.5487155759036925  0.45076366818987884  1.0000
  C   C33       1.0  0.9337266776482805  0.4513679881007704  0.5448162662704377  1.0000
  C   C34       1.0  0.8785408145474207  0.5981576184861339  0.4014597580750774  1.0000
  C   C35       1.0  0.9437049337029607  0.6457482649068995  0.3549847935536476  1.0000
  C   C36       1.0  0.12829657591018423  0.49802824397135476  0.4989027432383395  1.0000
  C   C37       1.0  0.0608459521579903  0.4510308786493979  0.5447142161570682  1.0000
  C   C38       1.0  0.0669373058000318  0.5481321936681596  0.45043281521252954  1.0000
  C   C39       1.0  0.1308395042780077  0.5966995193701479  0.40052552886835  1.0000
  C   C40       1.0  0.0707838237882683  0.6449432495504227  0.3544392662897025  1.0000
  N   N1        1.0  0.5119564906702863  0.7107797554602372  0.5081430696779847  1.0000
  N   N2        1.0  0.4882193466700143  0.2878620181039154  0.4932555205201936  1.0000
  O   O1        1.0  0.49355794722569607  0.42507514780328404  0.3830345344383019  1.0000
  O   O2        1.0  0.5000245624781384  0.564370941978453  0.3899453767926246  1.0000
  O   O3        1.0  0.3203659623925006  0.565430768768806  0.5094127446669674  1.0000
  O   O4        1.0  0.30943559794108927  0.42599481918769305  0.4938966637392994  1.0000
  O   O5        1.0  0.5073821960202736  0.5794581800994505  0.6216800393271171  1.0000
  O   O6        1.0  0.49827391511404784  0.43999047769531063  0.6126657889715901  1.0000
  O   O7        1.0  0.6813767998635926  0.42704128971737987  0.49548460979990244  1.0000
  O   O8        1.0  0.6866263869801584  0.5664761638014539  0.5091838374940991  1.0000
  F   F1        1.0  0.6157307666640008  0.004865371841049199  0.5701840883635825  1.0000
  F   F2        1.0  0.38506379629538406  0.9937176816089419  0.4302376109533199  1.0000
  F   F3        1.0  0.4938632965987039  0.39097987546806934  0.9964069374565199  1.0000
  F   F4        1.0  0.5063571190380499  0.6089187897445569  0.00684138524687939  1.0000
  F   F5        1.0  0.11384849189877849  0.4042925700474385  0.593328129186304  1.0000
  F   F6        1.0  0.8760634589740165  0.4045879066733846  0.5934875577672685  1.0000
