data_image0
_chemical_formula_structural       H28Pb2C18O8
_chemical_formula_sum              "H28 Pb2 C18 O8"
_cell_length_a       4.784205163654879
_cell_length_b       7.341669588015415
_cell_length_c       14.912642617764828
_cell_angle_alpha    90.00023091670145
_cell_angle_beta     90.48958905527803
_cell_angle_gamma    90.00003791708247

_space_group_name_H-M_alt    "P 1"
_space_group_IT_number       1

loop_
  _space_group_symop_operation_xyz
  'x, y, z'

loop_
  _atom_site_type_symbol
  _atom_site_label
  _atom_site_symmetry_multiplicity
  _atom_site_fract_x
  _atom_site_fract_y
  _atom_site_fract_z
  _atom_site_occupancy
  H   H1        1.0  0.5219625124572147  0.1327241613584889  0.20652610608875221  1.0000
  H   H2        1.0  0.5219605386376003  0.36727707597599135  0.20652699583092732  1.0000
  H   H3        1.0  0.4780369699279134  0.8672747349470029  0.7934752339671222  1.0000
  H   H4        1.0  0.4780431719294497  0.6327218203249173  0.7934730301200973  1.0000
  H   H5        1.0  0.9728970184237582  0.3690434201206115  0.11652973427528933  1.0000
  H   H6        1.0  0.972903122553184  0.1309613355176396  0.11653020877652413  1.0000
  H   H7        1.0  0.0271004695698878  0.6309513899094767  0.8834689105172091  1.0000
  H   H8        1.0  0.027096431650655006  0.869033474515639  0.8834691198882468  1.0000
  H   H9        1.0  0.5074868586800036  0.3694366422007604  0.0351608373848933  1.0000
  H   H10       1.0  0.507492962332087  0.1305563740334463  0.035161311094285  1.0000
  H   H11       1.0  0.49250849128149093  0.630556805746373  0.9648391349210288  1.0000
  H   H12       1.0  0.492506591870935  0.8694370739118469  0.9648380175691358  1.0000
  H   H13       1.0  0.9515910590174456  0.36947450899969425  0.9451268144545681  1.0000
  H   H14       1.0  0.9515930302059701  0.13052205016231258  0.9451259203477989  1.0000
  H   H15       1.0  0.0484021768555323  0.6305230252137191  0.054873814907828916  1.0000
  H   H16       1.0  0.0484044338497327  0.8694768461344963  0.05487339491110531  1.0000
  H   H17       1.0  0.4869946108694874  0.130495750667535  0.864092174027576  1.0000
  H   H18       1.0  0.48699475380450247  0.369502693022369  0.8640924111359782  1.0000
  H   H19       1.0  0.5130028531878493  0.869505869805266  0.13590714123402142  1.0000
  H   H20       1.0  0.5130069384331222  0.630496203269857  0.1359055900180692  1.0000
  H   H21       1.0  0.9281472307313547  0.1293090825634806  0.773208622182679  1.0000
  H   H22       1.0  0.9281453328163705  0.3706901442855183  0.7732075073117102  1.0000
  H   H23       1.0  0.07185643195330017  0.8706870895669211  0.2267927446903428  1.0000
  H   H24       1.0  0.07185842563144011  0.6293087520098978  0.22679117771460974  1.0000
  H   H25       1.0  0.46825216916732165  0.12803102179236697  0.6913708040474162  1.0000
  H   H26       1.0  0.4682502488360355  0.3719605501534886  0.6913703621670211  1.0000
  H   H27       1.0  0.5317494273071404  0.8719651503348447  0.3086298789533259  1.0000
  H   H28       1.0  0.5317534617277531  0.6280328977954426  0.3086296637785965  1.0000
  Pb  Pb1       1.0  0.20907525565612417  0.24999949279296627  0.44463284899362077  1.0000
  Pb  Pb2       1.0  0.790928454912553  0.7500021276839279  0.5553671769601038  1.0000
  C   C1        1.0  0.8375112141638823  0.25000169700860647  0.2889193365217367  1.0000
  C   C2        1.0  0.16249244852728853  0.7500053718257501  0.7110820303620926  1.0000
  C   C3        1.0  0.6645664019439296  0.2500026769300163  0.20366020295362833  1.0000
  C   C4        1.0  0.33543519453215953  0.7499962193731873  0.7963404800498213  1.0000
  C   C5        1.0  0.8330395111896606  0.2500009932739573  0.11748322312963923  1.0000
  C   C6        1.0  0.1669620852848013  0.7499951788532611  0.882517459871103  1.0000
  C   C7        1.0  0.6472167372321563  0.24999925279686147  0.03373753347757711  1.0000
  C   C8        1.0  0.35278272121096416  0.7499969193353876  0.966264477037946  1.0000
  C   C9        1.0  0.8119716811896468  0.24999757759142946  0.9464372571143331  1.0000
  C   C10       1.0  0.18802573498447825  0.7499999566228794  0.05356339906791872  1.0000
  C   C11       1.0  0.626459247678433  0.24999992309030006  0.8626070490820015  1.0000
  C   C12       1.0  0.3735402825882729  0.7500003352976988  0.1373929500505255  1.0000
  C   C13       1.0  0.7914989453722399  0.24999823429466517  0.7753343851514884  1.0000
  C   C14       1.0  0.20850474125360557  0.7499992999209866  0.2246663112605347  1.0000
  C   C15       1.0  0.6016372749556708  0.24999649279322964  0.6915245577621364  1.0000
  C   C16       1.0  0.3983664116685545  0.7499983172464367  0.30847613864717977  1.0000
  C   C17       1.0  0.776711894491342  0.2500016295435756  0.6074748766891176  1.0000
  C   C18       1.0  0.2232792991167116  0.7500040771918606  0.3925243983467723  1.0000
  O   O1        1.0  0.7190579376314331  0.2500101629108045  0.3659199690363764  1.0000
  O   O2        1.0  0.280943610980998  0.7500173372457509  0.6340820549201497  1.0000
  O   O3        1.0  0.1025732100650387  0.24999880934856825  0.2828367578390143  1.0000
  O   O4        1.0  0.897428410354692  0.7500055353038632  0.7171632547074865  1.0000
  O   O5        1.0  0.8536897669651466  0.09897046258547697  0.5731958216793345  1.0000
  O   O6        1.0  0.8536836532198038  0.4010366307012845  0.5731967515786283  1.0000
  O   O7        1.0  0.146305654826449  0.9010379683213542  0.4268021392543987  1.0000
  O   O8        1.0  0.1462909388871907  0.5989718001928281  0.4267990638688205  1.0000
