data_image0
_chemical_formula_structural       CuSiH20C24N4O4F6
_chemical_formula_sum              "Cu1 Si1 H20 C24 N4 O4 F6"
_cell_length_a       8.03312747140557
_cell_length_b       13.594366492281427
_cell_length_c       13.594355268983392
_cell_angle_alpha    89.73906182875893
_cell_angle_beta     86.17107648565695
_cell_angle_gamma    86.17101451538721

_space_group_name_H-M_alt    "P 1"
_space_group_IT_number       1

loop_
  _space_group_symop_operation_xyz
  'x, y, z'

loop_
  _atom_site_type_symbol
  _atom_site_label
  _atom_site_symmetry_multiplicity
  _atom_site_fract_x
  _atom_site_fract_y
  _atom_site_fract_z
  _atom_site_occupancy
  Cu  Cu1       1.0  0.4999910395880887  0.4999997639971455  0.49999932903168093  1.0000
  Si  Si1       1.0  0.999994613546271  0.49999904109563437  0.500002935771036  1.0000
  H   H1        1.0  0.2613156704547137  0.4998670586961752  0.34103341111658386  1.0000
  H   H2        1.0  0.2709812686491516  0.4997941058454175  0.16068842386167861  1.0000
  H   H3        1.0  0.8129522878615774  0.500166996100191  0.16489849732806053  1.0000
  H   H4        1.0  0.7791046224584547  0.500113986623056  0.3415873801991367  1.0000
  H   H5        1.0  0.18703148859547267  0.49981778710760244  0.8351023683211523  1.0000
  H   H6        1.0  0.7289999028226503  0.5002024722004705  0.8393102832266238  1.0000
  H   H7        1.0  0.7386727050810932  0.5001427965197891  0.658964217533061  1.0000
  H   H8        1.0  0.22087529970292508  0.49988259054038764  0.6584135826389357  1.0000
  H   H9        1.0  0.26131510390030843  0.3410341907709054  0.4998628548049666  1.0000
  H   H10       1.0  0.2709805494217932  0.16068901897419616  0.4997922283409721  1.0000
  H   H11       1.0  0.8129491148473064  0.16489944744657242  0.5001685956080024  1.0000
  H   H12       1.0  0.779100148613331  0.34158782406061766  0.5001132459662615  1.0000
  H   H13       1.0  0.1870338821854459  0.8351030299830384  0.49981750784323253  1.0000
  H   H14       1.0  0.7290002858186496  0.839310507866017  0.5002020648671747  1.0000
  H   H15       1.0  0.7386770344084609  0.6589646080652473  0.5001427684704609  1.0000
  H   H16       1.0  0.22088060227068235  0.6584124399932707  0.49988031158323315  1.0000
  H   H17       1.0  0.7991452612053963  0.4999779399477334  0.0449549949300589  1.0000
  H   H18       1.0  0.2008413245127585  0.500014955801035  0.9550442524346325  1.0000
  H   H19       1.0  0.7991475619905655  0.0449562927156251  0.49998040994625376  1.0000
  H   H20       1.0  0.20083692906126765  0.9550439743779506  0.5000159434500091  1.0000
  C   C1        1.0  0.38101029021934346  0.4999433477631357  0.29837185617896017  1.0000
  C   C2        1.0  0.3875640931525836  0.4999213544246075  0.196144171119073  1.0000
  C   C3        1.0  0.5423566386331656  0.5000178972205803  0.14047243159692613  1.0000
  C   C4        1.0  0.6842449985185864  0.5001023807400317  0.1967033087071499  1.0000
  C   C5        1.0  0.6689814040825014  0.500094711698928  0.29896857067500804  1.0000
  C   C6        1.0  0.5627400291640471  0.5000256396532948  0.0324094021977714  1.0000
  C   C7        1.0  0.4372477209109106  0.49996799422177685  0.9675875893812745  1.0000
  C   C8        1.0  0.3157384393183449  0.49988535138280105  0.8032960855530151  1.0000
  C   C9        1.0  0.4576302880938527  0.49997204949242047  0.8595253446657196  1.0000
  C   C10       1.0  0.6124187529949481  0.5000715382542894  0.8038515447760803  1.0000
  C   C11       1.0  0.6189743671566034  0.5000554450238185  0.7016289110257077  1.0000
  C   C12       1.0  0.3310035937051267  0.49990113208243514  0.7010314610503912  1.0000
  C   C13       1.0  0.381009757153315  0.29836964791581266  0.4999404737400682  1.0000
  C   C14       1.0  0.3875631621229019  0.1961444908385631  0.4999199626204955  1.0000
  C   C15       1.0  0.5423555563278556  0.14047247230455182  0.5000176806262218  1.0000
  C   C16       1.0  0.6842444552015009  0.1967037418520903  0.5001007320925838  1.0000
  C   C17       1.0  0.6689769838413467  0.29896927494851167  0.5000931996405527  1.0000
  C   C18       1.0  0.5627399534993884  0.0324097814142164  0.5000255267277325  1.0000
  C   C19       1.0  0.4372487910251266  0.9675860650748548  0.4999692089939175  1.0000
  C   C20       1.0  0.3157401303589749  0.8032957875147418  0.4998838513751664  1.0000
  C   C21       1.0  0.45763052743202315  0.8595248465149796  0.49997200342713916  1.0000
  C   C22       1.0  0.6124205947149335  0.8038513516378245  0.5000720261358254  1.0000
  C   C23       1.0  0.6189775687507221  0.7016276721483337  0.5000557820368172  1.0000
  C   C24       1.0  0.3310061777239496  0.701031728265022  0.4998995244874109  1.0000
  N   N1        1.0  0.5190579659589715  0.5000246218394154  0.3496180033084998  1.0000
  N   N2        1.0  0.4809262690376171  0.4999778570460763  0.6503798212256839  1.0000
  N   N3        1.0  0.5190551106445155  0.3496181199512237  0.5000217784903357  1.0000
  N   N4        1.0  0.4809295485230009  0.650380672745193  0.49997678184600863  1.0000
  O   O1        1.0  0.7242764756130383  0.5000783069230792  0.9915789036432019  1.0000
  O   O2        1.0  0.27571362578067476  0.4999057437850852  0.008418775143574904  1.0000
  O   O3        1.0  0.7242794205737011  0.9915798124649556  0.5000768848588281  1.0000
  O   O4        1.0  0.2757104912935588  0.008416771999513604  0.4999119169632991  1.0000
  F   F1        1.0  0.21582104676011937  0.4994392161683692  0.4994431341347295  1.0000
  F   F2        1.0  0.7841687682097457  0.5005581061435578  0.500560380107018  1.0000
  F   F3        1.0  5.0632237175743515e-06  0.5892747304815701  0.41072501445683685  1.0000
  F   F4        1.0  0.9999884948999097  0.4107225947191467  0.5892776175178085  1.0000
  F   F5        1.0  0.018638874516504682  0.41073118466302116  0.4107361513159447  1.0000
  F   F6        1.0  0.9813546782324278  0.5892661408093219  0.5892731012636646  1.0000
