data_image0
_chemical_formula_structural       Cu2H22C18N4Cl2O4
_chemical_formula_sum              "Cu2 H22 C18 N4 Cl2 O4"
_cell_length_a       4.868597362636103
_cell_length_b       5.68940634408182
_cell_length_c       19.401367316040368
_cell_angle_alpha    90.00085423697266
_cell_angle_beta     89.99952482148949
_cell_angle_gamma    103.08317433948977

_space_group_name_H-M_alt    "P 1"
_space_group_IT_number       1

loop_
  _space_group_symop_operation_xyz
  'x, y, z'

loop_
  _atom_site_type_symbol
  _atom_site_label
  _atom_site_symmetry_multiplicity
  _atom_site_fract_x
  _atom_site_fract_y
  _atom_site_fract_z
  _atom_site_occupancy
  Cu  Cu1       1.0  0.7009527919797663  0.46065372258884457  0.8065595289800102  1.0000
  Cu  Cu2       1.0  0.2990358279945795  0.5393402978622391  0.3065557096580776  1.0000
  H   H1        1.0  0.8463686233669849  0.7572037314858237  0.9159478323155597  1.0000
  H   H2        1.0  0.15361625615415164  0.24279582725345972  0.4159452858156101  1.0000
  H   H3        1.0  0.5197960502631748  0.48165629028379453  0.6567798101721749  1.0000
  H   H4        1.0  0.4802214101121224  0.518353584682231  0.15677509826319644  1.0000
  H   H5        1.0  0.6110144062875521  0.2679169406204451  0.5474404262128233  1.0000
  H   H6        1.0  0.389011023198492  0.7320983081366991  0.0474386574373895  1.0000
  H   H7        1.0  0.9138970997936512  0.9708289779703279  0.5539160128350176  1.0000
  H   H8        1.0  0.0861195988046006  0.029183968027595614  0.0539167970145371  1.0000
  H   H9        1.0  0.09628563743664387  0.8752214482594809  0.6711103867518489  1.0000
  H   H10       1.0  0.9037142752199403  0.12477309740427243  0.1711105424922721  1.0000
  H   H11       1.0  0.23130101935841912  0.11650310340103694  0.7954121083547748  1.0000
  H   H12       1.0  0.7686859848965002  0.8834927636653022  0.2954114024518759  1.0000
  H   H13       1.0  0.9234373297596793  0.8891427361891576  0.8053860176635086  1.0000
  H   H14       1.0  0.07655538404657143  0.11084080191260173  0.3053876333740249  1.0000
  H   H15       1.0  0.09375057504830409  0.5294684536250286  0.9637520002084728  1.0000
  H   H16       1.0  0.9062595125738895  0.4705353142358105  0.4637565438488381  1.0000
  H   H17       1.0  0.7137807339649386  0.5242105999009965  0.047395794312066614  1.0000
  H   H18       1.0  0.28626218331832837  0.47583049279572975  0.5473910278921394  1.0000
  H   H19       1.0  0.4853887053982292  0.2802511874742066  0.0025667565464715003  1.0000
  H   H20       1.0  0.5146016033604113  0.7197825068381861  0.5025542204404374  1.0000
  H   H21       1.0  0.7882910885139298  0.23298928303798053  0.0469117947453341  1.0000
  H   H22       1.0  0.211724102030317  0.7670468650604649  0.5469070544732801  1.0000
  C   C1        1.0  0.6454664917462056  0.34565690499511  0.656016076542926  1.0000
  C   C2        1.0  0.3545477490637339  0.6543367665672193  0.1560116198702559  1.0000
  C   C3        1.0  0.6988603783942935  0.2283643113208741  0.5965644395668124  1.0000
  C   C4        1.0  0.30116975219105063  0.7716451881653016  0.0965639049853309  1.0000
  C   C5        1.0  0.8652986177800204  0.05843967909841301  0.6009495849688591  1.0000
  C   C6        1.0  0.134720006344466  0.9415638388452409  0.10094772916609433  1.0000
  C   C7        1.0  0.9677620105936385  0.0080103618755203  0.6648250552357098  1.0000
  C   C8        1.0  0.0322428336603906  0.9919880781184677  0.1648240796682927  1.0000
  C   C9        1.0  0.903641956881252  0.1298670867278418  0.7230773348016015  1.0000
  C   C10       1.0  0.09635811587347126  0.8701196628386332  0.2230744136685843  1.0000
  C   C11       1.0  0.998801990957411  0.08255133879219301  0.793943063074309  1.0000
  C   C12       1.0  0.0011825173481696647  0.9174319373227321  0.293940448701946  1.0000
  C   C13       1.0  0.9208064612817998  0.21000968871918252  0.9096465017377968  1.0000
  C   C14       1.0  0.07916098954957103  0.7899641108311568  0.4096423500131721  1.0000
  C   C15       1.0  0.8781385485922045  0.42836069754319095  0.9510282344728794  1.0000
  C   C16       1.0  0.12185467488397708  0.5716406091557076  0.4510259180682256  1.0000
  C   C17       1.0  0.7051094623036818  0.36246390140966883  0.0160596029655835  1.0000
  C   C18       1.0  0.29490350586808495  0.6375600480027686  0.5160538013958985  1.0000
  N   N1        1.0  0.7476100278633669  0.29736268740656885  0.7176185221398654  1.0000
  N   N2        1.0  0.2523859396743049  0.7026239276296238  0.21761801626227145  1.0000
  N   N3        1.0  0.8972687341314373  0.23433776779712906  0.8424957275924356  1.0000
  N   N4        1.0  0.10271152460603616  0.765646454262601  0.34249124960258115  1.0000
  Cl  Cl1       1.0  0.39660576812785564  0.671710026309448  0.7726145580275344  1.0000
  Cl  Cl2       1.0  0.6033740656772084  0.328269724111081  0.272615258950708  1.0000
  O   O1        1.0  0.9890414941678218  0.03363269188218961  0.9403732446519515  1.0000
  O   O2        1.0  0.010925743659669305  0.9663514028098208  0.440372100425499  1.0000
  O   O3        1.0  0.74897636910692  0.5810431215128632  0.9077255741420985  1.0000
  O   O4        1.0  0.2510005603404721  0.4189472283771636  0.4077197341322005  1.0000
