data_image0
_chemical_formula_structural       Sr2H28C8N24O18
_chemical_formula_sum              "Sr2 H28 C8 N24 O18"
_cell_length_a       6.515657764913282
_cell_length_b       10.180101464270765
_cell_length_c       13.009650697015308
_cell_angle_alpha    90.00003114289811
_cell_angle_beta     89.99981833994006
_cell_angle_gamma    106.24997312329386

_space_group_name_H-M_alt    "P 1"
_space_group_IT_number       1

loop_
  _space_group_symop_operation_xyz
  'x, y, z'

loop_
  _atom_site_type_symbol
  _atom_site_label
  _atom_site_symmetry_multiplicity
  _atom_site_fract_x
  _atom_site_fract_y
  _atom_site_fract_z
  _atom_site_occupancy
  Sr  Sr1       1.0  0.05982743250144304  0.6439546105211209  0.7500002429989719  1.0000
  Sr  Sr2       1.0  0.9401715043909677  0.35604255167168475  0.2499975597862587  1.0000
  H   H1        1.0  0.747521698965315  0.34623570606784443  0.6891347949849589  1.0000
  H   H2        1.0  0.2524683861868269  0.6537614236256744  0.18913337517682294  1.0000
  H   H3        1.0  0.2524726207743484  0.653761426234496  0.31086608244465447  1.0000
  H   H4        1.0  0.7475178059453215  0.3462346357246774  0.8108651962788187  1.0000
  H   H5        1.0  0.40210104811077935  0.9274283618475182  0.691310514555461  1.0000
  H   H6        1.0  0.5978927242838381  0.07257389251429912  0.19131288398982346  1.0000
  H   H7        1.0  0.5978980792366926  0.072572882926714  0.3086880568906523  1.0000
  H   H8        1.0  0.402096736398761  0.9274262693439969  0.8086864561241639  1.0000
  H   H9        1.0  0.5588085535560623  0.7838928086471528  0.09054864405418779  1.0000
  H   H10       1.0  0.4411893626320805  0.21611053394109095  0.5905459001732822  1.0000
  H   H11       1.0  0.441188169976634  0.21610637989036266  0.9094545393543285  1.0000
  H   H12       1.0  0.5588084161348377  0.7838947834521762  0.4094495966342464  1.0000
  H   H13       1.0  0.5020985139272512  0.6251130891854118  0.8384288434975814  1.0000
  H   H14       1.0  0.49790005760953454  0.37488811595263644  0.3384338155090347  1.0000
  H   H15       1.0  0.4978989353619028  0.3748769210159396  0.16157433990833428  1.0000
  H   H16       1.0  0.5020981535046828  0.6251182245747771  0.6615709052201025  1.0000
  H   H17       1.0  0.37148847935456086  0.6936955564428191  0.0077948275105726  1.0000
  H   H18       1.0  0.6285066369422765  0.3063108627554954  0.5077918141520925  1.0000
  H   H19       1.0  0.6284967965443399  0.3063055986607139  0.9922098932281003  1.0000
  H   H20       1.0  0.37149662370823217  0.693696530799116  0.49220752595209655  1.0000
  H   H21       1.0  0.7581837027965365  0.8196962763726533  0.6891733223784868  1.0000
  H   H22       1.0  0.24181075733831392  0.18030394263880115  0.1891717137949342  1.0000
  H   H23       1.0  0.24181869310621812  0.18030907090987108  0.3108244804056781  1.0000
  H   H24       1.0  0.758178945267936  0.8196931597744526  0.8108260889978992  1.0000
  H   H25       1.0  0.3339899076752104  0.5009292858867767  0.8920376195370778  1.0000
  H   H26       1.0  0.6660204488483433  0.49906789234793103  0.39204159987910703  1.0000
  H   H27       1.0  0.6659991720996814  0.499062710808829  0.10795941459500819  1.0000
  H   H28       1.0  0.33399671468792036  0.5009324488486725  0.6079592775323803  1.0000
  C   C1        1.0  0.31579613635398834  0.8661984935023315  0.0637326157866767  1.0000
  C   C2        1.0  0.6842015160050254  0.13380383796919662  0.5637286667759795  1.0000
  C   C3        1.0  0.6841902976800682  0.13379450640142213  0.9362713362891171  1.0000
  C   C4        1.0  0.3158067941672726  0.8662046086115752  0.43626990466412957  1.0000
  C   C5        1.0  0.08877623753452478  0.9825084133105338  0.023344349555351595  1.0000
  C   C6        1.0  0.9112148381920093  0.0174959327200312  0.523338438303675  1.0000
  C   C7        1.0  0.9112033145233198  0.017493725074288605  0.9766688264498599  1.0000
  C   C8        1.0  0.08878909674877626  0.9825094245250697  0.4766624391198064  1.0000
  N   N1        1.0  0.37845350587633664  0.9866161628548087  0.1107384642719182  1.0000
  N   N2        1.0  0.6215442834189274  0.013387170684403302  0.6107345660683663  1.0000
  N   N3        1.0  0.6215370614559248  0.013382985828982907  0.8892677937822454  1.0000
  N   N4        1.0  0.3784574381887181  0.9866202129072975  0.38926323671680046  1.0000
  N   N5        1.0  0.2349901822457952  0.059092731027647  0.0858829859271921  1.0000
  N   N6        1.0  0.7650081956534578  0.940911636788748  0.5858769494909808  1.0000
  N   N7        1.0  0.7649988460218609  0.940906407691678  0.9141286527492554  1.0000
  N   N8        1.0  0.23499309356822806  0.05909472366604973  0.4141239279348952  1.0000
  N   N9        1.0  0.1336568516891319  0.8588830908783863  0.0083023752325673  1.0000
  N   N10       1.0  0.8663393680905359  0.1411223149195919  0.5082988978212626  1.0000
  N   N11       1.0  0.8663227003928639  0.14111904750815543  0.9917031141711803  1.0000
  N   N12       1.0  0.13366850970547253  0.858885108524966  0.49169967361898154  1.0000
  N   N13       1.0  0.4013022454600091  0.7587677063802334  0.070402954643022  1.0000
  N   N14       1.0  0.5986959878031186  0.24123972781900707  0.5704007307289771  1.0000
  N   N15       1.0  0.598684327567767  0.2412365181319416  0.9296017660952458  1.0000
  N   N16       1.0  0.40130376237812015  0.7587666226730434  0.429597840717733  1.0000
  N   N17       1.0  0.04199518751573088  0.7544589853062719  0.9407579014707181  1.0000
  N   N18       1.0  0.9580113008830083  0.24554427005742957  0.4407543720359115  1.0000
  N   N19       1.0  0.9580043721959584  0.24554328260332187  0.05924451327598489  1.0000
  N   N20       1.0  0.0420042721490573  0.754463203203251  0.5592449680581453  1.0000
  N   N21       1.0  0.8789761599989846  0.6609280627012026  0.9833571051542336  1.0000
  N   N22       1.0  0.12103602638764235  0.3390711308403596  0.4833542275541163  1.0000
  N   N23       1.0  0.12102320927213839  0.33907012262798736  0.0166399289707186  1.0000
  N   N24       1.0  0.8789947981300585  0.6609252174446498  0.5166435752046538  1.0000
  O   O1        1.0  0.8073661793748812  0.6719791751158655  0.0725233343806053  1.0000
  O   O2        1.0  0.19263036250799812  0.3280170235604772  0.5725241236546381  1.0000
  O   O3        1.0  0.19262314232607744  0.328009762134876  0.9274713937701762  1.0000
  O   O4        1.0  0.807379589622599  0.6719771489287113  0.4274782910817336  1.0000
  O   O5        1.0  0.7987775138831382  0.5589975858029207  0.9260227887782548  1.0000
  O   O6        1.0  0.2012654328987935  0.4409936675384786  0.4260198233704955  1.0000
  O   O7        1.0  0.2012385430203736  0.44100376856939505  0.0739657900720303  1.0000
  O   O8        1.0  0.7988072392964796  0.558992748282819  0.5739749047110365  1.0000
  O   O9        1.0  0.3078332291873308  0.8860005250767243  0.7499970166889867  1.0000
  O   O10       1.0  0.6921610905668345  0.11399660722665322  0.24999924877975127  1.0000
  O   O11       1.0  0.7457719109606273  0.7577702179803226  0.7499997024221656  1.0000
  O   O12       1.0  0.2542261097178553  0.24223203996704265  0.2499981003649268  1.0000
  O   O13       1.0  0.36010924262063787  0.5974528973649172  0.8700647001181777  1.0000
  O   O14       1.0  0.6398935567801163  0.4025442409028557  0.3700648381546899  1.0000
  O   O15       1.0  0.6398844542900903  0.40253912921995294  0.1299346399905446  1.0000
  O   O16       1.0  0.3601148048656029  0.5974570636517884  0.6299298899830958  1.0000
  O   O17       1.0  0.8229154559809615  0.3940888379486723  0.7500018655665671  1.0000
  O   O18       1.0  0.17707424661078613  0.605908264463544  0.2500005491871349  1.0000
