data_image0
_chemical_formula_structural       K4H24C36Br16O12
_chemical_formula_sum              "K4 H24 C36 Br16 O12"
_cell_length_a       7.704361572515866
_cell_length_b       10.506918087072629
_cell_length_c       16.986268382386402
_cell_angle_alpha    90.86855879348649
_cell_angle_beta     91.51851242343089
_cell_angle_gamma    100.670179125967

_space_group_name_H-M_alt    "P 1"
_space_group_IT_number       1

loop_
  _space_group_symop_operation_xyz
  'x, y, z'

loop_
  _atom_site_type_symbol
  _atom_site_label
  _atom_site_symmetry_multiplicity
  _atom_site_fract_x
  _atom_site_fract_y
  _atom_site_fract_z
  _atom_site_occupancy
  K   K1        1.0  0.9390076424616467  0.31228929345666495  0.2352843141908281  1.0000
  K   K2        1.0  0.06097276303263033  0.6876998144031389  0.764725210926109  1.0000
  K   K3        1.0  0.560172243756412  0.7012778892948576  0.7385483689403288  1.0000
  K   K4        1.0  0.43984542184205117  0.29871508892929904  0.2614509896350938  1.0000
  H   H1        1.0  0.2074891242970479  0.847823859041135  0.18380663550556162  1.0000
  H   H2        1.0  0.7925177753903655  0.15217790007444174  0.8161880124847087  1.0000
  H   H3        1.0  0.23453245089549304  0.9127533660710085  0.08988364477141182  1.0000
  H   H4        1.0  0.765467184970433  0.08725032228375078  0.91011448512743  1.0000
  H   H5        1.0  0.37006799099741977  0.990466266301617  0.17154311975456688  1.0000
  H   H6        1.0  0.6299363292472365  0.0095354816282551  0.8284538565256909  1.0000
  H   H7        1.0  0.9224639674863937  0.012737061823386901  0.3168482082524449  1.0000
  H   H8        1.0  0.07754456263018734  0.9872607828852722  0.6831511173706275  1.0000
  H   H9        1.0  0.7872651163831037  0.8604890203932527  0.29062850745160074  1.0000
  H   H10       1.0  0.2127473664627999  0.13950396087886932  0.7093719754508642  1.0000
  H   H11       1.0  0.8030592701346251  0.9108515367802285  0.3898225831936842  1.0000
  H   H12       1.0  0.19694411703836323  0.08914147736349781  0.6101760406737571  1.0000
  H   H13       1.0  0.9304645165503089  0.9817991099028589  0.0685184597734292  1.0000
  H   H14       1.0  0.0695439777657185  0.0181987729348805  0.9314755674702299  1.0000
  H   H15       1.0  0.870654287731753  0.8727895075805276  0.1434685561421389  1.0000
  H   H16       1.0  0.12935527496360777  0.1272073825056523  0.856528413272521  1.0000
  H   H17       1.0  0.8248946881492287  0.03380665714746559  0.15350052278247972  1.0000
  H   H18       1.0  0.17511304667253566  0.9661883323345749  0.8464916943973932  1.0000
  H   H19       1.0  0.44727536201614265  0.8540604982492539  0.3572593400391071  1.0000
  H   H20       1.0  0.5527313203376424  0.14593546703808613  0.6427322898050605  1.0000
  H   H21       1.0  0.5081915404268571  0.9878553446643468  0.42160397570189906  1.0000
  H   H22       1.0  0.4918136627167867  0.012134791545953804  0.5783899211029322  1.0000
  H   H23       1.0  0.3654884262050118  0.0005806259587827999  0.3379359472522836  1.0000
  H   H24       1.0  0.6345115384657589  0.9994143638586406  0.6620585451269748  1.0000
  C   C1        1.0  0.3291628754446094  0.5950530292893886  0.9294609955995767  1.0000
  C   C2        1.0  0.6708467668686849  0.4049341935709875  0.0705323216497149  1.0000
  C   C3        1.0  0.2297916953102046  0.5943064592530761  0.5697961434602377  1.0000
  C   C4        1.0  0.7702077192136799  0.40569623075727174  0.43020609275460236  1.0000
  C   C5        1.0  0.21186001900836254  0.47135346267443606  0.9426054228399751  1.0000
  C   C6        1.0  0.7881473766142761  0.5286298374735949  0.0573948870594734  1.0000
  C   C7        1.0  0.28087647559404155  0.46794783167692344  0.5580235441971128  1.0000
  C   C8        1.0  0.7191276113750575  0.5320529306182208  0.4419757722726771  1.0000
  C   C9        1.0  0.19435860130931812  0.41546747423787883  0.0149757471511265  1.0000
  C   C10       1.0  0.8056358836267706  0.5845361832723411  0.9850282167453556  1.0000
  C   C11       1.0  0.26258048755634883  0.4035905065413273  0.4866563775380328  1.0000
  C   C12       1.0  0.7373955448828865  0.5964170519805876  0.5133498006870667  1.0000
  C   C13       1.0  0.2931994269494281  0.47357584675082626  0.08544607905549381  1.0000
  C   C14       1.0  0.7067946113553062  0.5264210270598682  0.9145577955932396  1.0000
  C   C15       1.0  0.19138929404716973  0.4560466063964552  0.41602688549484423  1.0000
  C   C16       1.0  0.8085915047967519  0.5439745320665069  0.5839765674995903  1.0000
  C   C17       1.0  0.39823801170599177  0.602045782858319  0.0734946859087202  1.0000
  C   C18       1.0  0.601763077064433  0.3979433636483876  0.9265032773941542  1.0000
  C   C19       1.0  0.154767524635801  0.5863976142879394  0.426486395469965  1.0000
  C   C20       1.0  0.8452271602139092  0.41362746333054906  0.5735042972399357  1.0000
  C   C21       1.0  0.41426655146817376  0.6590276458176233  0.0008307764370342944  1.0000
  C   C22       1.0  0.5857542238001657  0.3409624558293984  0.9991632796396174  1.0000
  C   C23       1.0  0.17270373077887052  0.6511707415169423  0.4982365530749675  1.0000
  C   C24       1.0  0.827301217599647  0.34884841331701466  0.5017659453906447  1.0000
  C   C25       1.0  0.09991590415545201  0.018613762265701397  0.1711465730280892  1.0000
  C   C26       1.0  0.9000828265142575  0.9813763713997121  0.8288496122487815  1.0000
  C   C27       1.0  0.6417819168535884  0.0092358009900835  0.3136739427446357  1.0000
  C   C28       1.0  0.3582227560629363  0.9907572229830635  0.6863229282689787  1.0000
  C   C29       1.0  0.23788395335935766  0.9401298923737329  0.1526176097133956  1.0000
  C   C30       1.0  0.7621214233311164  0.0598708755142709  0.84738054261139  1.0000
  C   C31       1.0  0.7995221193396346  0.9467368464891309  0.3296312611376494  1.0000
  C   C32       1.0  0.20048436156129407  0.053258099270976814  0.6703674185666273  1.0000
  C   C33       1.0  0.9199571042407797  0.9760785087351423  0.13288195033385364  1.0000
  C   C34       1.0  0.08004805113822039  0.023916469561186194  0.8671125951360139  1.0000
  C   C35       1.0  0.47928683883419143  0.9605104450233808  0.3591328896114589  1.0000
  C   C36       1.0  0.5207159584440929  0.0394855204316542  0.6408598778324047  1.0000
  Br  Br1       1.0  0.07364593330937197  0.4000990353464785  0.8535358706394336  1.0000
  Br  Br2       1.0  0.9263495101352178  0.599888138702191  0.1464684860783549  1.0000
  Br  Br3       1.0  0.3863613296329689  0.40550629161729296  0.647612624465019  1.0000
  Br  Br4       1.0  0.613623758700804  0.5945012763986597  0.3523895257068688  1.0000
  Br  Br5       1.0  0.029861917488041484  0.26180066979056704  0.0316228033649608  1.0000
  Br  Br6       1.0  0.9701474915191142  0.7381903586823525  0.968380567244779  1.0000
  Br  Br7       1.0  0.33947813895281337  0.24420870111029566  0.4712328678148694  1.0000
  Br  Br8       1.0  0.6605096004248239  0.7557988018332084  0.5287775508258576  1.0000
  Br  Br9       1.0  0.4941239416897502  0.6916098892482552  0.1668399991080562  1.0000
  Br  Br10      1.0  0.5058807311962069  0.3083879259721485  0.8331645850764815  1.0000
  Br  Br11      1.0  0.10191607982517323  0.6678933042703646  0.3326331168653525  1.0000
  Br  Br12      1.0  0.89805076381991  0.33214915888695634  0.667374580208069  1.0000
  Br  Br13      1.0  0.5279939784812696  0.8327607753984549  0.9876961764605453  1.0000
  Br  Br14      1.0  0.4720131505038623  0.16724197358840337  0.0122955426313709  1.0000
  Br  Br15      1.0  0.1442608202564557  0.825681963841241  0.5087441511473474  1.0000
  Br  Br16      1.0  0.8557078344209117  0.17432641118821834  0.4912855104405764  1.0000
  O   O1        1.0  0.3441418864795479  0.6461210023826992  0.8626468180358771  1.0000
  O   O2        1.0  0.6558538921863358  0.353877865236548  0.1373488572535138  1.0000
  O   O3        1.0  0.2456922906960486  0.6522668249769624  0.6358557879740516  1.0000
  O   O4        1.0  0.7542771434870659  0.3477252572363412  0.3641477745380968  1.0000
  O   O5        1.0  0.27882280380077157  0.4205144892589343  0.151467387150376  1.0000
  O   O6        1.0  0.7211922146705233  0.5794881322956228  0.848539718006876  1.0000
  O   O7        1.0  0.17448765662403787  0.3962217637339619  0.3506001361456513  1.0000
  O   O8        1.0  0.8254874969246231  0.6037926110236995  0.6494019970927738  1.0000
  O   O9        1.0  0.13252454091587398  0.11269343178623359  0.21747570434014563  1.0000
  O   O10       1.0  0.8674820777313385  0.8873121837806508  0.7825219325046788  1.0000
  O   O11       1.0  0.6452153814142535  0.09535575090168888  0.2646038018319103  1.0000
  O   O12       1.0  0.3547980384811637  0.9046459599200033  0.7353956221922076  1.0000
