data_image0
_chemical_formula_structural       Zn2H20C30I8N2O12
_chemical_formula_sum              "Zn2 H20 C30 I8 N2 O12"
_cell_length_a       11.001901458155531
_cell_length_b       13.161413989911086
_cell_length_c       14.384063764159173
_cell_angle_alpha    90.40043760396766
_cell_angle_beta     89.79868668671584
_cell_angle_gamma    90.24824081563078

_space_group_name_H-M_alt    "P 1"
_space_group_IT_number       1

loop_
  _space_group_symop_operation_xyz
  'x, y, z'

loop_
  _atom_site_type_symbol
  _atom_site_label
  _atom_site_symmetry_multiplicity
  _atom_site_fract_x
  _atom_site_fract_y
  _atom_site_fract_z
  _atom_site_occupancy
  Zn  Zn1       1.0  0.5006963349452606  0.39114071526579164  0.4990345071364005  1.0000
  Zn  Zn2       1.0  0.4994135697533011  0.614154600907824  0.50717756277205  1.0000
  H   H1        1.0  0.076307932833906  0.3659990747200652  0.2276047937155852  1.0000
  H   H2        1.0  0.08341883978925321  0.2675681639820695  0.3115914441884797  1.0000
  H   H3        1.0  0.3123430394857607  0.2744689841358153  0.3064329913426392  1.0000
  H   H4        1.0  0.2518495240831413  0.2507328429909208  0.1931903955851979  1.0000
  H   H5        1.0  0.306822687133078  0.37377204094657657  0.22322870803553493  1.0000
  H   H6        1.0  0.2575495318436651  0.5458205983174906  0.32047575262946293  1.0000
  H   H7        1.0  0.23397102839606285  0.6793704250543086  0.31490324733424313  1.0000
  H   H8        1.0  0.10891683622149632  0.6547276384265929  0.16982448493369875  1.0000
  H   H9        1.0  0.2579984947594625  0.6048333482251068  0.1551970528489477  1.0000
  H   H10       1.0  0.13336961609071812  0.5210404086486237  0.17471606793547076  1.0000
  H   H11       1.0  0.7614151763631725  0.5077266130678098  0.2883320132531751  1.0000
  H   H12       1.0  0.7424367091186925  0.3779477556257191  0.3191753998854879  1.0000
  H   H13       1.0  0.8587706153820562  0.3222645409570434  0.17950664255123172  1.0000
  H   H14       1.0  0.7381916891857542  0.4035731536598919  0.1449854291173907  1.0000
  H   H15       1.0  0.8894355006466768  0.45135020518226565  0.14902290905894947  1.0000
  H   H16       1.0  0.9563706855996801  0.7421174954094029  0.3219741350189338  1.0000
  H   H17       1.0  0.8039335442274621  0.7647009245898245  0.3583714530271039  1.0000
  H   H18       1.0  0.7254210300960153  0.6617987425603007  0.22309617170678564  1.0000
  H   H19       1.0  0.8206275912074685  0.7625022973243533  0.18490108912473596  1.0000
  H   H20       1.0  0.8779735944266563  0.6363740730071684  0.1866704299374504  1.0000
  C   C1        1.0  0.503718093301032  0.5126021435729485  0.3241145611903846  1.0000
  C   C2        1.0  0.2651029473138209  0.5125034362735762  0.4978524520365752  1.0000
  C   C3        1.0  0.7349299315481304  0.4889894849435663  0.497722459340622  1.0000
  C   C4        1.0  0.49975432868468084  0.49735067162569657  0.680965957223208  1.0000
  C   C5        1.0  0.07926939717038552  0.4096387892760022  0.43518667476500644  1.0000
  C   C6        1.0  0.06503561905196881  0.6038399178477223  0.43681134403642835  1.0000
  C   C7        1.0  0.9346109523327116  0.41142236962026146  0.4205881286954708  1.0000
  C   C8        1.0  0.9200170841507646  0.6030734078015386  0.452742993389144  1.0000
  C   C9        1.0  0.06982367289669611  0.5056271207300043  0.5981658400759998  1.0000
  C   C10       1.0  0.930766354612672  0.4759719610251238  0.5958822152090448  1.0000
  C   C11       1.0  0.12211139062861782  0.5080100853424981  0.4952234608994459  1.0000
  C   C12       1.0  0.8778004262206525  0.494119217805661  0.4947553076442831  1.0000
  C   C13       1.0  0.5051489247695926  0.5149030902039088  0.22381338742760454  1.0000
  C   C14       1.0  0.5043272575410711  0.5125318165368641  0.1384659038708236  1.0000
  C   C15       1.0  0.5031485708158315  0.5084933209331056  0.0453834968653908  1.0000
  C   C16       1.0  0.5017474710057498  0.5035491208364606  0.959653198697666  1.0000
  C   C17       1.0  0.5006429114380849  0.4990718633833283  0.86659205850237  1.0000
  C   C18       1.0  0.4999851270866103  0.49562796942043263  0.7813176722334845  1.0000
  C   C19       1.0  0.5140195219213481  0.8545308487647109  0.5074473825582048  1.0000
  C   C20       1.0  0.4918719422806035  0.15065150873456196  0.4960839187891183  1.0000
  C   C21       1.0  0.5076256079376975  0.9558600962519891  0.5036705021933728  1.0000
  C   C22       1.0  0.5005644083358405  0.049485265915471616  0.4998491872177412  1.0000
  C   C23       1.0  0.1319184440882282  0.3335096436012962  0.28305155316794384  1.0000
  C   C24       1.0  0.25852012525391643  0.3068778407840755  0.2499420496752336  1.0000
  C   C25       1.0  0.19578230896693335  0.6046479500820113  0.2961608835258218  1.0000
  C   C26       1.0  0.17182404820979974  0.5955832782383369  0.19301595898579654  1.0000
  C   C27       1.0  0.8017352178617259  0.4322196349460867  0.2830412637918158  1.0000
  C   C28       1.0  0.8242142170853556  0.40032347982742084  0.1833588269208377  1.0000
  C   C29       1.0  0.8637366999445177  0.7111736377238245  0.3211596741704811  1.0000
  C   C30       1.0  0.8192484843890429  0.6906895377795196  0.22342331957445796  1.0000
  I   I1        1.0  0.1501856070049996  0.2521332500336442  0.4985574268803746  1.0000
  I   I2        1.0  0.14671550685954324  0.7693613710897228  0.4617184980518375  1.0000
  I   I3        1.0  0.8509126672962921  0.24254575809280962  0.4174348235570022  1.0000
  I   I4        1.0  0.8497840644571399  0.7413293451768939  0.5450992560265817  1.0000
  I   I5        1.0  0.1816788352958838  0.4115580581177696  0.6945158723130336  1.0000
  I   I6        1.0  0.11047117611570201  0.648896629046732  0.6771896896506535  1.0000
  I   I7        1.0  0.8920458045207554  0.31923965815408195  0.6483294935523605  1.0000
  I   I8        1.0  0.8192194933350195  0.5478936694719324  0.7089952424001922  1.0000
  N   N1        1.0  0.5227215927036042  0.7656522560039748  0.5110078166238239  1.0000
  N   N2        1.0  0.4794182453856024  0.2392651360779965  0.49285096640685583  1.0000
  O   O1        1.0  0.5226324966518378  0.426137200153576  0.36011475141111055  1.0000
  O   O2        1.0  0.48305605001069557  0.5966805647482262  0.3653824019933865  1.0000
  O   O3        1.0  0.3217136400739875  0.4315085340525613  0.4803116046603862  1.0000
  O   O4        1.0  0.3122362977199701  0.5971810470030691  0.5184932292113517  1.0000
  O   O5        1.0  0.6882498890964541  0.40241510140909037  0.5105643036675502  1.0000
  O   O6        1.0  0.677950731474681  0.5709781355432711  0.48789246868091857  1.0000
  O   O7        1.0  0.4908221020840672  0.4120543844279185  0.6394855293119053  1.0000
  O   O8        1.0  0.5085913545313474  0.5851691581337378  0.6452828749704624  1.0000
  O   O9        1.0  0.1429584015375553  0.4112209485760446  0.3550254338945892  1.0000
  O   O10       1.0  0.0793031114294322  0.5955711092527098  0.3430619769207155  1.0000
  O   O11       1.0  0.9187925457503212  0.4353224277470958  0.3298416951742028  1.0000
  O   O12       1.0  0.8582593351143261  0.6168094208023266  0.3727115220602286  1.0000
