data_image0
_chemical_formula_structural       Zn2H9C44N4Cl6O12F9
_chemical_formula_sum              "Zn2 H9 C44 N4 Cl6 O12 F9"
_cell_length_a       9.853516825160229
_cell_length_b       10.995858227718227
_cell_length_c       23.232441896773775
_cell_angle_alpha    89.26629157174123
_cell_angle_beta     91.0570157231985
_cell_angle_gamma    89.76810138438411

_space_group_name_H-M_alt    "P 1"
_space_group_IT_number       1

loop_
  _space_group_symop_operation_xyz
  'x, y, z'

loop_
  _atom_site_type_symbol
  _atom_site_label
  _atom_site_symmetry_multiplicity
  _atom_site_fract_x
  _atom_site_fract_y
  _atom_site_fract_z
  _atom_site_occupancy
  Zn  Zn1       1.0  0.6343099925769806  0.5267314059233855  0.5009764978587936  1.0000
  Zn  Zn2       1.0  0.35443837293543373  0.5233192825288742  0.49976254923792124  1.0000
  H   H1        1.0  0.19930870004844084  0.23205206317878443  0.05689289771756728  1.0000
  H   H2        1.0  0.6152080734172499  0.3065097619921105  0.34673227183912997  1.0000
  H   H3        1.0  0.3858905391644569  0.5533775379387508  0.19236810952862266  1.0000
  H   H4        1.0  0.7385456851350015  0.8943967294256014  0.5786119984146436  1.0000
  H   H5        1.0  0.7355484730568947  0.1227514482628607  0.5853967621147402  1.0000
  H   H6        1.0  0.14809831706907056  0.48431918371012017  0.637155276401735  1.0000
  H   H7        1.0  0.8408349567155257  0.4391619079022249  0.0565205502542199  1.0000
  H   H8        1.0  0.3352555248258255  0.6037040581013572  0.697722230296776  1.0000
  H   H9        1.0  0.6342959729959006  0.3258224985613581  0.6629254138899154  1.0000
  C   C1        1.0  0.5052764990188122  0.29152091951080916  0.4959509888965527  1.0000
  C   C2        1.0  0.2870345668759882  0.26244074453887833  0.0328356104878367  1.0000
  C   C3        1.0  0.2824326700927955  0.26320644837652907  0.972107567920389  1.0000
  C   C4        1.0  0.39254903408810543  0.3059742578205232  0.9400986837496387  1.0000
  C   C5        1.0  0.5123376199853739  0.3437841966097039  0.9704986604121683  1.0000
  C   C6        1.0  0.6283375464763523  0.38673150721817257  0.9405856746941051  1.0000
  C   C7        1.0  0.7446163367926033  0.4161277221018126  0.9727888639271353  1.0000
  C   C8        1.0  0.7494513012373291  0.41206495434627755  0.032995966974780785  1.0000
  C   C9        1.0  0.3869116431785713  0.3154003004037662  0.876259531679025  1.0000
  C   C10       1.0  0.62239005244826  0.4074432850938479  0.8777295430799084  1.0000
  C   C11       1.0  0.40619305820322194  0.4943937215683932  0.7697289604571009  1.0000
  C   C12       1.0  0.485105017961061  0.5044483465817818  0.6113682059033179  1.0000
  C   C13       1.0  0.4001965740755296  0.5285082593584818  0.7120849304759033  1.0000
  C   C14       1.0  0.4840459765363292  0.46784072996100434  0.673711487109905  1.0000
  C   C15       1.0  0.568324238448369  0.3721653127794371  0.6926486576727342  1.0000
  C   C16       1.0  0.5672264463347007  0.3382988560298443  0.7502470175662522  1.0000
  C   C17       1.0  0.4888430782490332  0.39918710286431053  0.7903395079209258  1.0000
  C   C18       1.0  0.5666294085377572  0.3239385752618631  0.25638455552601863  1.0000
  C   C19       1.0  0.5629934979218162  0.360310720708469  0.31330623351565373  1.0000
  C   C20       1.0  0.4920862554133478  0.4660466490547251  0.3272794154068562  1.0000
  C   C21       1.0  0.4273355368114268  0.5348315286341646  0.2835701241169345  1.0000
  C   C22       1.0  0.43392362951245644  0.4986234469538928  0.22645971191205655  1.0000
  C   C23       1.0  0.49342531182318794  0.7582088692363553  0.49134141065871245  1.0000
  C   C24       1.0  0.5033156752964275  0.39254467592713405  0.21266482703286013  1.0000
  C   C25       1.0  0.6097859289010259  0.0845777260952758  0.5067322442888552  1.0000
  C   C26       1.0  0.5026054506306323  0.15717313657614082  0.48656949842226266  1.0000
  C   C27       1.0  0.39613003223286813  0.09496406167647818  0.4583427550378757  1.0000
  C   C28       1.0  0.39267327768272514  0.9655275027829832  0.4567320273695967  1.0000
  C   C29       1.0  0.49654439673020795  0.8933672954147481  0.4831530811341052  1.0000
  C   C30       1.0  0.6073512409979144  0.9584021862653886  0.5048615089698032  1.0000
  C   C31       1.0  0.7411022663062995  0.9437580305108427  0.5373747523324537  1.0000
  C   C32       1.0  0.7414430649341811  0.08824526667416421  0.5412572628073632  1.0000
  C   C33       1.0  0.0693654277763542  0.48128916330075106  0.5463831670217585  1.0000
  C   C34       1.0  0.4866732455418017  0.5010714084816144  0.38950678736316735  1.0000
  C   C35       1.0  0.0639736988950759  0.5712243573509284  0.459561111211805  1.0000
  C   C36       1.0  0.9195069639619149  0.5761610040240727  0.4618671336295747  1.0000
  C   C37       1.0  0.9299626256564438  0.4872036300744612  0.5488025699880693  1.0000
  C   C38       1.0  0.9275380457690473  0.4397884649900662  0.6108062605482658  1.0000
  C   C39       1.0  0.0901309091440226  0.42889269117578277  0.6065625449457314  1.0000
  C   C40       1.0  0.6360689876396464  0.3871023091762212  0.12601635674131015  1.0000
  C   C41       1.0  0.3969090665955335  0.30975366517541403  0.12623024834303453  1.0000
  C   C42       1.0  0.40089796966582014  0.3022037564318723  0.06237094686719758  1.0000
  C   C43       1.0  0.5164856316405064  0.3406032180771775  0.031951156833031284  1.0000
  C   C44       1.0  0.6348017069320235  0.37747459643169623  0.06231096880196668  1.0000
  N   N1        1.0  0.5128296911297741  0.35997976457945674  0.15322574999193245  1.0000
  N   N2        1.0  0.49966292831264514  0.37197169689393667  0.8504447036647204  1.0000
  N   N3        1.0  0.1405506133526515  0.5235654386173537  0.5015136038805179  1.0000
  N   N4        1.0  0.8502648552047704  0.5340797790797821  0.5061833595258703  1.0000
  Cl  Cl1       1.0  0.3437410341985299  0.6684515702760693  0.2994863411592732  1.0000
  Cl  Cl2       1.0  0.2701115326931003  0.1765124380011116  0.4232364269766007  1.0000
  Cl  Cl3       1.0  0.2598902051151128  0.8999789943011082  0.4199784344836742  1.0000
  Cl  Cl4       1.0  0.8806882650092404  0.8834662987594941  0.4986362047368258  1.0000
  Cl  Cl5       1.0  0.1340327171899389  0.21194437683519857  0.941533634005921  1.0000
  Cl  Cl6       1.0  0.8749127055072992  0.5467520232563245  0.6616805665128707  1.0000
  O   O1        1.0  0.619462716809494  0.3422262738742461  0.48825827894465573  1.0000
  O   O2        1.0  0.2981821585415716  0.2793274598298865  0.1542284647308421  1.0000
  O   O3        1.0  0.2925106732876017  0.2806056143241591  0.8456948729783347  1.0000
  O   O4        1.0  0.7124423033545426  0.4550434352686068  0.8496985166402521  1.0000
  O   O5        1.0  0.396807975101261  0.34197335976392657  0.5123782779276238  1.0000
  O   O6        1.0  0.5976056106413736  0.49248362539026397  0.585945345015105  1.0000
  O   O7        1.0  0.3742408428440456  0.54274990666503  0.5883708347656835  1.0000
  O   O8        1.0  0.60715370762685  0.7090078811189643  0.5050614377804405  1.0000
  O   O9        1.0  0.3806178999744247  0.7037521802094204  0.48656816291155264  1.0000
  O   O10       1.0  0.5969984784562713  0.5355465864379099  0.4128981138508648  1.0000
  O   O11       1.0  0.37290354510302853  0.48878913129897933  0.41361005189376937  1.0000
  O   O12       1.0  0.7352064482005858  0.421846610257866  0.15376668169695046  1.0000
  F   F1        1.0  0.8503342202313962  0.145901812049118  0.515216432078546  1.0000
  F   F2        1.0  0.12224606625925108  0.617315463564104  0.4135314668025315  1.0000
  F   F3        1.0  0.8536165227612854  0.6246678423358817  0.4172837320689664  1.0000
  F   F4        1.0  0.86495463220524  0.3305978714865176  0.6198551794325124  1.0000
  F   F5        1.0  0.13651889158175834  0.3106093441031632  0.6092085070650055  1.0000
  F   F6        1.0  0.8583673604533145  0.45264583059418584  0.9466926651044216  1.0000
  F   F7        1.0  0.3317843421135008  0.5563720921623414  0.8083090562496832  1.0000
  F   F8        1.0  0.6460092398126208  0.2441791343618362  0.7692054669680882  1.0000
  F   F9        1.0  0.6337822841126837  0.22064551518515435  0.2427558000168658  1.0000
