data_image0
_chemical_formula_structural       La2H48C52Cl6O22
_chemical_formula_sum              "La2 H48 C52 Cl6 O22"
_cell_length_a       8.788827118124019
_cell_length_b       10.050887809481472
_cell_length_c       17.9103
_cell_angle_alpha    76.78498062962923
_cell_angle_beta     76.42543498239472
_cell_angle_gamma    70.51611433182082

_space_group_name_H-M_alt    "P 1"
_space_group_IT_number       1

loop_
  _space_group_symop_operation_xyz
  'x, y, z'

loop_
  _atom_site_type_symbol
  _atom_site_label
  _atom_site_symmetry_multiplicity
  _atom_site_fract_x
  _atom_site_fract_y
  _atom_site_fract_z
  _atom_site_occupancy
  La  La1       1.0  0.7473283805221557  0.4957600374907045  0.5060547833312087  1.0000
  La  La2       1.0  0.2526668779749244  0.5042461993889447  0.49394691683452413  1.0000
  H   H1        1.0  0.9863643729379206  0.11902451884803608  0.5182629588224686  1.0000
  H   H2        1.0  0.013635763390915628  0.8809742289830425  0.4817329985806822  1.0000
  H   H3        1.0  0.13991348837480896  0.0792501818724034  0.43448682889037116  1.0000
  H   H4        1.0  0.8600889889660266  0.9207485659586752  0.5655099755610138  1.0000
  H   H5        1.0  0.9676870813279661  0.1484639687917806  0.6299498232876104  1.0000
  H   H6        1.0  0.03231394640157244  0.8515390584956251  0.37004827413049673  1.0000
  H   H7        1.0  0.9571883301209921  0.1355763860602934  0.7691216334174058  1.0000
  H   H8        1.0  0.042814230517365014  0.8644255713630287  0.2308764246986499  1.0000
  H   H9        1.0  0.4251347003439463  0.8120043710743516  0.7591090819005545  1.0000
  H   H10       1.0  0.5748606706633907  0.1879911671644834  0.2408895111208622  1.0000
  H   H11       1.0  0.44027567763186687  0.8272071396792383  0.6161748715564103  1.0000
  H   H12       1.0  0.5597201390758215  0.1727905382877566  0.38382283728969213  1.0000
  H   H13       1.0  0.4086058283826901  0.1673920041301074  0.6501080175593827  1.0000
  H   H14       1.0  0.5913997980733043  0.8326078135650548  0.34988772860081246  1.0000
  H   H15       1.0  0.5090354784155265  0.088789090027305  0.5660405283888822  1.0000
  H   H16       1.0  0.4909721266496304  0.9112117975319407  0.4339565276457051  1.0000
  H   H17       1.0  0.49736623680154673  0.23643354293228913  0.7364748538761604  1.0000
  H   H18       1.0  0.5026301089040074  0.7635694843551162  0.2635204327696102  1.0000
  H   H19       1.0  0.5320767787806204  0.22494641228410467  0.8707010772865048  1.0000
  H   H20       1.0  0.46790632895616097  0.7750576848673771  0.12929503846163473  1.0000
  H   H21       1.0  0.8491728097093302  0.7922076061014633  0.8724582692909024  1.0000
  H   H22       1.0  0.15082253208527163  0.20780184037043625  0.1275413345118679  1.0000
  H   H23       1.0  0.8116364230504445  0.8030389100673927  0.7374272647791501  1.0000
  H   H24       1.0  0.1883666665857717  0.19696839667634686  0.2625706044883316  1.0000
  H   H25       1.0  0.6358956558436333  0.639973436284798  0.7594664301351415  1.0000
  H   H26       1.0  0.36410250187604015  0.360024241682197  0.2405365924627034  1.0000
  H   H27       1.0  0.523146277785571  0.513012665676662  0.7914988312200251  1.0000
  H   H28       1.0  0.4768576491665612  0.4869818026980894  0.20850617200959937  1.0000
  H   H29       1.0  0.565467987479323  0.6488629369419385  0.8815272010455502  1.0000
  H   H30       1.0  0.43454070479430834  0.35113474102505643  0.11847684157962851  1.0000
  H   H31       1.0  0.581572693494607  0.6645171881894143  0.013892936628984366  1.0000
  H   H32       1.0  0.41843825649348787  0.33547728018533707  0.9861106993797506  1.0000
  H   H33       1.0  0.978691782936259  0.2702679945247937  0.02324813661983434  1.0000
  H   H34       1.0  0.021312702226481472  0.7297179149373034  0.9767551086419247  1.0000
  H   H35       1.0  0.9656761816208146  0.2551904000174971  0.888598392300139  1.0000
  H   H36       1.0  0.034322617606989105  0.7448019286290872  0.11140524267040061  1.0000
  H   H37       1.0  0.8394072007709851  0.33343170006059347  0.280773118707522  1.0000
  H   H38       1.0  0.16059293555785806  0.6665670477704848  0.7192289804129645  1.0000
  H   H39       1.0  0.9847476432662318  0.32482785311334067  0.33810360659296634  1.0000
  H   H40       1.0  0.015252938762955566  0.6751730344459048  0.6618987250280883  1.0000
  H   H41       1.0  0.9285779128708854  0.5601423182158809  0.24650759907449782  1.0000
  H   H42       1.0  0.071422223457958  0.43985642961519733  0.7534956167218709  1.0000
  H   H43       1.0  0.7158504346624994  0.5958886169228775  0.2876485504007605  1.0000
  H   H44       1.0  0.2841478063546958  0.40411227063636795  0.7123529341720669  1.0000
  H   H45       1.0  0.9810672594074173  0.5888703085451112  0.35408732793348463  1.0000
  H   H46       1.0  0.018927832494618678  0.4111295091500509  0.6459163316064078  1.0000
  H   H47       1.0  0.6400243662835619  0.3829075645315924  0.38338908242162983  1.0000
  H   H48       1.0  0.3599823473809067  0.617089043571319  0.6166153253429771  1.0000
  C   C1        1.0  0.1576297541835885  0.2417914222548276  0.48749623157520017  1.0000
  C   C2        1.0  0.8423600141863403  0.7582137447607451  0.5125023298058481  1.0000
  C   C3        1.0  0.11649559913190896  0.10399720795259529  0.4935967295923406  1.0000
  C   C4        1.0  0.8835038123912824  0.8960036796066433  0.5064007118010849  1.0000
  C   C5        1.0  0.204833212697025  0.9862253176397145  0.6139969572832484  1.0000
  C   C6        1.0  0.7951662821236879  0.0137787795117745  0.3860017377748548  1.0000
  C   C7        1.0  0.07004818186591417  0.0746893512909352  0.6565780117936769  1.0000
  C   C8        1.0  0.9299544620699576  0.9253158157246375  0.3434196249732366  1.0000
  C   C9        1.0  0.06272158580829058  0.06699167922111829  0.7361289084509579  1.0000
  C   C10       1.0  0.9372755680004371  0.9330124179303708  0.2638678228830358  1.0000
  C   C11       1.0  0.18964555689229448  0.9709979421609417  0.7725675795779382  1.0000
  C   C12       1.0  0.8103553875397154  0.0290018755342132  0.22743038085137363  1.0000
  C   C13       1.0  0.32504566647418187  0.8834060300413711  0.7300340579438399  1.0000
  C   C14       1.0  0.6749505959338505  0.1165937876537839  0.2699638834028377  1.0000
  C   C15       1.0  0.3332678575317233  0.8911999898785722  0.650739510931473  1.0000
  C   C16       1.0  0.6667350655094566  0.1088008976806734  0.3492575260204802  1.0000
  C   C17       1.0  0.6006672440788492  0.2513602866040259  0.5776924990570365  1.0000
  C   C18       1.0  0.399340360986308  0.7486406009552198  0.42230734866725333  1.0000
  C   C19       1.0  0.5292963486188141  0.12863617776051228  0.6139430668419337  1.0000
  C   C20       1.0  0.47070846973400654  0.8713625700705661  0.38605402631974073  1.0000
  C   C21       1.0  0.6505687594295749  0.0185204171230922  0.7285702832513081  1.0000
  C   C22       1.0  0.34942992728797145  0.9814826101643134  0.2714275254565095  1.0000
  C   C23       1.0  0.5733439392121935  0.1381483393133678  0.7657066457949142  1.0000
  C   C24       1.0  0.4266512359873572  0.861854687974045  0.2342904506785004  1.0000
  C   C25       1.0  0.5935890461963992  0.132301532105366  0.8415619882266797  1.0000
  C   C26       1.0  0.4063999973678776  0.8677057746383738  0.15843582379288537  1.0000
  C   C27       1.0  0.6917601602259894  0.008001513469103798  0.8799143882253233  1.0000
  C   C28       1.0  0.30822888333828746  0.9920057932746359  0.12008286545630399  1.0000
  C   C29       1.0  0.7713119237582975  0.8888302409369969  0.8427493644094355  1.0000
  C   C30       1.0  0.22868135612961274  0.11117492607857568  0.15724823419220263  1.0000
  C   C31       1.0  0.7499755017211311  0.8945261973094389  0.7675153296934383  1.0000
  C   C32       1.0  0.250021568790075  0.1054746902498067  0.23248293966557304  1.0000
  C   C33       1.0  0.676763488539656  0.5034512903760344  0.6782669350587656  1.0000
  C   C34       1.0  0.32323204906272446  0.49655066704728756  0.3217358403058199  1.0000
  C   C35       1.0  0.6430750759176149  0.5270664002575032  0.7619575044860483  1.0000
  C   C36       1.0  0.3569257852168732  0.4729302078454154  0.2380459023338588  1.0000
  C   C37       1.0  0.7666074477807499  0.4507808117562604  0.8758385970865632  1.0000
  C   C38       1.0  0.2333989034808965  0.5492168662107417  0.1241640401524506  1.0000
  C   C39       1.0  0.6577827663912571  0.5656842141605196  0.91106994821142  1.0000
  C   C40       1.0  0.34222782119401535  0.43431132407831535  0.08893303394760468  1.0000
  C   C41       1.0  0.6658982657789636  0.5747192163328094  0.9867230319677702  1.0000
  C   C42       1.0  0.3341130466119608  0.4252741821778585  0.013279582876862197  1.0000
  C   C43       1.0  0.7806586075032628  0.46850631986644226  0.026537191666598348  1.0000
  C   C44       1.0  0.21935117197884318  0.5314881485083092  0.9734665791559678  1.0000
  C   C45       1.0  0.8894849354839706  0.3532905171502421  0.9917427066848462  1.0000
  C   C46       1.0  0.11052205728579874  0.6467018114963423  0.008258867913035301  1.0000
  C   C47       1.0  0.8823554249688784  0.3447829579703665  0.9163723746964152  1.0000
  C   C48       1.0  0.11764741477477968  0.6552147199966283  0.08362955030818851  1.0000
  C   C49       1.0  0.8607309539176667  0.3815648851087161  0.32534676462561424  1.0000
  C   C50       1.0  0.13926882000834684  0.618434932586446  0.6746569139969196  1.0000
  C   C51       1.0  0.8407330904418729  0.5401508379800717  0.29957780599927736  1.0000
  C   C52       1.0  0.1592643424721558  0.4598489797150904  0.7004244672370846  1.0000
  Cl  Cl1       1.0  0.18036569603823674  0.9586517106549408  0.8717764508251805  1.0000
  Cl  Cl2       1.0  0.8196377852135512  0.0413406179916507  0.1282216198486026  1.0000
  Cl  Cl3       1.0  0.7149850785292244  0.0003241688168387  0.9744427382415141  1.0000
  Cl  Cl4       1.0  0.2849946009870904  0.999683137926894  0.02555894397834631  1.0000
  Cl  Cl5       1.0  0.7879678370902071  0.47739903011582635  0.12159531842260664  1.0000
  Cl  Cl6       1.0  0.21204024288803675  0.5225900889385144  0.8784082177244131  1.0000
  O   O1        1.0  0.5078847728692891  0.36503227544993416  0.5423296693516946  1.0000
  O   O2        1.0  0.4921120185366091  0.6349728915656384  0.45767143317404196  1.0000
  O   O3        1.0  0.039560929380485305  0.3597514263412975  0.48493067088151776  1.0000
  O   O4        1.0  0.9604338834162505  0.6402526708101917  0.515066888418062  1.0000
  O   O5        1.0  0.8223708713603486  0.4514772932736264  0.6444281338207534  1.0000
  O   O6        1.0  0.17762736965685377  0.5485235942856193  0.35557614244176966  1.0000
  O   O7        1.0  0.7449867132189638  0.24289552198742828  0.5809343634604929  1.0000
  O   O8        1.0  0.2550091034887173  0.7571021559795738  0.4190633453856095  1.0000
  O   O9        1.0  0.5558376409937508  0.5436482236640501  0.6423406431811713  1.0000
  O   O10       1.0  0.44416257863261416  0.456353733759272  0.3576604762522351  1.0000
  O   O11       1.0  0.7496869939685312  0.3605773614125808  0.3970668268365928  1.0000
  O   O12       1.0  0.2503165705807717  0.6394181768262541  0.6029375225433216  1.0000
  O   O13       1.0  0.2219070129114299  0.9851586631499814  0.5357274967633785  1.0000
  O   O14       1.0  0.7780919529114172  0.014840084681097198  0.46427082880535414  1.0000
  O   O15       1.0  0.7714427863957596  0.4328295623247769  0.8012603930207832  1.0000
  O   O16       1.0  0.22855932854225353  0.5671702553703852  0.19874357431203293  1.0000
  O   O17       1.0  0.8616296685359258  0.5986296087009038  0.36147389765051235  1.0000
  O   O18       1.0  0.1383665938721066  0.4013702089942583  0.6385313020893761  1.0000
  O   O19       1.0  0.3029965438248325  0.2405771265217851  0.4838096914266643  1.0000
  O   O20       1.0  0.6970006932814101  0.7594301802219547  0.5161888519099451  1.0000
  O   O21       1.0  0.636729098103025  0.0106130516932055  0.6552380436192494  1.0000
  O   O22       1.0  0.36328056886881643  0.9893921153223671  0.3447559925750171  1.0000
