data_image0
_chemical_formula_structural       Zn4H64C48N16Cl8
_chemical_formula_sum              "Zn4 H64 C48 N16 Cl8"
_cell_length_a       9.309430306
_cell_length_b       12.471456163838637
_cell_length_c       14.1959
_cell_angle_alpha    112.610897139868
_cell_angle_beta     90.0
_cell_angle_gamma    90.0

_space_group_name_H-M_alt    "P 1"
_space_group_IT_number       1

loop_
  _space_group_symop_operation_xyz
  'x, y, z'

loop_
  _atom_site_type_symbol
  _atom_site_label
  _atom_site_symmetry_multiplicity
  _atom_site_fract_x
  _atom_site_fract_y
  _atom_site_fract_z
  _atom_site_occupancy
  Zn  Zn1       1.0  0.3768168281725153  0.7826905616715082  0.5389142193482213  1.0000
  Zn  Zn2       1.0  0.8768152004681866  0.7173080470152585  0.9610851698258001  1.0000
  Zn  Zn3       1.0  0.6231842131371792  0.21730908984874023  0.4610858038324323  1.0000
  Zn  Zn4       1.0  0.1231836924823284  0.2826916045049899  0.038914853354853576  1.0000
  H   H1        1.0  0.5968711099774566  0.9332682110029965  0.4944983371365551  1.0000
  H   H2        1.0  0.0968695151430268  0.5667303976837773  0.005501052037466456  1.0000
  H   H3        1.0  0.403131005511824  0.0667305719236495  0.5055020970902574  1.0000
  H   H4        1.0  0.9031261552687299  0.4332718596172711  0.9944998512909464  1.0000
  H   H5        1.0  0.8192778450776217  0.9074023621846976  0.3932272328818697  1.0000
  H   H6        1.0  0.3192783986023642  0.5925962465020761  0.10677145186340907  1.0000
  H   H7        1.0  0.1807221220524795  0.09259642074194832  0.6067717924874498  1.0000
  H   H8        1.0  0.6807194201685647  0.407405142205377  0.8932284536536769  1.0000
  H   H9        1.0  0.7922933796761171  0.5392229069612356  0.3305458891132885  1.0000
  H   H10       1.0  0.2922917848416802  0.9607765703191407  0.16945379344332415  1.0000
  H   H11       1.0  0.2077076616335773  0.46077587596541764  0.669454545113524  1.0000
  H   H12       1.0  0.7077103306475934  0.0392239497947102  0.8305444098336849  1.0000
  H   H13       1.0  0.5690079656738973  0.5801545117737987  0.4332208475939081  1.0000
  H   H14       1.0  0.0690063708394675  0.9198440969129751  0.06677854158011341  1.0000
  H   H15       1.0  0.43099307563579  0.4198442711528472  0.5667795866329044  1.0000
  H   H16       1.0  0.9309935962906408  0.0801572917944782  0.9332199550794796  1.0000
  H   H17       1.0  0.9230296288336604  0.7023621569378095  0.20929315750652924  1.0000
  H   H18       1.0  0.4230301823584028  0.7976364517489644  0.29070341395251376  1.0000
  H   H19       1.0  0.0769703382964479  0.2976366259888366  0.7907044590053048  1.0000
  H   H20       1.0  0.5769697847717055  0.2023623311776888  0.7092934981305774  1.0000
  H   H21       1.0  0.0338140992147657  0.7713528094090023  0.32031141682238473  1.0000
  H   H22       1.0  0.5338146198696094  0.7286466678713668  0.17968474359050654  1.0000
  H   H23       1.0  0.9661858679153426  0.2286459735176436  0.6796861996894492  1.0000
  H   H24       1.0  0.466186421440085  0.2713529836488817  0.82031105301769  1.0000
  H   H25       1.0  0.10883694992023152  0.6082317998980287  0.4100513497638543  1.0000
  H   H26       1.0  0.6088374705750752  0.891769414569545  0.08994891955793359  1.0000
  H   H27       1.0  0.8911630172098769  0.391768720215822  0.5899489667993905  1.0000
  H   H28       1.0  0.3911635707346122  0.1082319741379081  0.9100509859591523  1.0000
  H   H29       1.0  0.2514514769492706  0.3943449688338064  0.3789283823639805  1.0000
  H   H30       1.0  0.7514519976041143  0.1056557255199166  0.12107297925204816  1.0000
  H   H31       1.0  0.7485484901808377  0.6056555512800372  0.621072638628007  1.0000
  H   H32       1.0  0.2485490437055731  0.8943439260003316  0.8789284527860912  1.0000
  H   H33       1.0  0.2779300037653698  0.3017615769958581  0.24898880709756804  1.0000
  H   H34       1.0  0.7779305244202135  0.19823998595146722  0.25101284790105177  1.0000
  H   H35       1.0  0.7220699633647385  0.6982389431179854  0.7510129183231625  1.0000
  H   H36       1.0  0.222070516889481  0.8017614027559858  0.7489891709022699  1.0000
  H   H37       1.0  0.0005961696707075  0.3126242085590931  0.3701354312942796  1.0000
  H   H38       1.0  0.5005966903255512  0.1873747486074251  0.129865343556574  1.0000
  H   H39       1.0  0.9994037974594009  0.6873745743675528  0.6298650029325257  1.0000
  H   H40       1.0  0.49940435098413627  0.8126249029128233  0.8701353840528229  1.0000
  H   H41       1.0  0.0271917820617702  0.22648230685972245  0.23930661183506166  1.0000
  H   H42       1.0  0.5271912285370277  0.2735183874940077  0.26069545420970996  1.0000
  H   H43       1.0  0.9728081850683311  0.7735182132541283  0.7606944091569259  1.0000
  H   H44       1.0  0.4728098127726597  0.7264821326198432  0.7393062712110136  1.0000
  H   H45       1.0  0.1976468956230448  0.2066314687223283  0.4161673235902157  1.0000
  H   H46       1.0  0.6976463420983023  0.2933683570377923  0.08383444907197199  1.0000
  H   H47       1.0  0.8023541456866425  0.79336818279792  0.5838341084479309  1.0000
  H   H48       1.0  0.302354699211385  0.706631294482456  0.9161662785374245  1.0000
  H   H49       1.0  0.2363356218029793  0.1281948608497103  0.2865308347217591  1.0000
  H   H50       1.0  0.7363350682782368  0.3718049649104104  0.21347093794042846  1.0000
  H   H51       1.0  0.763664345327129  0.871804790670538  0.7134698928876373  1.0000
  H   H52       1.0  0.2636659730314577  0.6281955552034333  0.7865300830515592  1.0000
  H   H53       1.0  0.9539939296044794  0.11343658698989151  0.3953393904012329  1.0000
  H   H54       1.0  0.4539944831292217  0.3865623701766339  0.10466138444962067  1.0000
  H   H55       1.0  0.0460060375256219  0.8865621959367616  0.6046610438255795  1.0000
  H   H56       1.0  0.5460065581804656  0.613436412750012  0.8953383453484418  1.0000
  H   H57       1.0  0.0917166756648555  0.0072405962506892  0.3567782262378286  1.0000
  H   H58       1.0  0.5917161221401201  0.4927583609158361  0.1432225486130249  1.0000
  H   H59       1.0  0.9082832914652457  0.9927581866759567  0.6432222079889839  1.0000
  H   H60       1.0  0.4082838449899882  0.5072412906044121  0.8567774745676288  1.0000
  H   H61       1.0  0.9886115151502183  0.035590622765362  0.2631593561651684  1.0000
  H   H62       1.0  0.48861099449536743  0.4644083344011634  0.23684141868568523  1.0000
  H   H63       1.0  0.0113895261594763  0.9644081601612841  0.7368410780616442  1.0000
  H   H64       1.0  0.51139004681432  0.5355904485254825  0.7631590155411203  1.0000
  C   C1        1.0  0.6417127368309252  0.8469690938619934  0.45495828174247777  1.0000
  C   C2        1.0  0.1417122161760744  0.6530303834183755  0.045041400814135074  1.0000
  C   C3        1.0  0.3582872302991831  0.1530296890646525  0.545042152484335  1.0000
  C   C4        1.0  0.8582823800560959  0.3469718738826728  0.9549580936567919  1.0000
  C   C5        1.0  0.7668600295980355  0.8315055219988636  0.39807097862753676  1.0000
  C   C6        1.0  0.2668595089431918  0.66849308668791  0.101927001688999  1.0000
  C   C7        1.0  0.2331399375320728  0.1684941295213847  0.6019283401243738  1.0000
  C   C8        1.0  0.7331383098277442  0.33150656483233837  0.8980723170629117  1.0000
  C   C9        1.0  0.823406991409513  0.7196610670780146  0.34998707277912183  1.0000
  C   C10       1.0  0.3234075449342555  0.7803384102023543  0.1500104964912551  1.0000
  C   C11       1.0  0.1765929757205953  0.2803368472550289  0.650010954778864  1.0000
  C   C12       1.0  0.6765924221958529  0.219663847098694  0.849987589122186  1.0000
  C   C13       1.0  0.7523081187348453  0.6279410572785977  0.36373193040510887  1.0000
  C   C14       1.0  0.2523065239004083  0.8720584200017711  0.1362663432940181  1.0000
  C   C15       1.0  0.2476929225748492  0.3720585942416506  0.636267388346809  1.0000
  C   C16       1.0  0.7476945174092791  0.1279412315184771  0.8637329754578926  1.0000
  C   C17       1.0  0.6271060428088049  0.6498495936547002  0.42125625108728565  1.0000
  C   C18       1.0  0.1271065963335403  0.850149883625676  0.07874343146932011  1.0000
  C   C19       1.0  0.37289499850088964  0.3501491892719457  0.5787434787107769  1.0000
  C   C20       1.0  0.8728933707965609  0.1498523736753725  0.921256063001607  1.0000
  C   C21       1.0  0.9550004358773735  0.7020520690225638  0.28391774317803703  1.0000
  C   C22       1.0  0.4549999152225226  0.7979482768514077  0.21608011947493108  1.0000
  C   C23       1.0  0.0450006054323211  0.2979467139040821  0.7160812821912828  1.0000
  C   C24       1.0  0.5449989777279924  0.2020522432624361  0.7839166749445923  1.0000
  C   C25       1.0  0.0917886456971786  0.5537405803938215  0.33038041644540067  1.0000
  C   C26       1.0  0.5917891663520223  0.9462588968865548  0.16961785725371928  1.0000
  C   C27       1.0  0.9082113214329297  0.446259071126427  0.6696189023065102  1.0000
  C   C28       1.0  0.4082118749576651  0.0537407546336937  0.8303807570694488  1.0000
  C   C29       1.0  0.1314677654561933  0.440167624208712  0.2734602965172924  1.0000
  C   C30       1.0  0.6314682861110442  0.05983307014501091  0.22654106509873626  1.0000
  C   C31       1.0  0.8685311274943217  0.5598320273115363  0.7265404310921042  1.0000
  C   C32       1.0  0.3685316810190642  0.9401674499688326  0.7734599558932513  1.0000
  C   C33       1.0  0.1966865790723915  0.3506521049664215  0.30541536541739583  1.0000
  C   C34       1.0  0.6966870997272423  0.14934858938730142  0.19458599619864  1.0000
  C   C35       1.0  0.8033133880577097  0.649348415147422  0.6945856555745917  1.0000
  C   C36       1.0  0.3033139415824522  0.8506510621329471  0.8054154358395065  1.0000
  C   C37       1.0  0.0825925942540664  0.2651807575263518  0.3133438807283894  1.0000
  C   C38       1.0  0.5825931149089172  0.23481906823377593  0.1866578919337911  1.0000
  C   C39       1.0  0.9174084470556211  0.7348188939938965  0.6866582557384928  1.0000
  C   C40       1.0  0.4174090005803635  0.7651814518800748  0.8133438334869323  1.0000
  C   C41       1.0  0.1479736089878827  0.1684811006173845  0.34023781874509496  1.0000
  C   C42       1.0  0.6479741296427264  0.3315187251427432  0.15976324948834986  1.0000
  C   C43       1.0  0.8520252839626323  0.8315185509028638  0.6597629088643016  1.0000
  C   C44       1.0  0.352026911666961  0.6684817949711075  0.840237067074895  1.0000
  C   C45       1.0  0.0394460227886668  0.0760497126594544  0.3386591677757237  1.0000
  C   C46       1.0  0.5394443950843382  0.42394924450706384  0.16134160707512982  1.0000
  C   C47       1.0  0.9605550185210205  0.923949938860794  0.66134085540493  1.0000
  C   C48       1.0  0.46055557204576303  0.5760495384195821  0.8386595315804184  1.0000
  N   N1        1.0  0.571731010926591  0.7574718150853104  0.4655126265903746  1.0000
  N   N2        1.0  0.071729416092154  0.7425267936014636  0.03448605815490415  1.0000
  N   N3        1.0  0.4282711045626897  0.2425278364349381  0.534487396590279  1.0000
  N   N4        1.0  0.9282705510379473  0.2574737265123872  0.9655135539795977  1.0000
  N   N5        1.0  0.024824290252333  0.5909980342778313  0.26337700086187965  1.0000
  N   N6        1.0  0.5248226625480044  0.9090023115961401  0.23662156621983133  1.0000
  N   N7        1.0  0.9751756768777753  0.4090016172424172  0.7366223178900312  1.0000
  N   N8        1.0  0.47517623040251067  0.0909973399241082  0.7633770481033364  1.0000
  N   N9        1.0  0.0211172964980761  0.5084104175901915  0.1694421073851089  1.0000
  N   N10       1.0  0.5211167429733408  0.9915881910965824  0.33055728178891997  1.0000
  N   N11       1.0  0.978882670632025  0.4915883653364547  0.8305576224129609  1.0000
  N   N12       1.0  0.4788832241567675  0.0084105918300637  0.669441743580407  1.0000
  N   N13       1.0  0.0868066007733219  0.4172714969092581  0.17558028077037588  1.0000
  N   N14       1.0  0.5868060472485794  0.0827283288508625  0.3244207874630689  1.0000
  N   N15       1.0  0.9131933663567864  0.5827272860173878  0.8244201534564366  1.0000
  N   N16       1.0  0.4131939198815219  0.9172713226693858  0.6755799401463347  1.0000
  Cl  Cl1       1.0  0.2371820753174205  0.8521980273347793  0.44490694831915073  1.0000
  Cl  Cl2       1.0  0.7371815217926851  0.6478014499455895  0.05509273423745497  1.0000
  Cl  Cl3       1.0  0.7628189659922668  0.1478007555918666  0.555092781478912  1.0000
  Cl  Cl4       1.0  0.2628195195170093  0.35219820157465886  0.9449072889431989  1.0000
  Cl  Cl5       1.0  0.3048575376487719  0.6179105383842867  0.5510426711533113  1.0000
  Cl  Cl6       1.0  0.8048569841240294  0.8820889388960822  0.9489577158320442  1.0000
  Cl  Cl7       1.0  0.6951413553017503  0.3820882445423592  0.4489584675022441  1.0000
  Cl  Cl8       1.0  0.19514298300607183  0.1179115812177614  0.05104260073120059  1.0000
