data_image0
_chemical_formula_structural       Ni2H22C24N6O6
_chemical_formula_sum              "Ni2 H22 C24 N6 O6"
_cell_length_a       8.996568574843282
_cell_length_b       8.381419518852931
_cell_length_c       8.634592226699064
_cell_angle_alpha    72.40206674184701
_cell_angle_beta     77.16896434981419
_cell_angle_gamma    75.67446009567912

_space_group_name_H-M_alt    "P 1"
_space_group_IT_number       1

loop_
  _space_group_symop_operation_xyz
  'x, y, z'

loop_
  _atom_site_type_symbol
  _atom_site_label
  _atom_site_symmetry_multiplicity
  _atom_site_fract_x
  _atom_site_fract_y
  _atom_site_fract_z
  _atom_site_occupancy
  Ni  Ni1       1.0  0.010607365685459084  0.16753738863634743  0.8963513935313685  1.0000
  Ni  Ni2       1.0  0.9893914592483669  0.8324626056108216  0.10364767271585835  1.0000
  H   H1        1.0  0.9338109053789764  0.6930903568229996  0.7271595318146353  1.0000
  H   H2        1.0  0.0661910740903906  0.30691089623086043  0.2728360470041764  1.0000
  H   H3        1.0  0.5981669184965384  0.969944577073207  0.6349406318027134  1.0000
  H   H4        1.0  0.40183134455448766  0.030059240267888792  0.3650620767760913  1.0000
  H   H5        1.0  0.8356828589950496  0.10676399136517029  0.7040283115705747  1.0000
  H   H6        1.0  0.16431786262607773  0.8932321640254341  0.29597604668699523  1.0000
  H   H7        1.0  0.6567337406129495  0.2756199054090018  0.5046200925607991  1.0000
  H   H8        1.0  0.3432714475549687  0.7243762287217308  0.49537850924752996  1.0000
  H   H9        1.0  0.6144774061358333  0.5994296338399038  0.43256687921173415  1.0000
  H   H10       1.0  0.3855281727811928  0.4005639507876424  0.5674300627795644  1.0000
  H   H11       1.0  0.7663109805053949  0.7321115497145809  0.5501589319779399  1.0000
  H   H12       1.0  0.23368932757337288  0.2678858908752844  0.4498358827339075  1.0000
  H   H13       1.0  0.14269935704724904  0.7443455903270502  0.7895324097772444  1.0000
  H   H14       1.0  0.8573038374699066  0.2556543873036574  0.21045628959664242  1.0000
  H   H15       1.0  0.3987145160163336  0.6304062512232207  0.879160941266278  1.0000
  H   H16       1.0  0.6012866391543524  0.3695937277506047  0.12083985718043518  1.0000
  H   H17       1.0  0.4919085161459974  0.3041544819327271  0.9635905404031675  1.0000
  H   H18       1.0  0.5080861588199141  0.6958442530184499  0.03641921541490222  1.0000
  H   H19       1.0  0.31878826992930703  0.12353319668236648  0.9596055997866627  1.0000
  H   H20       1.0  0.6812088821662954  0.876464250565583  0.04040275311032801  1.0000
  H   H21       1.0  0.21416710373222958  0.946148839896239  0.971674901966125  1.0000
  H   H22       1.0  0.7858301168523241  0.05385371381248661  0.02832265278634342  1.0000
  C   C1        1.0  0.4943632212180376  0.985819437680064  0.5816003321940926  1.0000
  C   C2        1.0  0.5056357677205768  0.0141869238492518  0.4184025970894396  1.0000
  C   C3        1.0  0.813337137494635  0.2453453454177961  0.6682480544638025  1.0000
  C   C4        1.0  0.18666450538863438  0.7546520794094321  0.3317556945899795  1.0000
  C   C5        1.0  0.7127900482054057  0.3411402114896305  0.5596721020132449  1.0000
  C   C6        1.0  0.2872119854269641  0.658854663834411  0.4403299872234925  1.0000
  C   C7        1.0  0.6908630377696028  0.5194740483886449  0.5200031670797427  1.0000
  C   C8        1.0  0.30913902010363603  0.4805208257745477  0.4800000747630264  1.0000
  C   C9        1.0  0.7729449322942443  0.5940115330377225  0.5873834822169356  1.0000
  C   C10       1.0  0.22705554547058426  0.40598589942617747  0.41261940073709974  1.0000
  C   C11       1.0  0.8731541924184042  0.488521968277098  0.6977393987933596  1.0000
  C   C12       1.0  0.126850336903253  0.5114779935909725  0.3022582349224478  1.0000
  C   C13       1.0  0.09470031523423467  0.49364429757233114  0.8236741651162588  1.0000
  C   C14       1.0  0.9053014446197166  0.5063582313939747  0.17632109100505017  1.0000
  C   C15       1.0  0.18409338008941492  0.6066835240104496  0.8302932786721585  1.0000
  C   C16       1.0  0.8159074100206567  0.39331773784093127  0.1697002814408888  1.0000
  C   C17       1.0  0.3284991028195279  0.5418109826669593  0.8789806802894374  1.0000
  C   C18       1.0  0.6714972207437455  0.4581903004442935  0.12101863627284347  1.0000
  C   C19       1.0  0.3798877642975497  0.3649029685454082  0.9240828540429504  1.0000
  C   C20       1.0  0.6201111091180068  0.6350970233800555  0.07591851741632624  1.0000
  C   C21       1.0  0.28286221974322967  0.2610922102140165  0.9225400238506934  1.0000
  C   C22       1.0  0.7171354643130315  0.738907790508968  0.07745932890281164  1.0000
  C   C23       1.0  0.3458159105427113  0.9690390980599091  0.6991531608941557  1.0000
  C   C24       1.0  0.6541814554870343  0.030963448683706905  0.3008513094944689  1.0000
  N   N1        1.0  0.8898409180998286  0.31665605596040797  0.7413231433383842  1.0000
  N   N2        1.0  0.11016113409213801  0.6833451936108971  0.2586758932985091  1.0000
  N   N3        1.0  0.957215339570702  0.5634944103492147  0.7615376667762986  1.0000
  N   N4        1.0  0.04278685951409498  0.4365055667921994  0.23845823474002256  1.0000
  N   N5        1.0  0.14062072325693012  0.321898205133067  0.8740012372226146  1.0000
  N   N6        1.0  0.8593801395757413  0.6781030532357588  0.12599578070850717  1.0000
  O   O1        1.0  0.21818377025651609  0.0121823914292847  0.6455459497832265  1.0000
  O   O2        1.0  0.7818137669069217  0.987818881723591  0.3544565380908508  1.0000
  O   O3        1.0  0.11763813025506661  0.9933185680826712  0.04888862475083748  1.0000
  O   O4        1.0  0.8823589676775329  0.0066852568950964  0.9511132177282277  1.0000
  O   O5        1.0  0.36325099212130846  0.9075136339432602  0.8519091197072369  1.0000
  O   O6        1.0  0.6367481978731391  0.09248507742634621  0.14809718487364887  1.0000
