data_image0
_chemical_formula_structural       Al4H28C64N16O36
_chemical_formula_sum              "Al4 H28 C64 N16 O36"
_cell_length_a       6.948944080026393
_cell_length_b       23.99138164525205
_cell_length_c       27.34082966023344
_cell_angle_alpha    94.37560343246356
_cell_angle_beta     89.99968610068532
_cell_angle_gamma    89.99999911306371

_space_group_name_H-M_alt    "P 1"
_space_group_IT_number       1

loop_
  _space_group_symop_operation_xyz
  'x, y, z'

loop_
  _atom_site_type_symbol
  _atom_site_label
  _atom_site_symmetry_multiplicity
  _atom_site_fract_x
  _atom_site_fract_y
  _atom_site_fract_z
  _atom_site_occupancy
  Al  Al1       1.0  0.7849356479061668  0.2500746040077999  0.7507170015369055  1.0000
  Al  Al2       1.0  0.2150630853048838  0.7499280125374453  0.2492809290039375  1.0000
  Al  Al3       1.0  0.28493163971232593  0.2499276652958571  0.7492805574257632  1.0000
  Al  Al4       1.0  0.7150656544508608  0.7500739525322333  0.2507155410513279  1.0000
  H   H1        1.0  0.26530367272116  0.6464423372799714  0.12839203575978791  1.0000
  H   H2        1.0  0.734699377708239  0.35355514634063206  0.8716044397379364  1.0000
  H   H3        1.0  0.7652950077903284  0.853558754744533  0.37160399893181056  1.0000
  H   H4        1.0  0.23470948175420148  0.14645083401994438  0.6283880441010012  1.0000
  H   H5        1.0  0.2790835255256709  0.5755076138274048  0.055768679294232  1.0000
  H   H6        1.0  0.7209008169661217  0.4244811976176948  0.9442333209809564  1.0000
  H   H7        1.0  0.7790963238083178  0.9244866234307239  0.44422992111449133  1.0000
  H   H8        1.0  0.2209168000901656  0.07551631068047726  0.5557669079325932  1.0000
  H   H9        1.0  0.2792486674606707  0.6478162991261341  0.3561691451972849  1.0000
  H   H10       1.0  0.7207471876231748  0.3521875014912581  0.6438280486423124  1.0000
  H   H11       1.0  0.7792578502371299  0.8521847910817041  0.1438268698881799  1.0000
  H   H12       1.0  0.2207495174028082  0.14781137625448076  0.8561688750253894  1.0000
  H   H13       1.0  0.2921117710775007  0.5818731073999289  0.42331663566474736  1.0000
  H   H14       1.0  0.7078740104862147  0.4181360905668257  0.5766849477907885  1.0000
  H   H15       1.0  0.7921238354857465  0.9181320291446011  0.0766826535518703  1.0000
  H   H16       1.0  0.2078907274565793  0.08186776947663081  0.9233163845836432  1.0000
  H   H17       1.0  0.6735654017988749  0.573857922367118  0.4240037545759279  1.0000
  H   H18       1.0  0.3264290142292268  0.4261453623652259  0.5759923398217454  1.0000
  H   H19       1.0  0.17357518990126414  0.9261454635479394  0.0759946048255173  1.0000
  H   H20       1.0  0.8264364948666838  0.07386300012422001  0.9240080811158223  1.0000
  H   H21       1.0  0.6620967531438423  0.6401234007477256  0.3569959974826987  1.0000
  H   H22       1.0  0.3378991019753598  0.35987385150204426  0.6429979102724062  1.0000
  H   H23       1.0  0.16210510166953174  0.8598773540922694  0.14300091687169922  1.0000
  H   H24       1.0  0.8379008268478215  0.1401276105069229  0.8569999431310721  1.0000
  H   H25       1.0  0.5354975999830103  0.3231260144766138  0.7646904546512018  1.0000
  H   H26       1.0  0.4644996941289036  0.6768751995889986  0.23531041454085513  1.0000
  H   H27       1.0  0.03549677108495789  0.17687391915730186  0.7353089281918771  1.0000
  H   H28       1.0  0.9645019621024173  0.8231276455281455  0.2646912063366216  1.0000
  C   C1        1.0  0.5345602545679212  0.18584438279771115  0.812441339812132  1.0000
  C   C2        1.0  0.4654356005040298  0.8141561831706807  0.18755696265362332  1.0000
  C   C3        1.0  0.0345618896402939  0.314155253480699  0.6875547429563795  1.0000
  C   C4        1.0  0.9654382826855752  0.6858440493458317  0.31243879287280407  1.0000
  C   C5        1.0  0.5343443667451169  0.1824075881157512  0.6811219441004824  1.0000
  C   C6        1.0  0.46565724459710367  0.817594644756326  0.3188763542797944  1.0000
  C   C7        1.0  0.03433886184562599  0.31759631461051185  0.8188752292360918  1.0000
  C   C8        1.0  0.9656555541784968  0.6824053362708042  0.18112123606411504  1.0000
  C   C9        1.0  0.8019051452324318  0.573967815744453  0.07988231503431821  1.0000
  C   C10       1.0  0.1980835144542041  0.42602314543653114  0.9201204137782356  1.0000
  C   C11       1.0  0.3019104145288907  0.9260262331882885  0.42011882208191753  1.0000
  C   C12       1.0  0.6980969530124171  0.07396742666582408  0.5798861015219289  1.0000
  C   C13       1.0  0.7965384305542428  0.6131640521327029  0.120033664272313  1.0000
  C   C14       1.0  0.20345742448208173  0.38683014369681246  0.8799679559090381  1.0000
  C   C15       1.0  0.2965416852548016  0.8868358848056418  0.37996343004847694  1.0000
  C   C16       1.0  0.703467121401509  0.11316404602813179  0.6200370753754711  1.0000
  C   C17       1.0  0.9641867255203848  0.6392596865518954  0.1384064778935041  1.0000
  C   C18       1.0  0.0358062513927209  0.3607377439268049  0.8615940336637139  1.0000
  C   C19       1.0  0.4641918144851046  0.860740426878415  0.36159258179620213  1.0000
  C   C20       1.0  0.5358141140558529  0.13926183904642636  0.6384060834021313  1.0000
  C   C21       1.0  0.1369404333654032  0.6248163379031055  0.11464148938330253  1.0000
  C   C22       1.0  0.8630525435516246  0.3751802260705261  0.8853586573935388  1.0000
  C   C23       1.0  0.6369415460426138  0.8751822834398408  0.385359501476593  1.0000
  C   C24       1.0  0.36306726063350675  0.12482206611490201  0.6146391586179336  1.0000
  C   C25       1.0  0.14464131558350596  0.5860672613416823  0.07449381335587188  1.0000
  C   C26       1.0  0.8553502222224764  0.4139238320512816  0.9255103827390486  1.0000
  C   C27       1.0  0.6446458820239869  0.9139265896575633  0.4255097466733418  1.0000
  C   C28       1.0  0.3553629246363172  0.0860753917532477  0.5744903868277192  1.0000
  C   C29       1.0  0.9769104044886417  0.5589875680799992  0.05632046677313701  1.0000
  C   C30       1.0  0.023085450520028396  0.44100394203869797  0.9436837282983888  1.0000
  C   C31       1.0  0.47690797175912536  0.9410027866047485  0.44368593697516456  1.0000
  C   C32       1.0  0.5230979567146433  0.058992123427508085  0.5563189835686159  1.0000
  C   C33       1.0  0.9885183493549476  0.5179720210416576  0.016711446122748403  1.0000
  C   C34       1.0  0.011512043287027  0.48202147354574976  0.9832916433594365  1.0000
  C   C35       1.0  0.4884862833840273  0.982018179832103  0.48329787692561144  1.0000
  C   C36       1.0  0.5114951809214716  0.0179748118368792  0.5167088828426288  1.0000
  C   C37       1.0  0.1481091542255655  0.6313576883460285  0.37149761009842314  1.0000
  C   C38       1.0  0.8518852617867976  0.368646978776539  0.628499948522567  1.0000
  C   C39       1.0  0.6481157881625846  0.868643868714116  0.12849895504881914  1.0000
  C   C40       1.0  0.3518901403861959  0.1313554140225293  0.8714989836498362  1.0000
  C   C41       1.0  0.15519616436967704  0.5949112331078297  0.40851003015348647  1.0000
  C   C42       1.0  0.8447924953369891  0.4050949816705369  0.5914908268003388  1.0000
  C   C43       1.0  0.6552079106532035  0.9050910041796811  0.09148945858088102  1.0000
  C   C44       1.0  0.34480377415793134  0.09490792793665996  0.9085092147762808  1.0000
  C   C45       1.0  0.9836585211655587  0.5739596253046527  0.427403735643253  1.0000
  C   C46       1.0  0.016330138580499896  0.4260450087652429  0.5725934561606821  1.0000
  C   C47       1.0  0.4836698214280801  0.9260432704601628  0.07259382225610268  1.0000
  C   C48       1.0  0.5163433024428058  0.07395947829631667  0.9274055755590142  1.0000
  C   C49       1.0  0.8050315805097908  0.5904405438785998  0.4089413566753635  1.0000
  C   C50       1.0  0.19496139645860208  0.4095605911176746  0.5910540091829264  1.0000
  C   C51       1.0  0.3050424841006246  0.9095619914687488  0.09105682004778971  1.0000
  C   C52       1.0  0.6949692006751745  0.09044473919326627  0.9089451363327968  1.0000
  C   C53       1.0  0.798823840505925  0.6270415441429975  0.3719417660702788  1.0000
  C   C54       1.0  0.20117057552608486  0.3729600406322362  0.6280539655877319  1.0000
  C   C55       1.0  0.2988310710677524  0.87296095895973  0.12805605255661592  1.0000
  C   C56       1.0  0.7011777355768557  0.12704490519739406  0.8719455390456048  1.0000
  C   C57       1.0  0.9701882103068157  0.6475342215574145  0.35287677155874064  1.0000
  C   C58       1.0  0.029810522916037  0.3524670456506555  0.6471200615798905  1.0000
  C   C59       1.0  0.4701935922421683  0.8524648262682175  0.14711971399134433  1.0000
  C   C60       1.0  0.5298080190921156  0.14753497235385277  0.8528793241532783  1.0000
  C   C61       1.0  0.0078443728081723  0.4653149157977693  0.533901050592995  1.0000
  C   C62       1.0  0.9921399697037498  0.5346937332308881  0.46609906659952566  1.0000
  C   C63       1.0  0.5078595835465974  0.034690855599507076  0.966098356808324  1.0000
  C   C64       1.0  0.4921535403479069  0.965310027934649  0.033898844161647894  1.0000
  N   N1        1.0  0.8239761095627713  0.5149455355788672  0.48298577317044084  1.0000
  N   N2        1.0  0.17601111104494285  0.4850680279662071  0.5170180010070808  1.0000
  N   N3        1.0  0.3239900429556926  0.9850591470380577  0.0170131054727278  1.0000
  N   N4        1.0  0.6760245200181528  0.014939553706803077  0.9829830001347305  1.0000
  N   N5        1.0  0.8319783939239683  0.47968733380494655  0.5174621915356781  1.0000
  N   N6        1.0  0.1680073876161572  0.5203249795621687  0.48254158570392763  1.0000
  N   N7        1.0  0.33199383860989673  0.0203180117202635  0.9825371282782883  1.0000
  N   N8        1.0  0.6680192853042968  0.9796814563706349  0.017458241647275902  1.0000
  N   N9        1.0  0.6225140692797806  0.5485018819976303  0.0605507204470541  1.0000
  N   N10       1.0  0.37747890758981123  0.45148882772227245  0.9394538434883091  1.0000
  N   N11       1.0  0.12252036179375381  0.9514915882092793  0.43945323851257  1.0000
  N   N12       1.0  0.8774855666641698  0.04849970350100819  0.56055315849882  1.0000
  N   N13       1.0  0.6088161693504334  0.6322177100447062  0.14005044664975944  1.0000
  N   N14       1.0  0.3911782466183808  0.3677785694149875  0.8599511684308113  1.0000
  N   N15       1.0  0.10881985450038908  0.8677820329254544  0.35994911337922286  1.0000
  N   N16       1.0  0.8911889521480133  0.1322167138363568  0.6400521287479891  1.0000
  O   O1        1.0  0.36948318320906987  0.19834274867197627  0.6964496332380323  1.0000
  O   O2        1.0  0.6305184281212775  0.8016574997291528  0.3035497707073206  1.0000
  O   O3        1.0  0.8694831770661792  0.30165800798530995  0.8035496451141454  1.0000
  O   O4        1.0  0.13050979986277159  0.6983430408153736  0.1964493899754629  1.0000
  O   O5        1.0  0.7000474292856962  0.20015190229223376  0.797396229481656  1.0000
  O   O6        1.0  0.2999469867423272  0.7998476319059692  0.2025998740992492  1.0000
  O   O7        1.0  0.2000516193078781  0.29984231509249776  0.7025952311563373  1.0000
  O   O8        1.0  0.7999471139936957  0.7001520401644825  0.2973942808657314  1.0000
  O   O9        1.0  0.6966897127818259  0.1986170658592741  0.6981016252767847  1.0000
  O   O10       1.0  0.30330614229416136  0.8013880510422525  0.3018962991439268  1.0000
  O   O11       1.0  0.1966917683799707  0.30138893241385023  0.8018956816683771  1.0000
  O   O12       1.0  0.8033012085884506  0.698613869486486  0.1980996801084771  1.0000
  O   O13       1.0  0.8717824356682795  0.2997507068981662  0.7042060502421421  1.0000
  O   O14       1.0  0.1282206147336495  0.7002532589839703  0.29579297769787866  1.0000
  O   O15       1.0  0.3717774282459486  0.20025348242735666  0.7957943171833791  1.0000
  O   O16       1.0  0.628215548671193  0.7997484989844778  0.20420581632880191  1.0000
  O   O17       1.0  0.5348918903010258  0.2841662307714116  0.7518929112871647  1.0000
  O   O18       1.0  0.4651039647827914  0.7158363196679288  0.2481042856135076  1.0000
  O   O19       1.0  0.034892224972864504  0.2158343380750622  0.7481042694388621  1.0000
  O   O20       1.0  0.9651050691824495  0.7841677625851273  0.251892561660064  1.0000
  O   O21       1.0  0.5761866205873218  0.5584563133958866  0.018372271766672606  1.0000
  O   O22       1.0  0.5307501906419532  0.5197283449864968  0.08816493931988131  1.0000
  O   O23       1.0  0.42379628280927045  0.44153064579052165  0.9816323013589924  1.0000
  O   O24       1.0  0.46923846897383464  0.48026904531347697  0.9118443779874  1.0000
  O   O25       1.0  0.07620495820375342  0.9415383138605405  0.48163064875310374  1.0000
  O   O26       1.0  0.030749881035667694  0.9802695357990603  0.4118417061224875  1.0000
  O   O27       1.0  0.9238009702699228  0.05845201218554049  0.518374283014616  1.0000
  O   O28       1.0  0.969241656726915  0.019720670999326704  0.5881665280655711  1.0000
  O   O29       1.0  0.5349893570463138  0.6703933700340201  0.11847711274066343  1.0000
  O   O30       1.0  0.5408083368071246  0.6096635972488755  0.17521494030297194  1.0000
  O   O31       1.0  0.46500361985493294  0.329602492699749  0.881524503361277  1.0000
  O   O32       1.0  0.45919183540441105  0.3903370808418956  0.8247892323176487  1.0000
  O   O33       1.0  0.03499545704652719  0.8296092335235343  0.3815218102332238  1.0000
  O   O34       1.0  0.040792630624118004  0.8903394553315775  0.3247843403109414  1.0000
  O   O35       1.0  0.9650104714746489  0.1703898638583894  0.6184786972334564  1.0000
  O   O36       1.0  0.9592075416150009  0.10966015793586337  0.6752172666027151  1.0000
