data_image0
_chemical_formula_structural       Sr2H20C36N16O8
_chemical_formula_sum              "Sr2 H20 C36 N16 O8"
_cell_length_a       7.140511509522057
_cell_length_b       7.475361356592695
_cell_length_c       22.3117972726961
_cell_angle_alpha    90.0005455463944
_cell_angle_beta     90.00039126120345
_cell_angle_gamma    117.34992870993293

_space_group_name_H-M_alt    "P 1"
_space_group_IT_number       1

loop_
  _space_group_symop_operation_xyz
  'x, y, z'

loop_
  _atom_site_type_symbol
  _atom_site_label
  _atom_site_symmetry_multiplicity
  _atom_site_fract_x
  _atom_site_fract_y
  _atom_site_fract_z
  _atom_site_occupancy
  Sr  Sr1       1.0  0.40619737515928733  0.9570608007043618  0.25000021658018307  1.0000
  Sr  Sr2       1.0  0.5938023703382028  0.0429407789516105  0.7500003522691329  1.0000
  H   H1        1.0  0.9273513583293251  0.7044441867792699  0.28556675738602166  1.0000
  H   H2        1.0  0.0726478573016109  0.2955575643344588  0.7855679285693709  1.0000
  H   H3        1.0  0.07264345178135301  0.2955558280189976  0.7144351560356268  1.0000
  H   H4        1.0  0.9273561222383504  0.7044500588464827  0.21443532945456667  1.0000
  H   H5        1.0  0.5875250199237172  0.6611882497402561  0.28524765618638526  1.0000
  H   H6        1.0  0.4124784107062567  0.3388135449334015  0.7852425276824276  1.0000
  H   H7        1.0  0.4124719013607887  0.33880730607882725  0.7147520162634107  1.0000
  H   H8        1.0  0.5875185198461567  0.6611939799782576  0.21475893756020525  1.0000
  H   H9        1.0  0.7254994331367753  0.11479320597249652  0.13780160885654164  1.0000
  H   H10       1.0  0.2744988441714113  0.8852165345064475  0.6378019766970765  1.0000
  H   H11       1.0  0.27449890950214945  0.8852173308362267  0.8621994081990746  1.0000
  H   H12       1.0  0.7255030102328989  0.114777593950663  0.3621981439491292  1.0000
  H   H13       1.0  0.8781078423815954  0.1374716729012633  0.19060302454420952  1.0000
  H   H14       1.0  0.12189631501357924  0.8625421321946193  0.6906029905924382  1.0000
  H   H15       1.0  0.12189190542288492  0.8625328990171681  0.8093975443099308  1.0000
  H   H16       1.0  0.878107671347408  0.1374744676667561  0.30939578551208047  1.0000
  H   H17       1.0  0.22295201402223344  0.0685495624842005  0.494513180034424  1.0000
  H   H18       1.0  0.7770579285406426  0.9314621780151738  0.9945147794636494  1.0000
  H   H19       1.0  0.7770498357780936  0.9314385814586998  0.5054873887955225  1.0000
  H   H20       1.0  0.22294534487112833  0.0685439391263571  0.0054848930099992985  1.0000
  C   C1        1.0  0.2438249566320607  0.3042496233541526  0.4295842542396499  1.0000
  C   C2        1.0  0.7561877367652413  0.6957680744784229  0.9295859459574342  1.0000
  C   C3        1.0  0.7561853473113728  0.6957326539570515  0.5704172109767283  1.0000
  C   C4        1.0  0.24381273094937939  0.30425595698997643  0.07041551931559548  1.0000
  C   C5        1.0  0.2547819237540878  0.49899473268079214  0.43840188817191  1.0000
  C   C6        1.0  0.7452473788158612  0.5010281001352935  0.9384011363013864  1.0000
  C   C7        1.0  0.745225562837355  0.5009904975167175  0.5615959914990893  1.0000
  C   C8        1.0  0.254765774587483  0.49899311576076844  0.06159539885351248  1.0000
  C   C9        1.0  0.24810543671577534  0.5276270809847148  0.5008236129372532  1.0000
  C   C10       1.0  0.7519135277939526  0.4723884659548574  0.0008222127471028997  1.0000
  C   C11       1.0  0.7518886534347899  0.4723534742101165  0.499175163098563  1.0000
  C   C12       1.0  0.24809962097543803  0.5276267653949205  0.999173426011374  1.0000
  C   C13       1.0  0.23095717525455234  0.34971615973888254  0.5301015409945434  1.0000
  C   C14       1.0  0.7690278385884497  0.6502853318100887  0.03010343986457539  1.0000
  C   C15       1.0  0.7690425610050012  0.6502734508565948  0.4698985796420984  1.0000
  C   C16       1.0  0.23096273984669577  0.34971163178981607  0.9698984735475942  1.0000
  C   C17       1.0  0.22865147425799387  0.21383124675342197  0.4859726469439848  1.0000
  C   C18       1.0  0.7713446910622395  0.7861754112691203  0.985976455307927  1.0000
  C   C19       1.0  0.7713630636279734  0.7861570739758295  0.5140270255131368  1.0000
  C   C20       1.0  0.22864730642034203  0.21383354105797284  0.014026802705238593  1.0000
  C   C21       1.0  0.2589168375367734  0.2248099324176067  0.37383336709774534  1.0000
  C   C22       1.0  0.7410877261248671  0.7751990422215865  0.8738361785271989  1.0000
  C   C23       1.0  0.7410864219831199  0.775178231095744  0.6261640643800418  1.0000
  C   C24       1.0  0.25891767238258007  0.2248205696010075  0.12616483855062904  1.0000
  C   C25       1.0  0.276064963527503  0.6388329197754671  0.3937844845695508  1.0000
  C   C26       1.0  0.7239510642490501  0.3611786501805837  0.8937827882315827  1.0000
  C   C27       1.0  0.7239333606355558  0.36115367891225236  0.6062156360607174  1.0000
  C   C28       1.0  0.27605150997546707  0.638834937730266  0.10621419509301687  1.0000
  C   C29       1.0  0.26671163942682347  0.7004878712940225  0.5302863518735278  1.0000
  C   C30       1.0  0.7333008838571827  0.2995274772552676  0.03028480303511569  1.0000
  C   C31       1.0  0.733287393091473  0.2995032256100316  0.4697137687647554  1.0000
  C   C32       1.0  0.26671226264519277  0.7004847618748257  0.9697126284920894  1.0000
  C   C33       1.0  0.23125845645301976  0.32817926672130676  0.5925621853079261  1.0000
  C   C34       1.0  0.7687208792139443  0.6718191026871593  0.09256370469056208  1.0000
  C   C35       1.0  0.7687363420327955  0.6718057866684717  0.40743569434912513  1.0000
  C   C36       1.0  0.23125771021289412  0.3281702132394599  0.9074368641162206  1.0000
  N   N1        1.0  0.27518120562767473  0.1609823023313055  0.3273403889721819  1.0000
  N   N2        1.0  0.724815643313754  0.8390213829926337  0.8273393371827209  1.0000
  N   N3        1.0  0.7248079606110522  0.8390116492539192  0.6726570424997431  1.0000
  N   N4        1.0  0.2752010242019267  0.1609864168570425  0.17265809434113064  1.0000
  N   N5        1.0  0.2968397988985745  0.75563299657847  0.3563081085617766  1.0000
  N   N6        1.0  0.7031668051201124  0.24437817334439424  0.856308232234461  1.0000
  N   N7        1.0  0.703162055555694  0.24436113193210215  0.6436942530513645  1.0000
  N   N8        1.0  0.2968294193740634  0.7556278456026887  0.14369278481159847  1.0000
  N   N9        1.0  0.2844627567109014  0.8422698491975209  0.556957691422113  1.0000
  N   N10       1.0  0.7155403813292622  0.15774512851574227  0.05695744045312519  1.0000
  N   N11       1.0  0.7155397945137096  0.15771381616365687  0.44304242920798476  1.0000
  N   N12       1.0  0.2844692464567941  0.8422745421465264  0.9430395428888684  1.0000
  N   N13       1.0  0.2366056532251761  0.3192543815101772  0.6448327305092645  1.0000
  N   N14       1.0  0.7633760155857489  0.6807494742558476  0.14483605990273665  1.0000
  N   N15       1.0  0.7633877378480634  0.6807336445715961  0.3551682865047708  1.0000
  N   N16       1.0  0.23660822227705575  0.3192518893552502  0.8551667498964616  1.0000
  O   O1        1.0  0.016554550318439012  0.7272916844632961  0.2500007714382163  1.0000
  O   O2        1.0  0.983445195209029  0.2727098952247573  0.7500011419912693  1.0000
  O   O3        1.0  0.509728990291279  0.6698505286184255  0.2500016583476351  1.0000
  O   O4        1.0  0.49026511374117376  0.33014798019388536  0.7499989104906604  1.0000
  O   O5        1.0  0.7382735080582418  0.12280291728042408  0.18192268896476083  1.0000
  O   O6        1.0  0.26172743576975677  0.8772014575590744  0.6819225552893895  1.0000
  O   O7        1.0  0.26172482996670954  0.877201635003395  0.8180783280812134  1.0000
  O   O8        1.0  0.7382716013924836  0.1227956239019576  0.31807890993869836  1.0000
