data_image0
_chemical_formula_structural       ZnSiH16C24N4F10
_chemical_formula_sum              "Zn1 Si1 H16 C24 N4 F10"
_cell_length_a       7.781524137153802
_cell_length_b       13.785166019538156
_cell_length_c       13.786892926626512
_cell_angle_alpha    86.64173351445116
_cell_angle_beta     73.72686370950129
_cell_angle_gamma    73.7204060875579

_space_group_name_H-M_alt    "P 1"
_space_group_IT_number       1

loop_
  _space_group_symop_operation_xyz
  'x, y, z'

loop_
  _atom_site_type_symbol
  _atom_site_label
  _atom_site_symmetry_multiplicity
  _atom_site_fract_x
  _atom_site_fract_y
  _atom_site_fract_z
  _atom_site_occupancy
  Zn  Zn1       1.0  0.4999933694910866  0.4999539468257125  0.5000551454171003  1.0000
  Si  Si1       1.0  2.920799779767046e-06  0.5000548752312922  0.49991180873558966  1.0000
  H   H1        1.0  0.2702064130155292  0.5717803888391302  0.3596595324956056  1.0000
  H   H2        1.0  0.26407627804950806  0.5712051884696338  0.1842540488635862  1.0000
  H   H3        1.0  0.8612957792087742  0.43101219742972313  0.10440036925673721  1.0000
  H   H4        1.0  0.13871183127510964  0.5685245470854953  0.8957578450925396  1.0000
  H   H5        1.0  0.736300202154794  0.42942633707023237  0.815679514168771  1.0000
  H   H6        1.0  0.7300610504630214  0.4287340906816938  0.6403213004436878  1.0000
  H   H7        1.0  0.7146641319039232  0.46705161151168534  0.9684295865892808  1.0000
  H   H8        1.0  0.2855902396346578  0.53308246635563  0.03161950479369579  1.0000
  H   H9        1.0  0.26997203720929247  0.3597078168558098  0.5714938427153556  1.0000
  H   H10       1.0  0.2637968906998721  0.18430790152630286  0.5708104014437938  1.0000
  H   H11       1.0  0.8611235152466887  0.10434198048592691  0.4309643195511725  1.0000
  H   H12       1.0  0.13885240333105728  0.8955303227665112  0.5695369991158188  1.0000
  H   H13       1.0  0.7357794406154238  0.8157679062823462  0.4285507226900053  1.0000
  H   H14       1.0  0.7297313597998354  0.6403129522251874  0.4280921361760903  1.0000
  H   H15       1.0  0.7143969587837944  0.9684097714389138  0.4667520012902743  1.0000
  H   H16       1.0  0.2853318142143663  0.031568984712798495  0.5331004923803135  1.0000
  C   C1        1.0  0.3989727406492989  0.5414511735123712  0.3012265391369909  1.0000
  C   C2        1.0  0.39695337931514973  0.540361502750322  0.20134490014910972  1.0000
  C   C3        1.0  0.5630855551423081  0.4990695109113759  0.1258284161657599  1.0000
  C   C4        1.0  0.7257592500169068  0.4633001749451751  0.1573475149867889  1.0000
  C   C5        1.0  0.7122682091301795  0.46714043140799066  0.25990340395883754  1.0000
  C   C6        1.0  0.5738491775710273  0.4910095817329108  0.019253105020098388  1.0000
  C   C7        1.0  0.4264301527313489  0.5091749248548112  0.98076886980558  1.0000
  C   C8        1.0  0.2743150297595491  0.5364423484353864  0.8427695818531334  1.0000
  C   C9        1.0  0.4371514358359008  0.5010532824467759  0.8742073357859043  1.0000
  C   C10       1.0  0.6033283851656035  0.4599987061479922  0.7986437284767406  1.0000
  C   C11       1.0  0.6012207833302627  0.4588485960978658  0.6987802966045891  1.0000
  C   C12       1.0  0.2876952778824843  0.5324766320234103  0.7402372712692299  1.0000
  C   C13       1.0  0.39878404848510474  0.30125119929729044  0.5411957136125879  1.0000
  C   C14       1.0  0.3966953214951873  0.20136720935875727  0.5400737954470856  1.0000
  C   C15       1.0  0.5628267692711759  0.12582279984024322  0.4988320383635881  1.0000
  C   C16       1.0  0.7255504856047993  0.15731021503999895  0.46318828338036167  1.0000
  C   C17       1.0  0.7121562736376031  0.25987038753903846  0.46707571421451644  1.0000
  C   C18       1.0  0.573566544964649  0.019249379686250713  0.4907535152362855  1.0000
  C   C19       1.0  0.4261652633992835  0.9807311738677383  0.509061411019765  1.0000
  C   C20       1.0  0.27433872236470347  0.8425882888663235  0.5370762595796351  1.0000
  C   C21       1.0  0.4369487393007247  0.8741401994148248  0.5010477124997764  1.0000
  C   C22       1.0  0.6029880217757718  0.7986509605051425  0.45957697338931786  1.0000
  C   C23       1.0  0.6009894594447686  0.6987655845550191  0.4585309918277505  1.0000
  C   C24       1.0  0.28781719682534385  0.7400214827410775  0.5332435810858627  1.0000
  N   N1        1.0  0.5551917584542496  0.5033461310093443  0.3322621072625864  1.0000
  N   N2        1.0  0.44482922380552714  0.4965748726003767  0.667813851445061  1.0000
  N   N3        1.0  0.5550610907555437  0.3322654976451815  0.5032184990388373  1.0000
  N   N4        1.0  0.44485432001047087  0.6676776951254624  0.496838673565918  1.0000
  F   F1        1.0  0.21677455295829867  0.5125361217685621  0.5123509687662064  1.0000
  F   F2        1.0  0.7831844053154098  0.4875811724831607  0.4874966462305537  1.0000
  F   F3        1.0  0.9999536392079376  0.5905962566358269  0.4093674685228308  1.0000
  F   F4        1.0  3.3190657958799605e-05  0.40950112587698584  0.5904640942957473  1.0000
  F   F5        1.0  0.12104990507158674  0.41047230416767627  0.4103676325980032  1.0000
  F   F6        1.0  0.8789069387380761  0.5896267847517436  0.5894733701872711  1.0000
  F   F7        1.0  0.8690695488379772  0.4315916278360419  0.28833386786897824  1.0000
  F   F8        1.0  0.13073097753937893  0.5675186332750143  0.7118725432196557  1.0000
  F   F9        1.0  0.8689976630084855  0.2882858981846255  0.4316793483990296  1.0000
  F   F10       1.0  0.13112702241463134  0.7115396955517493  0.5690955873492741  1.0000
