data_image0
_chemical_formula_structural       Zn2H24C34N24O2
_chemical_formula_sum              "Zn2 H24 C34 N24 O2"
_cell_length_a       7.68166008500597
_cell_length_b       11.05712767024516
_cell_length_c       12.038555651206648
_cell_angle_alpha    114.92753042737648
_cell_angle_beta     89.99997192469174
_cell_angle_gamma    89.99988487106876

_space_group_name_H-M_alt    "P 1"
_space_group_IT_number       1

loop_
  _space_group_symop_operation_xyz
  'x, y, z'

loop_
  _atom_site_type_symbol
  _atom_site_label
  _atom_site_symmetry_multiplicity
  _atom_site_fract_x
  _atom_site_fract_y
  _atom_site_fract_z
  _atom_site_occupancy
  Zn  Zn1       1.0  0.6548949279515528  0.8552175784834828  0.09122480107937742  1.0000
  Zn  Zn2       1.0  0.1548943478249711  0.14478246285088395  0.9087772341616327  1.0000
  H   H1        1.0  0.4077396344158047  0.10650803829021532  0.5262906427157857  1.0000
  H   H2        1.0  0.9077450193141487  0.893492526904829  0.47371151377348736  1.0000
  H   H3        1.0  0.43212769693155206  0.9174028970518289  0.5882014668768459  1.0000
  H   H4        1.0  0.9321328718789206  0.08259862443046022  0.4118027115104325  1.0000
  H   H5        1.0  0.5766931636800052  0.7056703705934098  0.4439899127531034  1.0000
  H   H6        1.0  0.07669892884244692  0.29432982414202497  0.556014698477746  1.0000
  H   H7        1.0  0.6971685172738021  0.6934965897372507  0.2460970021705933  1.0000
  H   H8        1.0  0.19716888908999416  0.30650337942253697  0.7539074838077936  1.0000
  H   H9        1.0  0.2974270487095296  0.4559216468254164  0.49321114911739267  1.0000
  H   H10       1.0  0.7974256086496396  0.5440791179474117  0.5067886273760394  1.0000
  H   H11       1.0  0.32464353318578526  0.5954402599719443  0.7209116797865602  1.0000
  H   H12       1.0  0.8246387650777863  0.40456244843976197  0.27908883666786  1.0000
  H   H13       1.0  0.55324130011725  0.5343075915577771  0.836197087009637  1.0000
  H   H14       1.0  0.05323905770065811  0.46569363043456496  0.16380294335812806  1.0000
  H   H15       1.0  0.7464889193094991  0.337743204077114  0.7207126805474005  1.0000
  H   H16       1.0  0.24648862364632151  0.6622546665043385  0.27928682808409616  1.0000
  H   H17       1.0  0.16976826317400653  0.696301625139199  0.05817008976907085  1.0000
  H   H18       1.0  0.6697658851324918  0.3036963728102505  0.9418236776878428  1.0000
  H   H19       1.0  0.2292343793064404  0.8388157732990175  0.03269834858257769  1.0000
  H   H20       1.0  0.7292323942261943  0.16118211097762716  0.9672945254857834  1.0000
  H   H21       1.0  0.25713193454517125  0.8414589722265616  0.1808980989455974  1.0000
  H   H22       1.0  0.7571287683277036  0.1585388621419668  0.8190955776818638  1.0000
  H   H23       1.0  0.44493542937267705  0.6394910729080153  0.05615630170954946  1.0000
  H   H24       1.0  0.9449315836025463  0.36050741176554607  0.9438392269171556  1.0000
  C   C1        1.0  0.4713222000178234  0.018047675303556297  0.9792990160226933  1.0000
  C   C2        1.0  0.9713211653981592  0.9819517688923084  0.02070102711112284  1.0000
  C   C3        1.0  0.40843593098968267  0.3322184576197741  0.10903408093690094  1.0000
  C   C4        1.0  0.9084390472149123  0.6677810996682964  0.8909643644502835  1.0000
  C   C5        1.0  0.4667257419494249  0.10564409346842042  0.11037781435801008  1.0000
  C   C6        1.0  0.9667255999688679  0.8943553616598905  0.8896230651170569  1.0000
  C   C7        1.0  0.4385948793741933  0.24486301132323968  0.17078128063322848  1.0000
  C   C8        1.0  0.9385938845042503  0.7551374891234275  0.829218349091249  1.0000
  C   C9        1.0  0.4870166420938347  0.2381158825378549  0.3596029862006985  1.0000
  C   C10       1.0  0.9870170734964604  0.7618845295682702  0.640397424743014  1.0000
  C   C11       1.0  0.5113813930225319  0.09761246877977207  0.3004923680014996  1.0000
  C   C12       1.0  0.0113852892528072  0.9023868439700421  0.6995094323169011  1.0000
  C   C13       1.0  0.5393753182952211  0.9996133962455288  0.35401644603911103  1.0000
  C   C14       1.0  0.0393792618078095  0.00038686371282640027  0.6459865408653442  1.0000
  C   C15       1.0  0.47286373370778995  0.014636319898073697  0.4672122729912758  1.0000
  C   C16       1.0  0.9728701095115184  0.9853641210294767  0.5327889842266699  1.0000
  C   C17       1.0  0.48558103161687427  0.9090424526710592  0.5012965939150432  1.0000
  C   C18       1.0  0.9855861160977071  0.09095996369559597  0.4987070814630669  1.0000
  C   C19       1.0  0.5670141505761493  0.7914087221964222  0.4220459119674727  1.0000
  C   C20       1.0  0.06702014709546233  0.20859448488352675  0.5779606932725229  1.0000
  C   C21       1.0  0.6336039766632312  0.7836987424182238  0.31162204790044956  1.0000
  C   C22       1.0  0.1336098666691399  0.2163013457560439  0.6883825041615522  1.0000
  C   C23       1.0  0.5022827016894099  0.3216905060122669  0.4929252974054917  1.0000
  C   C24       1.0  0.0022795822579482  0.6783098164254184  0.507075233378245  1.0000
  C   C25       1.0  0.392784053237591  0.432770468052645  0.5484497425561726  1.0000
  C   C26       1.0  0.8927812865066048  0.5672321104426102  0.45154987149029313  1.0000
  C   C27       1.0  0.4094235259945479  0.5100438929731579  0.6739091480569  1.0000
  C   C28       1.0  0.9094210785418754  0.4899576570674354  0.32609006456196  1.0000
  C   C29       1.0  0.5368296050025522  0.47586083407981034  0.7381660130665393  1.0000
  C   C30       1.0  0.036825816903316905  0.5241394213453531  0.2618336502370865  1.0000
  C   C31       1.0  0.6425191835475985  0.3652777709011444  0.6740179233177483  1.0000
  C   C32       1.0  0.14251632834531594  0.6347212870026268  0.3259804144118589  1.0000
  C   C33       1.0  0.2638116099087995  0.7780494061249495  0.08158514956004119  1.0000
  C   C34       1.0  0.7638081844728505  0.22194741611162527  0.9184073044321861  1.0000
  N   N1        1.0  0.5691969087632459  0.9065647093271917  0.9388486875771914  1.0000
  N   N2        1.0  0.06919321820615211  0.09343548549262688  0.06115094207488878  1.0000
  N   N3        1.0  0.5412668855328634  0.8435560811062501  0.8176127129325792  1.0000
  N   N4        1.0  0.04126552380124342  0.15644416368140668  0.18238611419355513  1.0000
  N   N5        1.0  0.4284877897967619  0.9130651778977422  0.7853881681232976  1.0000
  N   N6        1.0  0.9284878953595311  0.08693634109764758  0.2146126877993737  1.0000
  N   N7        1.0  0.3825497502716928  0.023348906199380796  0.8853914177587681  1.0000
  N   N8        1.0  0.882549961179734  0.9766507065415764  0.11460954923182223  1.0000
  N   N9        1.0  0.3113996941671219  0.3039188034383499  0.0071975579204205655  1.0000
  N   N10       1.0  0.8114013490379933  0.6960819421492059  0.9928046987330601  1.0000
  N   N11       1.0  0.3215740528521494  0.41018565741685353  0.9815741057908909  1.0000
  N   N12       1.0  0.8215767582772102  0.5898150667922548  0.018427308721122315  1.0000
  N   N13       1.0  0.42318512290331267  0.4986068952640322  0.0653160641676394  1.0000
  N   N14       1.0  0.9231860836543575  0.5013926367361136  0.9346831974491819  1.0000
  N   N15       1.0  0.47898559389976475  0.45453611582036046  0.14692241429990818  1.0000
  N   N16       1.0  0.9789838857564491  0.5454623120752372  0.853075573613246  1.0000
  N   N17       1.0  0.5033663298384994  0.03903816815383719  0.17824391968494516  1.0000
  N   N18       1.0  0.0033699633481064006  0.9609621545752917  0.8217574415315454  1.0000
  N   N19       1.0  0.45163619569123636  0.3063222441159822  0.2929846248549949  1.0000
  N   N20       1.0  0.9516341700523442  0.6936782319127984  0.7070149913112828  1.0000
  N   N21       1.0  0.6190848459708249  0.8849119273384218  0.2781039216367062  1.0000
  N   N22       1.0  0.11908970149317351  0.1150861864459358  0.7218973825767775  1.0000
  N   N23       1.0  0.6258120149516773  0.28803564321489006  0.5540471580434314  1.0000
  N   N24       1.0  0.1258101465520625  0.7119624509993441  0.4459516444907975  1.0000
  O   O1        1.0  0.43414207042624037  0.7251199202995906  0.04349767983831751  1.0000
  O   O2        1.0  0.9341397645882665  0.27487658300543666  0.9564945970649318  1.0000
