data_image0
_chemical_formula_structural       Cd2H44C52S8N4O4F4
_chemical_formula_sum              "Cd2 H44 C52 S8 N4 O4 F4"
_cell_length_a       8.068599618208745
_cell_length_b       10.969353972580905
_cell_length_c       16.01639810299104
_cell_angle_alpha    110.07400194505942
_cell_angle_beta     101.02562916422832
_cell_angle_gamma    90.00184144417061

_space_group_name_H-M_alt    "P 1"
_space_group_IT_number       1

loop_
  _space_group_symop_operation_xyz
  'x, y, z'

loop_
  _atom_site_type_symbol
  _atom_site_label
  _atom_site_symmetry_multiplicity
  _atom_site_fract_x
  _atom_site_fract_y
  _atom_site_fract_z
  _atom_site_occupancy
  Cd  Cd1       1.0  0.7501306239658871  0.9889578016839878  8.689574274707008e-05  1.0000
  Cd  Cd2       1.0  0.24986267929364198  0.011044447482923698  0.9999145294701037  1.0000
  H   H1        1.0  0.10582392023223255  0.6361584221032074  0.7537232142774286  1.0000
  H   H2        1.0  0.3938154946050999  0.8818941378566051  0.2462160569769765  1.0000
  H   H3        1.0  0.8941731011289064  0.36384284041390896  0.24627647777757739  1.0000
  H   H4        1.0  0.6061863447313198  0.11810418321801561  0.7537796820574343  1.0000
  H   H5        1.0  0.18571971615445182  0.7052683265256617  0.8729875977331858  1.0000
  H   H6        1.0  0.31380667057712236  0.8315596524220368  0.1269983556186247  1.0000
  H   H7        1.0  0.8142747561379335  0.29473294712102666  0.1270137162000609  1.0000
  H   H8        1.0  0.6861927453822574  0.16843964456145236  0.872996745499691  1.0000
  H   H9        1.0  0.2007911380030691  0.20357190830117133  0.6949303509029647  1.0000
  H   H10       1.0  0.2983615728460478  0.5086959029595943  0.3053191030676174  1.0000
  H   H11       1.0  0.7992071457783395  0.7964293517568418  0.30506946629382264  1.0000
  H   H12       1.0  0.7016330412902005  0.4913063313254752  0.6946787029634436  1.0000
  H   H13       1.0  0.3333662943702507  0.25705644509952924  0.8777478267150229  1.0000
  H   H14       1.0  0.1661287603865915  0.37860507034402247  0.1224834940955688  1.0000
  H   H15       1.0  0.6666386059029676  0.7429477156349334  0.12225145329295366  1.0000
  H   H16       1.0  0.833861956949292  0.6213962023981594  0.8775149481966552  1.0000
  H   H17       1.0  0.3494635604339037  0.5239269056254797  0.9524769303032343  1.0000
  H   H18       1.0  0.15010810110083378  0.5703608551857257  0.04752146097740709  1.0000
  H   H19       1.0  0.6505386039957273  0.4760753201163296  0.04752349874023309  1.0000
  H   H20       1.0  0.8498863954197731  0.42964041224960414  0.9524779807940575  1.0000
  H   H21       1.0  0.3546452414587691  0.5437094459888954  0.6721555278348177  1.0000
  H   H22       1.0  0.14511426676813238  0.8716281695936414  0.3278932241651161  1.0000
  H   H23       1.0  0.6453544592134361  0.45629376601406335  0.3278473835621938  1.0000
  H   H24       1.0  0.8548854454330481  0.12836140260144185  0.6721021340969385  1.0000
  H   H25       1.0  0.5192250152916316  0.6662958249485982  0.6988216846755222  1.0000
  H   H26       1.0  0.9806061378306051  0.9674961292911061  0.3012267365951614  1.0000
  H   H27       1.0  0.48077981229690175  0.33370835441996144  0.3011832118178006  1.0000
  H   H28       1.0  0.019399160147905502  0.032499277645598595  0.6987724129240079  1.0000
  H   H29       1.0  0.3844577037098914  0.9040238384223827  0.7080731805714394  1.0000
  H   H30       1.0  0.115528304663151  0.19619605333308238  0.2921828820526855  1.0000
  H   H31       1.0  0.6155471804111771  0.09598032645299528  0.2919273475443944  1.0000
  H   H32       1.0  0.884475114038075  0.803793532189246  0.7078190921739561  1.0000
  H   H33       1.0  0.22032064233528093  0.9953203850392568  0.5959258644091037  1.0000
  H   H34       1.0  0.2800110465566021  0.39965967807855646  0.4044294669846025  1.0000
  H   H35       1.0  0.7796856056695489  0.0046847483676657  0.40407440121595056  1.0000
  H   H36       1.0  0.7199836528183922  0.6003308915072482  0.59556999550923  1.0000
  H   H37       1.0  0.9998528379199955  0.6139643429591787  0.4274174773864132  1.0000
  H   H38       1.0  0.5004080609878514  0.1866042369468275  0.5724983305550211  1.0000
  H   H39       1.0  0.00015070654553989366  0.38603884717327464  0.5725814410584178  1.0000
  H   H40       1.0  0.4995923498562006  0.8133931321598877  0.42750266340158294  1.0000
  H   H41       1.0  0.1609430559361797  0.521662788603095  0.5402271559962345  1.0000
  H   H42       1.0  0.3389652234913783  0.9814746881098769  0.4596291942033517  1.0000
  H   H43       1.0  0.839059209956936  0.4783404081293767  0.4597728854146865  1.0000
  H   H44       1.0  0.6610454043304514  0.018523628173753096  0.5403711651470218  1.0000
  C   C1        1.0  0.477576189056286  0.7832287171257375  0.8583995553568188  1.0000
  C   C2        1.0  0.022533367046790407  0.9247896752108957  0.14169124698958058  1.0000
  C   C3        1.0  0.5224182670839427  0.21677256066186595  0.141603006684285  1.0000
  C   C4        1.0  0.9774669746380765  0.07520671462334151  0.8583076383838771  1.0000
  C   C5        1.0  0.2133822130789653  0.6403755904217192  0.8087108139103805  1.0000
  C   C6        1.0  0.2861467338747445  0.8310928570752834  0.1912714743125861  1.0000
  C   C7        1.0  0.7866112769553978  0.3596286048674173  0.19129108414522022  1.0000
  C   C8        1.0  0.7138577928488132  0.16890741141472887  0.808726860009898  1.0000
  C   C9        1.0  0.23965149347326792  0.5085438655891822  0.8132227039930058  1.0000
  C   C10       1.0  0.2596021088308547  0.694749755778396  0.18677619135871737  1.0000
  C   C11       1.0  0.7603456212752917  0.49145836998904713  0.1867772244833787  1.0000
  C   C12       1.0  0.740399901128242  0.3052505155593721  0.8132212686262932  1.0000
  C   C13       1.0  0.23095554706176807  0.29370106623173337  0.7522172956883253  1.0000
  C   C14       1.0  0.268212127576021  0.541243929567706  0.24795951682443015  1.0000
  C   C15       1.0  0.7690405773526975  0.7063040930593941  0.2477838409643383  1.0000
  C   C16       1.0  0.7317811469047013  0.4587573299744462  0.7520366795356351  1.0000
  C   C17       1.0  0.29661324735683076  0.3248086876863638  0.8426916154065651  1.0000
  C   C18       1.0  0.20276667906473017  0.48150547611259503  0.1574651057188987  1.0000
  C   C19       1.0  0.7033890346884348  0.6751945049051996  0.15730717789649873  1.0000
  C   C20       1.0  0.7972212494205307  0.5184928782235474  0.8425311289178126  1.0000
  C   C21       1.0  0.3031551405178519  0.4637731844191322  0.8820143227808472  1.0000
  C   C22       1.0  0.1962687194926431  0.5809294490088133  0.11803406573653054  1.0000
  C   C23       1.0  0.6968497193749883  0.5362309866676114  0.11798807749676138  1.0000
  C   C24       1.0  0.8037282246332393  0.41907083630627534  0.8819641417892541  1.0000
  C   C25       1.0  0.38423961694415704  0.6492233058497873  0.6967560276613085  1.0000
  C   C26       1.0  0.11555864207220877  0.9524735828718035  0.3032762739572092  1.0000
  C   C27       1.0  0.6157615409992231  0.35078184774583576  0.3032468576662879  1.0000
  C   C28       1.0  0.884445121399871  0.04751890527020921  0.6967214171021396  1.0000
  C   C29       1.0  0.28018838846475086  0.707099185111879  0.6327047041023377  1.0000
  C   C30       1.0  0.21971051369010303  0.07448859811206887  0.3673117439281555  1.0000
  C   C31       1.0  0.7198177500005085  0.29290497937484616  0.3672965732091953  1.0000
  C   C32       1.0  0.7802969275032083  0.9255029137324369  0.6326873342429806  1.0000
  C   C33       1.0  0.29766280577963034  0.8405869840427087  0.6477687656982595  1.0000
  C   C34       1.0  0.20235260207201117  0.19301958013425494  0.3524265486317759  1.0000
  C   C35       1.0  0.7023421717288514  0.1594181538937747  0.3522319988389455  1.0000
  C   C36       1.0  0.7976482998647471  0.8069700082358294  0.6475745512573923  1.0000
  C   C37       1.0  0.20808507149191505  0.8921493583807985  0.5857224620721624  1.0000
  C   C38       1.0  0.2922350153336454  0.30664282008113014  0.4144957930865729  1.0000
  C   C39       1.0  0.7919210831254944  0.10785480196501136  0.4142775671315134  1.0000
  C   C40       1.0  0.7077610236968822  0.6933487242475918  0.5855052790782622  1.0000
  C   C41       1.0  0.1014887599523817  0.8081880364700423  0.5084907345554726  1.0000
  C   C42       1.0  0.39889610107857  0.2998444842244723  0.4916224711501727  1.0000
  C   C43       1.0  0.89851991950556  0.19181611895755418  0.49150954493174487  1.0000
  C   C44       1.0  0.6011029458817205  0.7001519163506911  0.5083787852972178  1.0000
  C   C45       1.0  0.08282235024561399  0.6753636132442223  0.4899812942679276  1.0000
  C   C46       1.0  0.41738348836619105  0.1854817957706416  0.5100037733602676  1.0000
  C   C47       1.0  0.91718652406324  0.32464248623514885  0.5100188340081147  1.0000
  C   C48       1.0  0.5826193458549015  0.8145145974272053  0.4899978585124386  1.0000
  C   C49       1.0  0.17276464070805272  0.6259066246613327  0.553441930622668  1.0000
  C   C50       1.0  0.32724106900177224  0.0725361072056501  0.4464871150088072  1.0000
  C   C51       1.0  0.827242963104453  0.3740994793475991  0.4465586965655319  1.0000
  C   C52       1.0  0.6727653737813668  0.9274583304222047  0.55351379539254  1.0000
  S   S1        1.0  0.46855116010571146  0.8154104935834282  0.9710280791650234  1.0000
  S   S2        1.0  0.0315610072001178  0.8442484967775884  0.029036672317587955  1.0000
  S   S3        1.0  0.53144221231301  0.18459273485596128  0.028975454630980804  1.0000
  S   S4        1.0  0.9684344715785116  0.15574984901529376  0.9709621853315298  1.0000
  S   S5        1.0  0.6378526143843005  0.8558583774311755  0.831344736187262  1.0000
  S   S6        1.0  0.8624874160131739  0.024753051085148997  0.1688051791553775  1.0000
  S   S7        1.0  0.3621405389552805  0.14414291316781203  0.1686608209816995  1.0000
  S   S8        1.0  0.13751173241060846  0.9752443204806764  0.8311956896594594  1.0000
  N   N1        1.0  0.36108686025759346  0.7000745481827408  0.791178352571805  1.0000
  N   N2        1.0  0.1386970179399754  0.9086272526272622  0.2088510423258327  1.0000
  N   N3        1.0  0.6389090693059599  0.2999286670566192  0.20882293529203366  1.0000
  N   N4        1.0  0.8613059662010656  0.0913700991385156  0.7911464575907561  1.0000
  O   O1        1.0  0.1950726483349428  0.4044528578306624  0.7324478137689283  1.0000
  O   O2        1.0  0.3039889693077384  0.6718042779653075  0.2676225579627811  1.0000
  O   O3        1.0  0.804923476079523  0.5955523014604721  0.2675533228837281  1.0000
  O   O4        1.0  0.696009261466628  0.32819599867931976  0.732373902542989  1.0000
  F   F1        1.0  0.01178635121092241  0.8585137310126073  0.4476431113477517  1.0000
  F   F2        1.0  0.4887212318243712  0.4110445845678115  0.5525666072500215  1.0000
  F   F3        1.0  0.9882160933809485  0.14149141391254014  0.5523580269598369  1.0000
  F   F4        1.0  0.5112692906606071  0.5889547441226027  0.4474319862533847  1.0000
