data_image0
_chemical_formula_structural       Zn2H20C21N2O10
_chemical_formula_sum              "Zn2 H20 C21 N2 O10"
_cell_length_a       9.727429559617189
_cell_length_b       11.161489932349786
_cell_length_c       14.08583835340819
_cell_angle_alpha    92.9505192967076
_cell_angle_beta     95.88180523137571
_cell_angle_gamma    88.74509646570908

_space_group_name_H-M_alt    "P 1"
_space_group_IT_number       1

loop_
  _space_group_symop_operation_xyz
  'x, y, z'

loop_
  _atom_site_type_symbol
  _atom_site_label
  _atom_site_symmetry_multiplicity
  _atom_site_fract_x
  _atom_site_fract_y
  _atom_site_fract_z
  _atom_site_occupancy
  Zn  Zn1       1.0  0.6365405828922873  0.5050906597993149  0.5069009056970657  1.0000
  Zn  Zn2       1.0  0.3568220055638136  0.5045528988287985  0.5126814423951771  1.0000
  H   H1        1.0  0.6580531888411443  0.47837335565665745  0.027833221114427396  1.0000
  H   H2        1.0  0.1368045211005651  0.023146469578165393  0.5913579402390924  1.0000
  H   H3        1.0  0.023081135239749494  0.8207507183141088  0.5644750750226706  1.0000
  H   H4        1.0  0.9220535655665781  0.9359185622554735  0.5071050969588458  1.0000
  H   H5        1.0  0.02118090811887899  0.8343763358419025  0.4384702777074098  1.0000
  H   H6        1.0  0.7608865246389769  0.017350297062556305  0.40450494882703236  1.0000
  H   H7        1.0  0.7500058259523784  0.1582353037170421  0.4705784439625307  1.0000
  H   H8        1.0  0.6832845703896311  0.11656254040229898  0.2538104521053484  1.0000
  H   H9        1.0  0.6748382057452744  0.2572118413654607  0.3177119829719431  1.0000
  H   H10       1.0  0.931163605378991  0.24252542093374524  0.3701571902015318  1.0000
  H   H11       1.0  0.9006165156270356  0.23200642727852025  0.24364078925205496  1.0000
  H   H12       1.0  0.10275217349574461  0.5097577482961385  0.5764199925957174  1.0000
  H   H13       1.0  0.9404293040675  0.10093887333896132  0.3077345981424813  1.0000
  H   H14       1.0  0.3412925542753342  0.5069853614723244  0.9874528356040602  1.0000
  H   H15       1.0  0.6020950883293138  0.9089183658902228  0.5182345346280643  1.0000
  H   H16       1.0  0.3271210385691888  0.12608461219309666  0.5614109921054793  1.0000
  H   H17       1.0  0.852050090675803  0.6218879171111594  0.40122488851221055  1.0000
  H   H18       1.0  0.9041324836073343  0.4278824911356621  0.5329592510302419  1.0000
  H   H19       1.0  0.1067590306204238  0.5634530840098079  0.3754336941630713  1.0000
  H   H20       1.0  0.14315481053918688  0.029538436227895197  0.4654040172624364  1.0000
  C   C1        1.0  0.48835218701326977  0.2702244290272517  0.49073760533411825  1.0000
  C   C2        1.0  0.505770658437008  0.7363035508697989  0.5173890530569026  1.0000
  C   C3        1.0  0.45680498725329943  0.5046620256190265  0.3204556612127406  1.0000
  C   C4        1.0  0.4432658462897692  0.5032586353025721  0.21721472730442315  1.0000
  C   C5        1.0  0.44080059525725074  0.49869834922255757  0.030608782522840296  1.0000
  C   C6        1.0  0.5581535991806205  0.48682782348478076  0.9852132605475747  1.0000
  C   C7        1.0  0.5557431478812092  0.4856775169554126  0.8854342204206562  1.0000
  C   C8        1.0  0.44174168735551694  0.5006372197227833  0.13032959045956724  1.0000
  C   C9        1.0  0.14132929638761738  0.9684241002054748  0.5242213117235084  1.0000
  C   C10       1.0  0.019707495015317992  0.8846797989589347  0.5075361227502315  1.0000
  C   C11       1.0  0.7086012816462031  0.10601924193638722  0.4062395532682929  1.0000
  C   C12       1.0  0.5505970619290609  0.4865209650375276  0.7984926828388412  1.0000
  C   C13       1.0  0.729584465195579  0.1700949310072062  0.31634435497129243  1.0000
  C   C14       1.0  0.8836089056465823  0.18729771001486029  0.3089629920300682  1.0000
  C   C15       1.0  0.38957125044601776  0.9415814949926611  0.5221287353803918  1.0000
  C   C16       1.0  0.5027092165555942  0.8668593499836845  0.5191460101651446  1.0000
  C   C17       1.0  0.39866983552222723  0.0717229560492356  0.5220734830591881  1.0000
  C   C18       1.0  0.4871691139765844  0.13508202675839698  0.4762185277849796  1.0000
  C   C19       1.0  0.9112587409522063  0.5565084443370124  0.4451661333970023  1.0000
  C   C20       1.0  0.06299787396107351  0.5470378855077768  0.4422574100982574  1.0000
  C   C21       1.0  0.5330641202731883  0.49141719958856095  0.6956521244803684  1.0000
  N   N1        1.0  0.8447503218112614  0.49038377078183965  0.495464849893061  1.0000
  N   N2        1.0  0.1469538154267482  0.5200267328555412  0.5141415677719721  1.0000
  O   O1        1.0  0.5994629451932312  0.3228108927219323  0.4787629085564833  1.0000
  O   O2        1.0  0.5650222510643985  0.07870555607162541  0.4124028689138655  1.0000
  O   O3        1.0  0.3775435691658656  0.3209984980793834  0.5140978822613819  1.0000
  O   O4        1.0  0.6405217477580436  0.47624115768291375  0.6511977510788968  1.0000
  O   O5        1.0  0.4097816252522292  0.5108474410821912  0.6590397388392831  1.0000
  O   O6        1.0  0.626467142757008  0.6851036983293496  0.526478415971859  1.0000
  O   O7        1.0  0.39201950320852313  0.6791776529016501  0.5052331842353228  1.0000
  O   O8        1.0  0.578824338802967  0.5217676462278362  0.36070631756259547  1.0000
  O   O9        1.0  0.34844365038616587  0.48765292998094617  0.3614411284738497  1.0000
  O   O10       1.0  0.2642007899532217  0.8938668743811533  0.5310130428499988  1.0000
