data_image0
_chemical_formula_structural       Zn2H16C8N8O16
_chemical_formula_sum              "Zn2 H16 C8 N8 O16"
_cell_length_a       7.420236744968604
_cell_length_b       8.583733244996456
_cell_length_c       8.58372942557589
_cell_angle_alpha    85.23718783826422
_cell_angle_beta     72.40674717537267
_cell_angle_gamma    72.40642944084101

_space_group_name_H-M_alt    "P 1"
_space_group_IT_number       1

loop_
  _space_group_symop_operation_xyz
  'x, y, z'

loop_
  _atom_site_type_symbol
  _atom_site_label
  _atom_site_symmetry_multiplicity
  _atom_site_fract_x
  _atom_site_fract_y
  _atom_site_fract_z
  _atom_site_occupancy
  Zn  Zn1       1.0  0.5000001241631225  0.4999979881749326  0.9999996459340607  1.0000
  Zn  Zn2       1.0  0.999999582342724  9.924213416004748e-07  0.49999926564586167  1.0000
  H   H1        1.0  0.5420370805620465  0.6914429810193212  0.6680402063499925  1.0000
  H   H2        1.0  0.957965530286387  0.3319651225032629  0.30855187446704957  1.0000
  H   H3        1.0  0.4579619437799779  0.30855325308388615  0.3319603120520681  1.0000
  H   H4        1.0  0.04203216775653113  0.6680347696040415  0.6914474977131773  1.0000
  H   H5        1.0  0.7499907844192607  0.624870994575602  0.37514067855166633  1.0000
  H   H6        1.0  0.25001072665399704  0.3751301674267467  0.6248610549732517  1.0000
  H   H7        1.0  0.7499994919274543  0.2067400554109184  0.793265192240618  1.0000
  H   H8        1.0  0.2500019277946278  0.7932574326758941  0.2067369022030476  1.0000
  H   H9        1.0  0.5254346387821228  0.8070353585536837  0.9090213768478461  1.0000
  H   H10       1.0  0.9745660018984097  0.0909790716153935  0.19296572431758097  1.0000
  H   H11       1.0  0.4745658814861784  0.1929645484204059  0.09097724088222485  1.0000
  H   H12       1.0  0.025434958290397026  0.9090196131979837  0.8070328879770512  1.0000
  H   H13       1.0  0.7017072870015681  0.732018082018449  0.986781373669359  1.0000
  H   H14       1.0  0.7982943846837429  0.0132175105573538  0.2679823177516383  1.0000
  H   H15       1.0  0.2982908509618554  0.26798058792813606  0.013217993075428999  1.0000
  H   H16       1.0  0.20170614212214835  0.9867824048947895  0.7320174625065972  1.0000
  C   C1        1.0  0.6358129310567974  0.5682338460375435  0.6296053408575729  1.0000
  C   C2        1.0  0.8641700507589647  0.37039963041836194  0.43176852720362285  1.0000
  C   C3        1.0  0.3641841025353899  0.43177588061250566  0.3703991329968303  1.0000
  C   C4        1.0  0.13583197197319655  0.6296039579046565  0.5682293523826302  1.0000
  C   C5        1.0  0.7499982292090479  0.5313377771915101  0.46865270689038846  1.0000
  C   C6        1.0  0.2500065374725081  0.4686621690388649  0.5313471042207778  1.0000
  C   C7        1.0  0.7499992673029184  0.30016856299018013  0.6998377222639433  1.0000
  C   C8        1.0  0.25000038619954507  0.6998338052614343  0.3001632313933341  1.0000
  N   N1        1.0  0.05977760701107115  0.6746072615605101  0.007465508360148524  1.0000
  N   N2        1.0  0.4402224925384105  0.9925328123659796  0.3253934338383145  1.0000
  N   N3        1.0  0.9402219486026341  0.32539142429752127  0.9925346436877187  1.0000
  N   N4        1.0  0.5597794453801725  0.007467110519556301  0.6746059691948431  1.0000
  N   N5        1.0  0.6376542597816268  0.45246515099783835  0.7454400115313361  1.0000
  N   N6        1.0  0.8623533913709807  0.25456118468260064  0.5475336526841446  1.0000
  N   N7        1.0  0.3623475933233706  0.5475311064502079  0.25456091494872607  1.0000
  N   N8        1.0  0.13764617078031446  0.7454375096534777  0.4524676618918874  1.0000
  O   O1        1.0  0.24115661223208923  0.661888855399127  0.9308522097854705  1.0000
  O   O2        1.0  0.2588424653313838  0.0691475797814292  0.33811141578575377  1.0000
  O   O3        1.0  0.7588439145738023  0.33811106005301644  0.06914757047276507  1.0000
  O   O4        1.0  0.7411580614745078  0.9308523356707071  0.6618883644724817  1.0000
  O   O5        1.0  0.012061442175102917  0.5931483880058082  0.13121082421771035  1.0000
  O   O6        1.0  0.48793465588256174  0.868789087284519  0.4068519546915038  1.0000
  O   O7        1.0  0.9879390780931986  0.40685151896828126  0.868787793512368  1.0000
  O   O8        1.0  0.512066310843835  0.13120960600690523  0.5931478201312854  1.0000
  O   O9        1.0  0.9288422711389688  0.775222278478836  0.9507035242590189  1.0000
  O   O10       1.0  0.5711570420843303  0.04929547911549291  0.2247784453084306  1.0000
  O   O11       1.0  0.07115684455423117  0.22477762953990782  0.04929663322429429  1.0000
  O   O12       1.0  0.428843484721554  0.9507044363366502  0.7752213349498048  1.0000
  O   O13       1.0  0.5693214017692867  0.7258643349254897  0.9895430167075288  1.0000
  O   O14       1.0  0.9306818575238369  0.0104594478290707  0.2741371889951267  1.0000
  O   O15       1.0  0.43067673619413677  0.2741343350210954  0.010456350037252107  1.0000
  O   O16       1.0  0.06932008039474612  0.9895404750564654  0.7258622140380309  1.0000
