data_image0
_chemical_formula_structural       Cu12H72C96N36
_chemical_formula_sum              "Cu12 H72 C96 N36"
_cell_length_a       32.759286130421714
_cell_length_b       33.45457086801209
_cell_length_c       34.84141286905464
_cell_angle_alpha    90.99651634032595
_cell_angle_beta     92.35636395366788
_cell_angle_gamma    91.07552170155819

_space_group_name_H-M_alt    "P 1"
_space_group_IT_number       1

loop_
  _space_group_symop_operation_xyz
  'x, y, z'

loop_
  _atom_site_type_symbol
  _atom_site_label
  _atom_site_symmetry_multiplicity
  _atom_site_fract_x
  _atom_site_fract_y
  _atom_site_fract_z
  _atom_site_occupancy
  Cu  Cu1       1.0  0.8775035931357992  0.09549157482960878  0.14860800256428056  1.0000
  Cu  Cu2       1.0  0.8559732178304884  0.12024889411993198  0.06420071702712697  1.0000
  Cu  Cu3       1.0  0.9088101499528778  0.17904359671410217  0.12036729601128826  1.0000
  Cu  Cu4       1.0  0.1163432500241228  0.412804566141723  0.6553348316354641  1.0000
  Cu  Cu5       1.0  0.1481384512998503  0.3762764348853195  0.5779052002490059  1.0000
  Cu  Cu6       1.0  0.07026754110011518  0.3374692812479337  0.6169159663650772  1.0000
  Cu  Cu7       1.0  0.37925595699892517  0.9058370221373192  0.3491770081392928  1.0000
  Cu  Cu8       1.0  0.34872946764114937  0.8699291451710847  0.4265802004469349  1.0000
  Cu  Cu9       1.0  0.4197351898348031  0.8274386700126966  0.38227632467796707  1.0000
  Cu  Cu10      1.0  0.6226992684803961  0.5868298427733123  0.8541232060418407  1.0000
  Cu  Cu11      1.0  0.6656081799549797  0.6294709798373788  0.9273950566720541  1.0000
  Cu  Cu12      1.0  0.5824341181785684  0.6631976467450541  0.890077527007001  1.0000
  H   H1        1.0  0.8095837940187636  0.027140372514665494  0.15917305028728623  1.0000
  H   H2        1.0  0.7952502190979589  0.048329587553901376  0.03699409989273052  1.0000
  H   H3        1.0  0.9782080078459217  0.20019791258684444  0.18519494431025404  1.0000
  H   H4        1.0  0.9420634855929251  0.08026746012654228  0.21670634004249215  1.0000
  H   H5        1.0  0.8556033792757773  0.1704275247705737  0.9878744631721258  1.0000
  H   H6        1.0  0.9080808778697219  0.2576873160725555  0.0700265306995789  1.0000
  H   H7        1.0  0.18131689314085972  0.48313669264342707  0.6714794252633779  1.0000
  H   H8        1.0  0.2209838401300175  0.43757712117704967  0.5621869615717043  1.0000
  H   H9        1.0  0.0034951884632547976  0.32009579838124563  0.678902676120664  1.0000
  H   H10       1.0  0.0623653250503438  0.42762097601665505  0.7275465748811667  1.0000
  H   H11       1.0  0.1557607065748101  0.31685879185822324  0.5068519328456984  1.0000
  H   H12       1.0  0.0438826402240409  0.27157401811588494  0.5538057727582525  1.0000
  H   H13       1.0  0.3201601857787324  0.9794740456545481  0.33972682015225775  1.0000
  H   H14       1.0  0.2918481311699708  0.9407718108004058  0.4538367196077643  1.0000
  H   H15       1.0  0.48967913730130874  0.8144582562973424  0.3224008322020565  1.0000
  H   H16       1.0  0.43483309650952856  0.9224475612199395  0.2789465610225149  1.0000
  H   H17       1.0  0.332379328974227  0.8061227287525624  0.4906581120880132  1.0000
  H   H18       1.0  0.434144624307784  0.752044932011465  0.4350040810698984  1.0000
  H   H19       1.0  0.6862702993086386  0.5198635742467912  0.8367758924262672  1.0000
  H   H20       1.0  0.7457954615134882  0.5767865493523984  0.937412413585143  1.0000
  H   H21       1.0  0.5116241386431499  0.6782999367701661  0.8261635813276411  1.0000
  H   H22       1.0  0.5598375069460245  0.5664661921826947  0.7848381534310815  1.0000
  H   H23       1.0  0.679045418606485  0.6890401359680564  0.9987653754332084  1.0000
  H   H24       1.0  0.5635939955016838  0.730820838238685  0.9510795421776305  1.0000
  H   H25       1.0  0.701626110360941  0.9322426515248948  0.08863167730488898  1.0000
  H   H26       1.0  0.737110400008696  0.9948743456801667  0.14923153541578665  1.0000
  H   H27       1.0  0.6756874956127774  0.9566004004468026  0.16981380484177314  1.0000
  H   H28       1.0  0.7526574144923827  0.9794296994191067  0.06365702894191826  1.0000
  H   H29       1.0  0.30263936799936897  0.567462792376389  0.5647219103023458  1.0000
  H   H30       1.0  0.2581964344470363  0.5067236239340429  0.5590184566685819  1.0000
  H   H31       1.0  0.3238407134947678  0.5381201247992776  0.6462671068504091  1.0000
  H   H32       1.0  0.25233648908909606  0.5198718131743617  0.6461283454073479  1.0000
  H   H33       1.0  0.2199584507933068  0.07417395947692998  0.40633922190562527  1.0000
  H   H34       1.0  0.24885850773715398  0.013533895579840296  0.3444209303674554  1.0000
  H   H35       1.0  0.19117994852113185  0.05602628461560498  0.322263454357383  1.0000
  H   H36       1.0  0.26307750348625814  0.019138678569113696  0.43232373438710414  1.0000
  H   H37       1.0  0.8176726782483144  0.4528011432699656  0.8214528300955448  1.0000
  H   H38       1.0  0.7555986440407736  0.4923538041794726  0.8254017909382012  1.0000
  H   H39       1.0  0.8090733457459579  0.4390086214793811  0.9078856727689695  1.0000
  H   H40       1.0  0.7846734745018935  0.5073895152408099  0.9095280715394193  1.0000
  H   H41       1.0  0.07952160909977832  0.08005386623520389  0.28303167076165886  1.0000
  H   H42       1.0  0.015104123158664601  0.07738287922783367  0.24407225575507135  1.0000
  H   H43       1.0  0.0493188528960289  0.1599908652318049  0.31526264892963946  1.0000
  H   H44       1.0  0.02202123315503  0.16906057469483926  0.2500630837607431  1.0000
  H   H45       1.0  0.43020200102846945  0.5610520945337926  0.7033312768565094  1.0000
  H   H46       1.0  0.4897981084516019  0.559088311720778  0.7492903781897052  1.0000
  H   H47       1.0  0.4629044430670817  0.6451266555771438  0.6848641882498611  1.0000
  H   H48       1.0  0.477320133983696  0.6498370421578058  0.754309990933869  1.0000
  H   H49       1.0  0.9428825796329222  0.3165263391441257  0.810539746751189  1.0000
  H   H50       1.0  0.9769155615271004  0.3126382375774595  0.7481294526973695  1.0000
  H   H51       1.0  0.9218294288945119  0.40203800941844037  0.786345990485884  1.0000
  H   H52       1.0  0.9924665187393488  0.40221895405606733  0.7649423327942839  1.0000
  H   H53       1.0  0.5648561918612672  0.9330415886002895  0.20845497061692694  1.0000
  H   H54       1.0  0.503665885777167  0.9326476290521482  0.24809798497459915  1.0000
  H   H55       1.0  0.5361300029875125  0.8478539248427734  0.18409532016499233  1.0000
  H   H56       1.0  0.522112867050936  0.8431458056441129  0.2534785839682526  1.0000
  H   H57       1.0  0.8621680776547437  0.3542864875398377  0.9685212275139318  1.0000
  H   H58       1.0  0.8790485122236831  0.308627469637173  0.021387024920173296  1.0000
  H   H59       1.0  0.9067955860641562  0.2950824327318954  0.9170513764105191  1.0000
  H   H60       1.0  0.8750500709883868  0.244857888861631  0.9567153490841274  1.0000
  H   H61       1.0  0.32297654960903094  0.6708238493314411  0.5523761497808548  1.0000
  H   H62       1.0  0.3210923121882631  0.7338230925612661  0.5158969655638684  1.0000
  H   H63       1.0  0.41245952743441444  0.6957450972312882  0.5718933943255562  1.0000
  H   H64       1.0  0.41114613256537774  0.7150167459399553  0.5036347364829296  1.0000
  H   H65       1.0  0.5589990883120849  0.8032491113890431  0.07846150261725879  1.0000
  H   H66       1.0  0.5567513512312986  0.7627374619317491  0.0182969956424444  1.0000
  H   H67       1.0  0.6460992937371302  0.8270166122833941  0.05646706162681878  1.0000
  H   H68       1.0  0.6491487695959678  0.7570321938803202  0.035924059828715785  1.0000
  H   H69       1.0  0.0868895420300007  0.20270963571193326  0.4231525343067445  1.0000
  H   H70       1.0  0.1556052564273713  0.2444497533928639  0.47504488279622575  1.0000
  H   H71       1.0  0.1796158711550504  0.18883009116947136  0.4325203450098981  1.0000
  H   H72       1.0  0.061764935292288214  0.24173252123700448  0.47837061987798524  1.0000
  C   C1        1.0  0.35467139390596714  0.5892745309836441  0.6228990331645006  1.0000
  C   C2        1.0  0.3835956762827379  0.6454908720721305  0.5988742388290687  1.0000
  C   C3        1.0  0.41160854441013583  0.6175337208702129  0.65286134133418  1.0000
  C   C4        1.0  0.6449574992939375  0.9083167417089797  0.13758460466247865  1.0000
  C   C5        1.0  0.6173283624828726  0.8538959646726025  0.10512199162079126  1.0000
  C   C6        1.0  0.5874283352047772  0.8777640107331164  0.15861400482965848  1.0000
  C   C7        1.0  0.8528899191694493  0.4075671027548608  0.8745056820286545  1.0000
  C   C8        1.0  0.8991152069777257  0.37605794182683633  0.8379762710222065  1.0000
  C   C9        1.0  0.8837202439710623  0.3513200569900475  0.8962963079262632  1.0000
  C   C10       1.0  0.1647673371067313  0.10353914127041716  0.3553719939507686  1.0000
  C   C11       1.0  0.14203605458610016  0.15712731241696076  0.3889490880537706  1.0000
  C   C12       1.0  0.1050131306912476  0.13268348431365237  0.3366293511360751  1.0000
  C   C13       1.0  0.810551760814235  0.0378329309677028  0.12998026991718348  1.0000
  C   C14       1.0  0.7887824098971238  0.0239919946587079  0.09647490506370808  1.0000
  C   C15       1.0  0.8039603221137527  0.04811598864864661  0.0673835829863734  1.0000
  C   C16       1.0  0.9639177905819738  0.17095850894485656  0.18828586811108747  1.0000
  C   C17       1.0  0.9748045744856456  0.1401138055984745  0.2134774266598568  1.0000
  C   C18       1.0  0.9459280218785368  0.10941993382282787  0.20401399770152295  1.0000
  C   C19       1.0  0.8687547011420308  0.18682058026161735  0.012699194327460406  1.0000
  C   C20       1.0  0.8812061001815226  0.2272622858993784  0.0160152151099098  1.0000
  C   C21       1.0  0.8948818994731766  0.23166514419401807  0.05478003977029999  1.0000
  C   C22       1.0  0.1858642400329913  0.46702508560694156  0.6447315456030365  1.0000
  C   C23       1.0  0.21496465188460687  0.4740777172090417  0.616875302142567  1.0000
  C   C24       1.0  0.2058728934920069  0.44416193643296953  0.5886515737776319  1.0000
  C   C25       1.0  0.022691389343137303  0.34617884445736985  0.6860865316350837  1.0000
  C   C26       1.0  0.0209059503965108  0.37357622914468885  0.7171326853591109  1.0000
  C   C27       1.0  0.052446271610975315  0.4014607208713412  0.710543705061127  1.0000
  C   C28       1.0  0.12953000473359566  0.3099972434024636  0.5237871446447142  1.0000
  C   C29       1.0  0.09797572655141101  0.2812921989191394  0.5168091150642482  1.0000
  C   C30       1.0  0.0718585653751518  0.28751138827602307  0.547316071064408  1.0000
  C   C31       1.0  0.3169079528999604  0.9641194530981132  0.3666530131414375  1.0000
  C   C32       1.0  0.29418839227153626  0.9747728316101738  0.39859206872291236  1.0000
  C   C33       1.0  0.30322802849321573  0.9448230337579203  0.4253171544718055  1.0000
  C   C34       1.0  0.4713948400523266  0.8405558209884915  0.31654611907332947  1.0000
  C   C35       1.0  0.4754943915375876  0.8692796919036637  0.2878360473097884  1.0000
  C   C36       1.0  0.4438074762273985  0.8960605908921266  0.29463918928782806  1.0000
  C   C37       1.0  0.3569724120074653  0.7977699076362865  0.47236525144261055  1.0000
  C   C38       1.0  0.3828361865340071  0.7646289838887481  0.47450445504224326  1.0000
  C   C39       1.0  0.4093970144300912  0.770559174087701  0.444274535133715  1.0000
  C   C40       1.0  0.6957597745979527  0.5385212653740367  0.8614472372206803  1.0000
  C   C41       1.0  0.7309868802852934  0.536461118491516  0.8858870702550943  1.0000
  C   C42       1.0  0.7258177450650153  0.5672899121709346  0.9131887248651648  1.0000
  C   C43       1.0  0.5283697531619111  0.6511182114408383  0.8211515005499164  1.0000
  C   C44       1.0  0.5221220980708949  0.6217862919786368  0.7919166955110837  1.0000
  C   C45       1.0  0.5525286555785057  0.5936517833264005  0.8003210818275475  1.0000
  C   C46       1.0  0.6510780505274171  0.6945258280421028  0.9820530647209647  1.0000
  C   C47       1.0  0.6206366520163088  0.7226683222491771  0.9886984997995536  1.0000
  C   C48       1.0  0.591814922413441  0.7155674977229719  0.9580755905874053  1.0000
  C   C49       1.0  0.676116695233297  0.939701223311516  0.14273259888941672  1.0000
  C   C50       1.0  0.7033965782213089  0.9491111029213924  0.11586656081306758  1.0000
  C   C51       1.0  0.733874377579177  0.9801863301072515  0.12090006888461595  1.0000
  C   C52       1.0  0.7577218090580686  0.992922654404893  0.09234085683461046  1.0000
  C   C53       1.0  0.32386747363320006  0.5572060521111268  0.6211646318772492  1.0000
  C   C54       1.0  0.29838364494501957  0.5493789274990133  0.5901725553739892  1.0000
  C   C55       1.0  0.2668474318657347  0.518545727616356  0.5877499803141787  1.0000
  C   C56       1.0  0.24612752956235082  0.5051744546321472  0.6181306623218886  1.0000
  C   C57       1.0  0.19362507292767367  0.07155179440550087  0.35012845549641  1.0000
  C   C58       1.0  0.21996579166813046  0.058971111777708494  0.3782641354272726  1.0000
  C   C59       1.0  0.24663419028152586  0.02592111147218649  0.3735539954289492  1.0000
  C   C60       1.0  0.26741147265289567  0.008212254849759397  0.40300730154421405  1.0000
  C   C61       1.0  0.8215880061716446  0.4374046970540634  0.8793491902176027  1.0000
  C   C62       1.0  0.8057642317329866  0.45887093850405586  0.849810488538665  1.0000
  C   C63       1.0  0.7734632056502309  0.4874513131871794  0.852086502969257  1.0000
  C   C64       1.0  0.7646244144296548  0.5093954030202569  0.8837537212721213  1.0000
  C   C65       1.0  0.06914820811449832  0.13463274816986365  0.310663693546786  1.0000
  C   C66       1.0  0.05972866340566441  0.10603182897735758  0.28350381060562296  1.0000
  C   C67       1.0  0.025896997733809705  0.10647460113799667  0.25571028230321957  1.0000
  C   C68       1.0  0.0086103289379196  0.13994464302645326  0.24132730487520593  1.0000
  C   C69       1.0  0.4430208422364218  0.6185469270518097  0.6837137367520468  1.0000
  C   C70       1.0  0.4490007734320258  0.588150037012049  0.7084533058586684  1.0000
  C   C71       1.0  0.4786224703860071  0.5882490098717028  0.7402924544349501  1.0000
  C   C72       1.0  0.4916015960353592  0.6212984476331298  0.7608440317935814  1.0000
  C   C73       1.0  0.9234296903011838  0.3753106326102865  0.8038624987536591  1.0000
  C   C74       1.0  0.9456933422123798  0.3434515011208815  0.7933819436701836  1.0000
  C   C75       1.0  0.9723778247773043  0.3420145753123691  0.7614247838039743  1.0000
  C   C76       1.0  0.994017213686405  0.3739066933025583  0.7489055453058879  1.0000
  C   C77       1.0  0.555007536558364  0.8751149043460059  0.18594407296394874  1.0000
  C   C78       1.0  0.5470412334462297  0.9052630396907799  0.21088746042544665  1.0000
  C   C79       1.0  0.5167937235931673  0.9040667791903515  0.2398349710444733  1.0000
  C   C80       1.0  0.5058184264312614  0.8707878421509176  0.2589817959279585  1.0000
  C   C81       1.0  0.8895525808349234  0.3211613032794458  0.9255827031649343  1.0000
  C   C82       1.0  0.8762136938943714  0.3257545175256736  0.961697304524868  1.0000
  C   C83       1.0  0.8791368157823527  0.2968538134898466  0.9918873740958104  1.0000
  C   C84       1.0  0.8789550528388332  0.2565884458614605  0.9861826247600045  1.0000
  C   C85       1.0  0.384262488140692  0.6777984322866998  0.5713136307672  1.0000
  C   C86       1.0  0.3514577886095864  0.6876945415466905  0.5487053745594322  1.0000
  C   C87       1.0  0.35059727525415235  0.7196952435912747  0.5213462566206459  1.0000
  C   C88       1.0  0.3828770130878141  0.7318619785686947  0.5009552079823292  1.0000
  C   C89       1.0  0.6185273969755373  0.8255117930026542  0.0729952747729001  1.0000
  C   C90       1.0  0.5869175454403219  0.8003611755477775  0.06251113134042188  1.0000
  C   C91       1.0  0.5866327881543043  0.7709220313030015  0.031679665185293984  1.0000
  C   C92       1.0  0.6200928942508528  0.7515253264045396  0.01990530856991769  1.0000
  C   C93       1.0  0.148446895679875  0.1863164279634404  0.4202047625373806  1.0000
  C   C94       1.0  0.1180044909666336  0.20786484274070463  0.4351281553390435  1.0000
  C   C95       1.0  0.12402075318858859  0.2362350602010963  0.46626139979062486  1.0000
  C   C96       1.0  0.09300807611401751  0.25215798285385915  0.4858460650383447  1.0000
  N   N1        1.0  0.35348217249624975  0.6175229845958653  0.5956760491942317  1.0000
  N   N2        1.0  0.4137402823799477  0.6466755294239234  0.6266377609951872  1.0000
  N   N3        1.0  0.3827033326044075  0.5881828695374197  0.6523167133133824  1.0000
  N   N4        1.0  0.6471269315412301  0.8822151966527084  0.10764009047155546  1.0000
  N   N5        1.0  0.5869040932824916  0.8501059000623241  0.13005232155196464  1.0000
  N   N6        1.0  0.6158926280043178  0.9073877819235744  0.16379751868507236  1.0000
  N   N7        1.0  0.8733346123649924  0.40666586675649796  0.841517059492254  1.0000
  N   N8        1.0  0.9041038518834128  0.3465873914828704  0.8638057733559347  1.0000
  N   N9        1.0  0.8584758506771166  0.381888703151695  0.9034673634492518  1.0000
  N   N10       1.0  0.17127172169178811  0.12970780903871315  0.38512816883891776  1.0000
  N   N11       1.0  0.1078360554647944  0.15945795433663787  0.366014102789343  1.0000
  N   N12       1.0  0.13301525022738053  0.1045441113913483  0.3296616018145712  1.0000
  N   N13       1.0  0.8320652452908207  0.07442757576939837  0.0824533463787347  1.0000
  N   N14       1.0  0.8364387894008445  0.067715338745252  0.12129354217682217  1.0000
  N   N15       1.0  0.9202666258305998  0.12113490293127427  0.17544786249187175  1.0000
  N   N16       1.0  0.9315684488988509  0.1593128822986145  0.16540173237945058  1.0000
  N   N17       1.0  0.8906711521452094  0.1966885655619491  0.07284805232535517  1.0000
  N   N18       1.0  0.8741656916219827  0.16882228486822726  0.046731101676542194  1.0000
  N   N19       1.0  0.17396001082870072  0.4214532582215184  0.5990395906741384  1.0000
  N   N20       1.0  0.16132613320102254  0.4358202155618612  0.6337922751039  1.0000
  N   N21       1.0  0.0716065990161496  0.39125167947773315  0.6784847265285945  1.0000
  N   N22       1.0  0.05291203158036241  0.357036290011635  0.6631539002785158  1.0000
  N   N23       1.0  0.0869485531721921  0.31715163194141377  0.570730557272803  1.0000
  N   N24       1.0  0.12256020395292919  0.3314262433960734  0.5558379300115064  1.0000
  N   N25       1.0  0.32878025797119653  0.9182468340265257  0.4102388399542887  1.0000
  N   N26       1.0  0.3376616294112722  0.9305574975469635  0.3739538876428198  1.0000
  N   N27       1.0  0.42285248372689205  0.8841642269979885  0.3249537924901488  1.0000
  N   N28       1.0  0.4401273847287044  0.8497922095389895  0.3387940628386942  1.0000
  N   N29       1.0  0.3998110226362997  0.8041875408070068  0.42552189063424334  1.0000
  N   N30       1.0  0.3674019436731584  0.8212485085265938  0.44321033844496316  1.0000
  N   N31       1.0  0.6906435585273342  0.5863063140276947  0.9053281131983791  1.0000
  N   N32       1.0  0.6719094005622707  0.5682076379952219  0.8732749540377396  1.0000
  N   N33       1.0  0.5748042835920727  0.6053858086806797  0.8319545869526619  1.0000
  N   N34       1.0  0.5596254052207713  0.6409827775842558  0.8451268149387939  1.0000
  N   N35       1.0  0.6042415397573111  0.6856426746850344  0.93531812533795  1.0000
  N   N36       1.0  0.6410053835074976  0.6723572764069343  0.950333378817184  1.0000
