data_image0
_chemical_formula_structural       Cu4H40C40N16O16
_chemical_formula_sum              "Cu4 H40 C40 N16 O16"
_cell_length_a       7.455947443222157
_cell_length_b       11.34466137873918
_cell_length_c       13.766519264709741
_cell_angle_alpha    89.99892494844691
_cell_angle_beta     90.00049542420668
_cell_angle_gamma    89.99927735141183

_space_group_name_H-M_alt    "P 1"
_space_group_IT_number       1

loop_
  _space_group_symop_operation_xyz
  'x, y, z'

loop_
  _atom_site_type_symbol
  _atom_site_label
  _atom_site_symmetry_multiplicity
  _atom_site_fract_x
  _atom_site_fract_y
  _atom_site_fract_z
  _atom_site_occupancy
  Cu  Cu1       1.0  7.192372258699996e-06  0.5000022750275976  0.5000019079979126  1.0000
  Cu  Cu2       1.0  0.9999907990444186  0.999999237545133  1.7892526003000008e-06  1.0000
  Cu  Cu3       1.0  0.4999920464522205  0.5000040261459447  8.945836639999991e-07  1.0000
  Cu  Cu4       1.0  0.5000032625077253  0.9999957235673878  0.4999962650740386  1.0000
  H   H1        1.0  0.71195013113595  0.7026973393197552  0.7321057087595265  1.0000
  H   H2        1.0  0.28805015567229464  0.7972998581287739  0.23209157860590318  1.0000
  H   H3        1.0  0.2119494149036072  0.29729688214576566  0.7678938000391042  1.0000
  H   H4        1.0  0.7880462234434161  0.2026969908487999  0.26790097571865357  1.0000
  H   H5        1.0  0.2880431372528136  0.2973012809590899  0.2679004923670405  1.0000
  H   H6        1.0  0.7119310416845438  0.20269523654867078  0.7678935569187219  1.0000
  H   H7        1.0  0.7880559243260593  0.7027026196278499  0.23210586350905524  1.0000
  H   H8        1.0  0.2119483860607616  0.7973086812401607  0.7321015933555302  1.0000
  H   H9        1.0  0.7372833641700113  0.5622490498192292  0.7879154609568104  1.0000
  H   H10       1.0  0.26275266861735247  0.937746897867477  0.2879055398426615  1.0000
  H   H11       1.0  0.23726702171754246  0.43774319770142284  0.7120790838661935  1.0000
  H   H12       1.0  0.7627572487242065  0.0622536877955184  0.2120861673969827  1.0000
  H   H13       1.0  0.2627219750757419  0.437743400252522  0.21207766504650755  1.0000
  H   H14       1.0  0.7372540118284333  0.06224731513431441  0.71208831255003  1.0000
  H   H15       1.0  0.7627423411169331  0.5622545411767206  0.2879147685051819  1.0000
  H   H16       1.0  0.2372574788173836  0.9377572731547376  0.7879062320832021  1.0000
  H   H17       1.0  0.8213718361380842  0.8759536669290146  0.8144594849222457  1.0000
  H   H18       1.0  0.17862839979272851  0.6240487383580985  0.3144504618998383  1.0000
  H   H19       1.0  0.3213811839332693  0.12404316843019107  0.6855449042509818  1.0000
  H   H20       1.0  0.6786225525248  0.37595078549914984  0.1855393912278203  1.0000
  H   H21       1.0  0.17861472623440727  0.12404319040147985  0.185549621802295  1.0000
  H   H22       1.0  0.8213729157690394  0.3759490005617111  0.6855426640523063  1.0000
  H   H23       1.0  0.6786322026705636  0.8759492814779152  0.3144598441719992  1.0000
  H   H24       1.0  0.32137339810295623  0.6240592940086814  0.8144573666146827  1.0000
  H   H25       1.0  0.12267129631803188  0.7296796386124529  0.04556308405614119  1.0000
  H   H26       1.0  0.8773461858757655  0.7703243796943584  0.5455602329263699  1.0000
  H   H27       1.0  0.6226649724146397  0.27031506260672705  0.4544395773783947  1.0000
  H   H28       1.0  0.3773174942463982  0.22967639671767873  0.9544429703378015  1.0000
  H   H29       1.0  0.8773273369512964  0.2703110484540332  0.9544380323453653  1.0000
  H   H30       1.0  0.12267658915330769  0.2296760033890309  0.454447421056777  1.0000
  H   H31       1.0  0.3773269547476091  0.7296756245608833  0.5455550014068535  1.0000
  H   H32       1.0  0.6226569971216306  0.7703301568700671  0.045564683481671905  1.0000
  H   H33       1.0  0.0153708917316848  0.5508839949475118  0.920396118613411  1.0000
  H   H34       1.0  0.9846551457776866  0.9491204457690686  0.4203807456693768  1.0000
  H   H35       1.0  0.5153780826405807  0.4491101017038732  0.5796111692695618  1.0000
  H   H36       1.0  0.4846360650370443  0.05088005358749832  0.07961637844919521  1.0000
  H   H37       1.0  0.9846277415015121  0.4491128623896116  0.07960790333971351  1.0000
  H   H38       1.0  0.015363605558000901  0.050879055956791305  0.5796181915107468  1.0000
  H   H39       1.0  0.48462591540538114  0.550882348357206  0.420383409530615  1.0000
  H   H40       1.0  0.5153679329171155  0.9491273814223645  0.9203847378334659  1.0000
  C   C1        1.0  0.9387521809300664  0.6027512702382509  0.6816215068227579  1.0000
  C   C2        1.0  0.06126877407886161  0.8972682127257489  0.1816119875113102  1.0000
  C   C3        1.0  0.43872888846307495  0.39725869056977825  0.818384168505311  1.0000
  C   C4        1.0  0.5612742470371828  0.10272611880510854  0.3183802114472982  1.0000
  C   C5        1.0  0.061255840607380194  0.3972632165055003  0.3183817886141682  1.0000
  C   C6        1.0  0.9387244941973164  0.10273922231256451  0.8183905815458205  1.0000
  C   C7        1.0  0.5612670622631556  0.6027434556585973  0.1816154949996687  1.0000
  C   C8        1.0  0.4387310921999088  0.8972654498191588  0.6816107353628524  1.0000
  C   C9        1.0  0.8101007942953445  0.6407582048410917  0.7625534869334345  1.0000
  C   C10       1.0  0.18991069922915926  0.8592453625853481  0.2625422732849643  1.0000
  C   C11       1.0  0.31009439506356534  0.35924048747482823  0.7374493956216812  1.0000
  C   C12       1.0  0.6899088135186489  0.14075230422980672  0.23745271848655142  1.0000
  C   C13       1.0  0.18990186252930394  0.3592430598386684  0.2374505349946432  1.0000
  C   C14       1.0  0.8100825690631056  0.14075502075110083  0.7374537582273247  1.0000
  C   C15       1.0  0.6899109441433424  0.6407590143313088  0.2625473623263588  1.0000
  C   C16       1.0  0.3100925020126795  0.8592516049524977  0.7625440394172431  1.0000
  C   C17       1.0  0.893277793351764  0.8151850572474187  0.8609163215498159  1.0000
  C   C18       1.0  0.1067258529122981  0.6848180707867044  0.3609096322529695  1.0000
  C   C19       1.0  0.3932839121026106  0.1848111788724155  0.6390884106311816  1.0000
  C   C20       1.0  0.6067177553098447  0.3151794078154922  0.1390864154911782  1.0000
  C   C21       1.0  0.10671413385452413  0.18481532591572158  0.1390956907599232  1.0000
  C   C22       1.0  0.8932714390337679  0.3151849568835702  0.639092210448368  1.0000
  C   C23       1.0  0.6067308156104545  0.8151847970152063  0.3609076209669341  1.0000
  C   C24       1.0  0.39327551298315916  0.6848262642790531  0.860916153579808  1.0000
  C   C25       1.0  0.04123218992992149  0.734063647959765  0.9805740773755858  1.0000
  C   C26       1.0  0.958788084413257  0.7659420898049943  0.4805607341773737  1.0000
  C   C27       1.0  0.5412352283490164  0.26593375910501754  0.5194304282366886  1.0000
  C   C28       1.0  0.4587618818200312  0.23405862519388884  0.0194326345295224  1.0000
  C   C29       1.0  0.9587664433319745  0.2659349722560621  0.019435755763915104  1.0000
  C   C30       1.0  0.041236031744603  0.2340591748504012  0.5194374766016524  1.0000
  C   C31       1.0  0.45876876969966673  0.734057809492313  0.4805634241703842  1.0000
  C   C32       1.0  0.5412273628508473  0.7659470469011609  0.9805713873319277  1.0000
  C   C33       1.0  0.9888733644519832  0.6447320220535959  0.9195463620801833  1.0000
  C   C34       1.0  0.011137906474935701  0.8552724376719641  0.41953799009841225  1.0000
  C   C35       1.0  0.48887933466669864  0.35526165442040286  0.5804610053372556  1.0000
  C   C36       1.0  0.5111294614203742  0.14473024487331546  0.08046050722391129  1.0000
  C   C37       1.0  0.011121245215001399  0.35525778352524634  0.0804576599187712  1.0000
  C   C38       1.0  0.988870115129572  0.14473323437736954  0.5804631262077109  1.0000
  C   C39       1.0  0.5111260046386831  0.6447299141062858  0.4195386582732539  1.0000
  C   C40       1.0  0.4888691717116274  0.8552754272070118  0.9195413354598401  1.0000
  N   N1        1.0  0.8959960790361662  0.6978066708308718  0.8445267603452252  1.0000
  N   N2        1.0  0.10401669884351608  0.8021994685921569  0.3445153073225811  1.0000
  N   N3        1.0  0.39600423771097576  0.30219130555420304  0.6554794375939752  1.0000
  N   N4        1.0  0.6040057337578374  0.19780155853596432  0.15547636906326548  1.0000
  N   N5        1.0  0.10398914209918078  0.3021875421627628  0.15547580879663775  1.0000
  N   N6        1.0  0.8959886403688344  0.19779827028648372  0.6554799978392509  1.0000
  N   N7        1.0  0.6040064664195413  0.697802907357641  0.3445209524085797  1.0000
  N   N8        1.0  0.39599021689812725  0.8022067580118417  0.8445218415931564  1.0000
  N   N9        1.0  0.980697000947849  0.8402563589334594  0.9431164867418147  1.0000
  N   N10       1.0  0.019307933261799803  0.6597458101272339  0.44310977455659645  1.0000
  N   N11       1.0  0.4807023103406535  0.15973738571632626  0.5568879360699412  1.0000
  N   N12       1.0  0.5192927042533171  0.3402559229273835  0.05688512973008391  1.0000
  N   N13       1.0  0.019289561440977793  0.15973520961454574  0.056888261624116906  1.0000
  N   N14       1.0  0.9807041120125888  0.3402554545540611  0.5568906153937263  1.0000
  N   N15       1.0  0.5192990053341832  0.8402550642827369  0.44311318032410435  1.0000
  N   N16       1.0  0.4806938579556216  0.6597515121551325  0.9431159865109963  1.0000
  O   O1        1.0  0.8516000807567679  0.5627265874501435  0.6075506025299758  1.0000
  O   O2        1.0  0.1484344670873767  0.937280450394603  0.1075357851102154  1.0000
  O   O3        1.0  0.3515651139504712  0.43728498119016734  0.8924546570186466  1.0000
  O   O4        1.0  0.6484338171846104  0.0627149176560948  0.3924590088295332  1.0000
  O   O5        1.0  0.1484173293739346  0.43727644011190153  0.3924534194194393  1.0000
  O   O6        1.0  0.8515480715662419  0.06271640707463892  0.8924624256042861  1.0000
  O   O7        1.0  0.6484268130633241  0.5627224539269167  0.10754137443501581  1.0000
  O   O8        1.0  0.3515674984528658  0.9372748880167807  0.6075341171849687  1.0000
  O   O9        1.0  0.10522296949346098  0.6096283659970042  0.6901248826362832  1.0000
  O   O10       1.0  0.8947981185407131  0.8904103189950519  0.1901121834385933  1.0000
  O   O11       1.0  0.6052013592138081  0.3903887816371707  0.8098886448156364  1.0000
  O   O12       1.0  0.39479359597216046  0.1095821145338149  0.3098757953355502  1.0000
  O   O13       1.0  0.8947863930866548  0.3904019872594022  0.309876233479045  1.0000
  O   O14       1.0  0.10518307881611831  0.10960504925916577  0.8098976495276915  1.0000
  O   O15       1.0  0.39479995641649157  0.6096107201044136  0.19011537712309942  1.0000
  O   O16       1.0  0.6052077196762082  0.8904041652840675  0.6901144251065504  1.0000
