data_image0
_chemical_formula_structural       Zn16H24C96S16O60F8
_chemical_formula_sum              "Zn16 H24 C96 S16 O60 F8"
_cell_length_a       19.677042067078617
_cell_length_b       19.7370011536592
_cell_length_c       33.403161441805736
_cell_angle_alpha    78.92889299180939
_cell_angle_beta     79.10384153615657
_cell_angle_gamma    63.90193398501107

_space_group_name_H-M_alt    "P 1"
_space_group_IT_number       1

loop_
  _space_group_symop_operation_xyz
  'x, y, z'

loop_
  _atom_site_type_symbol
  _atom_site_label
  _atom_site_symmetry_multiplicity
  _atom_site_fract_x
  _atom_site_fract_y
  _atom_site_fract_z
  _atom_site_occupancy
  Zn  Zn1       1.0  0.056323980578333994  0.4005499089955861  0.478509539910391  1.0000
  Zn  Zn2       1.0  0.9843638714963915  0.4834636430081647  0.5605418624578321  1.0000
  Zn  Zn3       1.0  0.058521730498576084  0.5614206200426182  0.4823218002393902  1.0000
  Zn  Zn4       1.0  0.9003718977439091  0.5551809372708622  0.4796321778288544  1.0000
  Zn  Zn5       1.0  0.6952106035601773  0.34959328509010146  0.2713247193258397  1.0000
  Zn  Zn6       1.0  0.6890765331599978  0.19024199667627076  0.2666171144586614  1.0000
  Zn  Zn7       1.0  0.7693333337736803  0.26618138051016166  0.18988921235010994  1.0000
  Zn  Zn8       1.0  0.8482334148503767  0.19412800692595078  0.27198393458943565  1.0000
  Zn  Zn9       1.0  0.2662230386812041  0.7665891989615974  0.6895389991632399  1.0000
  Zn  Zn10      1.0  0.34901210446291486  0.6958112666920327  0.7718771434735744  1.0000
  Zn  Zn11      1.0  0.19262474695638332  0.8479241115230918  0.771647243827168  1.0000
  Zn  Zn12      1.0  0.1914670007798378  0.6880959161729123  0.7676472964980546  1.0000
  Zn  Zn13      1.0  0.5607042288207325  0.06027203118519973  0.9835394185813084  1.0000
  Zn  Zn14      1.0  0.40096463200256943  0.05490600495252812  0.9778029464368174  1.0000
  Zn  Zn15      1.0  0.5556432770978077  0.9017994062450685  0.9786800342971842  1.0000
  Zn  Zn16      1.0  0.48303663790134266  0.9823560953207675  0.06006839825200672  1.0000
  H   H1        1.0  0.7488688901621713  0.4523336097931506  0.3504679553865059  1.0000
  H   H2        1.0  0.0015278334196651  0.2977414439352728  0.3997232212794302  1.0000
  H   H3        1.0  0.20074283856013864  0.7006050186936578  0.5987187602557144  1.0000
  H   H4        1.0  0.049723334925246804  0.5498813850110977  0.6509428759304752  1.0000
  H   H5        1.0  0.46255663368063427  0.24085566739539394  0.3412578346934724  1.0000
  H   H6        1.0  0.4797836885862594  0.7024120162631746  0.6012930550339135  1.0000
  H   H7        1.0  0.2022500399978213  0.9800682365297818  0.6015375316116548  1.0000
  H   H8        1.0  0.9480265244690784  0.9699037155905754  0.3481494119782838  1.0000
  H   H9        1.0  0.6512565121661211  0.15140857435934393  0.04953092704757008  1.0000
  H   H10       1.0  0.5987902722803184  0.09871165511024327  0.20052111605604483  1.0000
  H   H11       1.0  0.5479841859593718  0.7693297151785643  0.14853783426298867  1.0000
  H   H12       1.0  0.1622620363150489  0.14161908581741053  0.0405921274960761  1.0000
  H   H13       1.0  0.29773112925180095  0.001195760075141575  0.8995091878780244  1.0000
  H   H14       1.0  0.45143055848543406  0.7495152007733242  0.8503715740712038  1.0000
  H   H15       1.0  0.3010739675979437  0.2805361761382485  0.9018412962597535  1.0000
  H   H16       1.0  0.7876508445164205  0.009396186379134978  0.9086583474742438  1.0000
  H   H17       1.0  0.3255970122006672  0.5423523667846766  0.39840873360454754  1.0000
  H   H18       1.0  0.7564053567581437  0.5398228218401472  0.6844921262028549  1.0000
  H   H19       1.0  0.04029667876285709  0.25604829473343227  0.6840672474715249  1.0000
  H   H20       1.0  0.7429640415860064  0.8153361805660069  0.38808750725166863  1.0000
  H   H21       1.0  0.7102647934023311  0.49325864284676174  0.06580533275754159  1.0000
  H   H22       1.0  0.1482270018064469  0.07617125710624609  0.22077279739439598  1.0000
  H   H23       1.0  0.5073201440191966  0.4338058671787979  0.862157379972622  1.0000
  H   H24       1.0  0.9241022154902085  0.7074389893223271  0.8516230992850069  1.0000
  C   C1        1.0  0.06156253342908969  0.31645705755231296  0.5621523727535518  1.0000
  C   C2        1.0  0.0690926965873686  0.5700597542825109  0.5687789087176257  1.0000
  C   C3        1.0  0.18380477487308158  0.44048139192931757  0.43858246627866737  1.0000
  C   C4        1.0  0.9360761163126625  0.6842959321533326  0.43874615488436325  1.0000
  C   C5        1.0  0.9312229313043119  0.4303309044153708  0.4313606100537298  1.0000
  C   C6        1.0  0.8167612614714983  0.5608621568644093  0.5626499910014999  1.0000
  C   C7        1.0  0.5658546429396552  0.31125574772888603  0.3112193148580572  1.0000
  C   C8        1.0  0.6814418547843105  0.18051331299809453  0.18092168859186586  1.0000
  C   C9        1.0  0.6898287308609099  0.43309681199991695  0.18772713110822545  1.0000
  C   C10       1.0  0.9356681739606642  0.18713854667782942  0.18964061709714744  1.0000
  C   C11       1.0  0.8188672958269052  0.3193675796702562  0.31927082342078716  1.0000
  C   C12       1.0  0.8108464819358971  0.06586934952237301  0.3114090091311041  1.0000
  C   C13       1.0  0.43355345536478035  0.6895676972759051  0.688289973058083  1.0000
  C   C14       1.0  0.31829201316025285  0.8199732210826696  0.8189909328423822  1.0000
  C   C15       1.0  0.1885727214257358  0.9335561363306867  0.6884354475564365  1.0000
  C   C16       1.0  0.0657561345177697  0.8092093434449834  0.8115098216782144  1.0000
  C   C17       1.0  0.18127287867002204  0.6803838840659749  0.6809956570130993  1.0000
  C   C18       1.0  0.31419426917674537  0.5657168230008552  0.8116199082796027  1.0000
  C   C19       1.0  0.43822481402452945  0.18382995940027774  0.9386320721376149  1.0000
  C   C20       1.0  0.4310044321828812  0.9306175066482819  0.9308362508659582  1.0000
  C   C21       1.0  0.6842311900167316  0.9392387187957  0.9388292245582406  1.0000
  C   C22       1.0  0.5613670356415881  0.8159091512833071  0.06163400401549524  1.0000
  C   C23       1.0  0.569210243712476  0.0689305756236891  0.06924656541374928  1.0000
  C   C24       1.0  0.3157179608675449  0.06127161269310483  0.06091936559663939  1.0000
  C   C25       1.0  0.9011781370395653  0.4033977581235462  0.4024330248899303  1.0000
  C   C26       1.0  0.8491398140385087  0.3465391904822255  0.3478280365337269  1.0000
  C   C27       1.0  0.8298156376373597  0.44558302945357314  0.38770686679725935  1.0000
  C   C28       1.0  0.9205713802510331  0.3044181192113485  0.3624866483721547  1.0000
  C   C29       1.0  0.8044377755404639  0.41805330423055415  0.3611626362981894  1.0000
  C   C30       1.0  0.9459521004215432  0.3319844812983774  0.3890136731669287  1.0000
  C   C31       1.0  0.0987164328073149  0.5990719788213211  0.5968097284177104  1.0000
  C   C32       1.0  0.15177085819544797  0.6514812888880924  0.6529566352042765  1.0000
  C   C33       1.0  0.14178390365698587  0.641942212213948  0.5831177561015152  1.0000
  C   C34       1.0  0.1086892651694598  0.6085737904290482  0.6666347737941648  1.0000
  C   C35       1.0  0.1676083135803026  0.6675252758225269  0.61039684505527  1.0000
  C   C36       1.0  0.08286652811178641  0.583012195775858  0.6393561401008866  1.0000
  C   C37       1.0  0.30434735409792774  0.4557374673733675  0.40103578221740577  1.0000
  C   C38       1.0  0.445811273085063  0.29750386504464643  0.34907621206113487  1.0000
  C   C39       1.0  0.2584079024720296  0.4162750155601955  0.41392285403154006  1.0000
  C   C40       1.0  0.4911590611782657  0.33673218704892366  0.3362920384017229  1.0000
  C   C41       1.0  0.37775335981255853  0.3405476557492905  0.3726775789206656  1.0000
  C   C42       1.0  0.37267972589732073  0.41204418201999704  0.3774031232431979  1.0000
  C   C43       1.0  0.7265269828988252  0.5755579494187302  0.6304072399406379  1.0000
  C   C44       1.0  0.5244042837087476  0.6734793063381376  0.6213999417505677  1.0000
  C   C45       1.0  0.7426335504848254  0.5851858935092694  0.5877048814185599  1.0000
  C   C46       1.0  0.5086150668551355  0.6639855501977581  0.6637153685913616  1.0000
  C   C47       1.0  0.6036980534861769  0.6413480031218199  0.6090922487621526  1.0000
  C   C48       1.0  0.6467736525622668  0.6078772266747093  0.6425083500455457  1.0000
  C   C49       1.0  0.07591771615603449  0.22621876194052967  0.6300615084813542  1.0000
  C   C50       1.0  0.17345221386629822  0.024548555784910792  0.6215347800590719  1.0000
  C   C51       1.0  0.08563565066011591  0.24237228090212426  0.5873221201887374  1.0000
  C   C52       1.0  0.1637452140279407  0.008661673848678221  0.6638530202390738  1.0000
  C   C53       1.0  0.14153231510377398  0.10367786641820939  0.6090754524475912  1.0000
  C   C54       1.0  0.1080707300142763  0.1466060285862198  0.6423677328499765  1.0000
  C   C55       1.0  0.8418316698684265  0.8006569750439071  0.3972473922935648  1.0000
  C   C56       1.0  0.9036452298602455  0.9495399037730365  0.3525911169784025  1.0000
  C   C57       1.0  0.9107625373905321  0.7584687422696206  0.4137551928311537  1.0000
  C   C58       1.0  0.8352142657383439  0.9911403220980685  0.33632551223667656  1.0000
  C   C59       1.0  0.9064343904031915  0.8800150867434201  0.37477340230422845  1.0000
  C   C60       1.0  0.8396938384731526  0.8702419543887174  0.3749182359332509  1.0000
  C   C61       1.0  0.6531350541485069  0.15284560204835887  0.15153042325982818  1.0000
  C   C62       1.0  0.597005429367961  0.09706582538125735  0.09852447396242066  1.0000
  C   C63       1.0  0.6667536724123266  0.16672340809201808  0.108490131595687  1.0000
  C   C64       1.0  0.5832658662457034  0.08334168047870352  0.141561945079026  1.0000
  C   C65       1.0  0.6395148237381035  0.13962920109354132  0.0826707338742025  1.0000
  C   C66       1.0  0.6105024619738445  0.11044156175201886  0.1673728816166857  1.0000
  C   C67       1.0  0.6746246661155838  0.5233061268332689  0.11980059889034321  1.0000
  C   C68       1.0  0.5767592869557562  0.7249212413661041  0.1285055650928868  1.0000
  C   C69       1.0  0.6649580765200299  0.5070909515699356  0.1625396762574383  1.0000
  C   C70       1.0  0.5864952435321554  0.740861518427785  0.08618729696658525  1.0000
  C   C71       1.0  0.6087330661810739  0.6457786069435086  0.14088056316911945  1.0000
  C   C72       1.0  0.6422840528796668  0.6029351805092064  0.10755399337159585  1.0000
  C   C73       1.0  0.0824176367925347  0.12331165613127841  0.1785053845895064  1.0000
  C   C74       1.0  0.1700727296994415  0.12499578561722298  0.0729543775196149  1.0000
  C   C75       1.0  0.010308728691406099  0.16233420282839012  0.1651452060248246  1.0000
  C   C76       1.0  0.24143286074669845  0.08616815417492774  0.08623715004537759  1.0000
  C   C77       1.0  0.11197477451143809  0.1387318164345714  0.10643890154509711  1.0000
  C   C78       1.0  0.1405214808685287  0.10992225267984422  0.14469177256712124  1.0000
  C   C79       1.0  0.3457309119090084  0.849884455200481  0.8476707404582127  1.0000
  C   C80       1.0  0.40352805140715736  0.9008537814603838  0.9022167758814134  1.0000
  C   C81       1.0  0.3037564810341422  0.9209772172914158  0.862290272034464  1.0000
  C   C82       1.0  0.4454797235106298  0.8297302189113442  0.8876048958527674  1.0000
  C   C83       1.0  0.3317851668542673  0.9458594513014231  0.8888225586339543  1.0000
  C   C84       1.0  0.41745272775744263  0.8048700122429012  0.861068510655471  1.0000
  C   C85       1.0  0.4083680275632489  0.44885290315748705  0.8529067266794924  1.0000
  C   C86       1.0  0.3457022523079303  0.3005329749188734  0.8974348811450027  1.0000
  C   C87       1.0  0.33952295959284834  0.4912858553503768  0.836348364947348  1.0000
  C   C88       1.0  0.4139875635600063  0.25864025575083377  0.9137861288473983  1.0000
  C   C89       1.0  0.34336049544148045  0.36987804108408556  0.8752191959026587  1.0000
  C   C90       1.0  0.41027895837273576  0.37928984465732196  0.8751527632323856  1.0000
  C   C91       1.0  0.9452528356025313  0.7941250268868384  0.8491013967593445  1.0000
  C   C92       1.0  0.8042007325894218  0.9527668215800061  0.9008675029589527  1.0000
  C   C93       1.0  0.9912542203254802  0.8334855525619461  0.8361445341144316  1.0000
  C   C94       1.0  0.7587629504259255  0.913685930623927  0.913743772802384  1.0000
  C   C95       1.0  0.8721154483632887  0.9095016602514719  0.8772790600588249  1.0000
  C   C96       1.0  0.8769585206978973  0.8380056169355401  0.8726839104218342  1.0000
  S   S1        1.0  0.2987892148751214  0.32664692500081577  0.39725458228253524  1.0000
  S   S2        1.0  0.45158358674133575  0.42624536525099893  0.3528326246491957  1.0000
  S   S3        1.0  0.6608845036894876  0.6332089478392005  0.5627544053722248  1.0000
  S   S4        1.0  0.5898003653479975  0.6159051522272778  0.6889825124367518  1.0000
  S   S5        1.0  0.1335735925444794  0.16078266009830597  0.5626255270103399  1.0000
  S   S6        1.0  0.11579758734335141  0.08961574000974784  0.6889446597815762  1.0000
  S   S7        1.0  0.9721231067609607  0.8037516280185387  0.4019563074541636  1.0000
  S   S8        1.0  0.7736451972101577  0.9463713723960155  0.34780204801954534  1.0000
  S   S9        1.0  0.6166925825393577  0.5886016002682766  0.18730240363888837  1.0000
  S   S10       1.0  0.6345455198471511  0.6600062138170844  0.06101767248814837  1.0000
  S   S11       1.0  0.013868107407567698  0.18234310728273329  0.11179155887079867  1.0000
  S   S12       1.0  0.23872612551715383  0.06597841444666842  0.1394604694580437  1.0000
  S   S13       1.0  0.2779440051146977  0.44628588248161105  0.8479677937716515  1.0000
  S   S14       1.0  0.47598591414484304  0.30295405263760233  0.9023595882999584  1.0000
  S   S15       1.0  0.9511039232859632  0.9232074203529381  0.8526744098596308  1.0000
  S   S16       1.0  0.7979849113426383  0.8240788727140119  0.897360300338505  1.0000
  O   O1        1.0  0.00042708063910620083  0.4990955856891901  0.5001776428286177  1.0000
  O   O2        1.0  0.0776680689983849  0.3152922642986624  0.5231011433425791  1.0000
  O   O3        1.0  0.031908584820435196  0.5311049991677663  0.586336424291609  1.0000
  O   O4        1.0  0.1551003156929767  0.5066515475561034  0.4498893728587844  1.0000
  O   O5        1.0  0.027102871965169605  0.3751398855805235  0.581033664161886  1.0000
  O   O6        1.0  0.15399018166615966  0.39234711147945933  0.44651690050394416  1.0000
  O   O7        1.0  0.08323818957420309  0.5865482802259978  0.5304066691107606  1.0000
  O   O8        1.0  0.003070953723003801  0.6580400812196955  0.44973342056312754  1.0000
  O   O9        1.0  0.8882285220250736  0.49468662081594056  0.4433658425411339  1.0000
  O   O10       1.0  0.8901624858525707  0.6524009703773288  0.4474544622660658  1.0000
  O   O11       1.0  0.9975674029089774  0.38577000715504556  0.441372530842841  1.0000
  O   O12       1.0  0.8759292659105498  0.5265486066312022  0.5814288771430185  1.0000
  O   O13       1.0  0.8150373383922941  0.5767283077365805  0.5236233271267282  1.0000
  O   O14       1.0  0.7492243219235276  0.2503568710952495  0.25024822948162745  1.0000
  O   O15       1.0  0.5971229978019323  0.35789401295249956  0.30314495286700804  1.0000
  O   O16       1.0  0.6630386104355424  0.1639630246029355  0.21909239116239834  1.0000
  O   O17       1.0  0.7258116121749935  0.37424652467980496  0.16904590144183373  1.0000
  O   O18       1.0  0.5924956935326762  0.24519317856865536  0.2998327326609243  1.0000
  O   O19       1.0  0.6729502990422276  0.4344541589543596  0.22675323352016355  1.0000
  O   O20       1.0  0.7210129308518702  0.21755421665887537  0.1655577050281849  1.0000
  O   O21       1.0  0.8779141939948261  0.22268732486201515  0.16932818814139236  1.0000
  O   O22       1.0  0.8604804954672503  0.2537271505890289  0.3084414433065774  1.0000
  O   O23       1.0  0.9341012591724578  0.17159704630114453  0.22858824697963334  1.0000
  O   O24       1.0  0.7534000312536334  0.3647832288733498  0.3082703645183003  1.0000
  O   O25       1.0  0.7444357848179237  0.09335778285843337  0.299702258018435  1.0000
  O   O26       1.0  0.8579089960105647  0.09638647154314849  0.30372278106517575  1.0000
  O   O27       1.0  0.2504455686657963  0.7498690271734815  0.7498182125613724  1.0000
  O   O28       1.0  0.3753849096920305  0.7244677797059679  0.6686716251372502  1.0000
  O   O29       1.0  0.36406953322895663  0.7547987093414933  0.8082157174398998  1.0000
  O   O30       1.0  0.1719958957216718  0.9333552096028797  0.7274043182539459  1.0000
  O   O31       1.0  0.4338192951992923  0.6743243727111545  0.727311285900683  1.0000
  O   O32       1.0  0.22411745778577338  0.8757387994583538  0.6688403217386281  1.0000
  O   O33       1.0  0.2525393531595981  0.8614618335439559  0.8079894353800511  1.0000
  O   O34       1.0  0.0951066930590088  0.857763610330103  0.803400405525899  1.0000
  O   O35       1.0  0.1670116889968014  0.663937371084792  0.7193779587378017  1.0000
  O   O36       1.0  0.09505760416123368  0.7429195098925022  0.8003268825481908  1.0000
  O   O37       1.0  0.2186896948192185  0.7193715287691019  0.6636155046022053  1.0000
  O   O38       1.0  0.3598072165239614  0.5980038516164258  0.8034826480581714  1.0000
  O   O39       1.0  0.24746970203410973  0.591822302140514  0.8003454777943375  1.0000
  O   O40       1.0  0.49971568084549733  0.0007150230003106292  0.9997651306068179  1.0000
  O   O41       1.0  0.5047112091400906  0.15636149930067944  0.9501960752972565  1.0000
  O   O42       1.0  0.38615418328178197  0.9964898896217067  0.9411262875019162  1.0000
  O   O43       1.0  0.6533937633943124  0.8922138074080692  0.9470856930455652  1.0000
  O   O44       1.0  0.391163945302644  0.15322911271599787  0.9463671293361953  1.0000
  O   O45       1.0  0.6570893537356568  0.0054303375422862605  0.9500959507571948  1.0000
  O   O46       1.0  0.4961699160754024  0.8882955307378072  0.9424807530183515  1.0000
  O   O47       1.0  0.5780587732445283  0.8162081410201553  0.022654150481741932  1.0000
  O   O48       1.0  0.531077055359404  0.030317620815758152  0.08462649136981777  1.0000
  O   O49       1.0  0.5253692081927069  0.8737693603983556  0.08117129484437414  1.0000
  O   O50       1.0  0.5864969947563309  0.08630414267368285  0.031006281715207307  1.0000
  O   O51       1.0  0.3153759361988548  0.07756732203947082  0.02202792283671329  1.0000
  O   O52       1.0  0.3742007177664703  0.02524110483918918  0.0804357386945043  1.0000
  O   O53       1.0  0.2849499522181702  0.5264054494848764  0.41028775664610617  1.0000
  O   O54       1.0  0.7809463590506027  0.539809702072226  0.6562788707389942  1.0000
  O   O55       1.0  0.040232349069214  0.28047274581758336  0.6557911050856261  1.0000
  O   O56       1.0  0.7852856859018189  0.7770148298604626  0.40233801955106685  1.0000
  O   O57       1.0  0.7104185984255977  0.46903922216132804  0.09412468489829709  1.0000
  O   O58       1.0  0.09370379811321071  0.10170187031490488  0.21863002591264555  1.0000
  O   O59       1.0  0.46505155271535153  0.47233307843707456  0.8479446652792859  1.0000
  O   O60       1.0  0.9647617350591062  0.7234286303046887  0.8398877216421426  1.0000
  F   F1        1.0  0.7825566159479678  0.5152550737581194  0.3988335317812998  1.0000
  F   F2        1.0  0.9678786648405763  0.23479228581403808  0.35123290571811333  1.0000
  F   F3        1.0  0.1600608552219143  0.6600432835233008  0.5425850236598108  1.0000
  F   F4        1.0  0.0904430405330885  0.5903991820003897  0.707201876490039  1.0000
  F   F5        1.0  0.7071302507665109  0.20734337171618497  0.09033658466265139  1.0000
  F   F6        1.0  0.5426887610898562  0.04284232423550794  0.1596914212443039  1.0000
  F   F7        1.0  0.233973939225443  0.9684156849471038  0.8509881501983044  1.0000
  F   F8        1.0  0.5153505925949418  0.7823009887077391  0.8988862220560137  1.0000
