data_image0
_chemical_formula_structural       Cd2H16C20S2N6Cl2
_chemical_formula_sum              "Cd2 H16 C20 S2 N6 Cl2"
_cell_length_a       7.440591996848727
_cell_length_b       8.308782768018991
_cell_length_c       10.41305941029942
_cell_angle_alpha    104.12728389491585
_cell_angle_beta     98.17033924605296
_cell_angle_gamma    111.91797202847646

_space_group_name_H-M_alt    "P 1"
_space_group_IT_number       1

loop_
  _space_group_symop_operation_xyz
  'x, y, z'

loop_
  _atom_site_type_symbol
  _atom_site_label
  _atom_site_symmetry_multiplicity
  _atom_site_fract_x
  _atom_site_fract_y
  _atom_site_fract_z
  _atom_site_occupancy
  Cd  Cd1       1.0  0.6311630429335792  0.8958366193819817  0.602479362122061  1.0000
  Cd  Cd2       1.0  0.3688431730978152  0.10415650059873371  0.3975209505019066  1.0000
  H   H1        1.0  0.5226043164328188  0.7955581225301531  0.8734518881283506  1.0000
  H   H2        1.0  0.4773923081931385  0.20444325758153073  0.12655403415313057  1.0000
  H   H3        1.0  0.6526802931358661  0.92075450180208  0.13147189587760985  1.0000
  H   H4        1.0  0.3473210369299621  0.07925101975251184  0.8685334674811358  1.0000
  H   H5        1.0  0.9643696665570688  0.21293705002100452  0.2359358871444286  1.0000
  H   H6        1.0  0.03563377803587995  0.7870672455060516  0.7640646226389762  1.0000
  H   H7        1.0  0.23918268066953627  0.47475675855594096  0.20460023882355224  1.0000
  H   H8        1.0  0.7608106431793189  0.5252462501945205  0.7954008969135486  1.0000
  H   H9        1.0  0.4055683745313131  0.6212579429497112  0.04807167340626253  1.0000
  H   H10       1.0  0.5944195500856962  0.3787479584490186  0.9519285784277045  1.0000
  H   H11       1.0  0.2655320950881759  0.4772948661210919  0.7938730171171215  1.0000
  H   H12       1.0  0.7344605803147033  0.5227039707935363  0.20612811894515207  1.0000
  H   H13       1.0  0.8935708825374035  0.2494606370878429  0.6152296712300753  1.0000
  H   H14       1.0  0.10643329272817682  0.7505395397756802  0.3847690677891792  1.0000
  H   H15       1.0  0.04590461820052379  0.1482808662081965  0.6163648389572529  1.0000
  H   H16       1.0  0.9540894542580818  0.8517095814515233  0.38363655931306806  1.0000
  C   C1        1.0  0.6577757706456353  0.9231589517236929  0.923487232273132  1.0000
  C   C2        1.0  0.34222627402043315  0.07684241318539621  0.0765173112555431  1.0000
  C   C3        1.0  0.729847927537392  0.9934717105376409  0.06727967822870079  1.0000
  C   C4        1.0  0.27015545276601927  0.006532433061565312  0.9327246352910592  1.0000
  C   C5        1.0  0.9007999052443693  0.15515789734176622  0.12514361623343717  1.0000
  C   C6        1.0  0.09920482203288125  0.8448462234658083  0.8748608280651667  1.0000
  C   C7        1.0  0.999484492306479  0.24726076395462127  0.04012259015829762  1.0000
  C   C8        1.0  0.0005135549193583063  0.752737943811532  0.9598800199534382  1.0000
  C   C9        1.0  0.17661669880362038  0.4130004071551668  0.09383873655942661  1.0000
  C   C10       1.0  0.8233793350652903  0.5870025939939938  0.9061617098012748  1.0000
  C   C11       1.0  0.26927847757084317  0.4939637593966922  0.0060295833940102765  1.0000
  C   C12       1.0  0.7307155816865247  0.5060379701539476  0.9939684698570871  1.0000
  C   C13       1.0  0.1901422137901321  0.41273646823700016  0.8625809689569266  1.0000
  C   C14       1.0  0.809852500513827  0.5872637922040057  0.1374187564786027  1.0000
  C   C15       1.0  0.016579925328528613  0.2519817892678945  0.8060877436004219  1.0000
  C   C16       1.0  0.9834195331606851  0.7480170476344697  0.1939111935538094  1.0000
  C   C17       1.0  0.9167793108496339  0.1655691550813572  0.894716196139548  1.0000
  C   C18       1.0  0.08321678917354798  0.8344255175864747  0.10528343071625564  1.0000
  C   C19       1.0  0.25654449221255504  0.46696719620859295  0.5004806989544193  1.0000
  C   C20       1.0  0.7434705278691282  0.5330357897134449  0.4995139708373699  1.0000
  S   S1        1.0  0.2604666428088719  0.6603942290451387  0.5892297728414421  1.0000
  S   S2        1.0  0.7395444412509702  0.3395949317889163  0.41076345575037  1.0000
  N   N1        1.0  0.7470692267516696  0.005029507908169299  0.8407447094845183  1.0000
  N   N2        1.0  0.2529315418307264  0.9949663907749343  0.15925757203857685  1.0000
  N   N3        1.0  0.9364672406156272  0.16695561386931962  0.6594486906489364  1.0000
  N   N4        1.0  0.06353016290012192  0.8330417615247115  0.3405526080661261  1.0000
  N   N5        1.0  0.24521104665504367  0.32413255943459524  0.4344652592622325  1.0000
  N   N6        1.0  0.754801490284713  0.6758624854270254  0.5655197710601954  1.0000
  Cl  Cl1       1.0  0.559683975208884  0.8620974909042263  0.34643235299691366  1.0000
  Cl  Cl2       1.0  0.44031276852438583  0.13789851413572762  0.6535685852555702  1.0000
