data_image0
_chemical_formula_structural       H8Ru2C20N2O8F12
_chemical_formula_sum              "H8 Ru2 C20 N2 O8 F12"
_cell_length_a       8.631231101374262
_cell_length_b       8.776045367153587
_cell_length_c       9.109058327968285
_cell_angle_alpha    112.80326894018319
_cell_angle_beta     93.66181412756883
_cell_angle_gamma    90.27642038203683

_space_group_name_H-M_alt    "P 1"
_space_group_IT_number       1

loop_
  _space_group_symop_operation_xyz
  'x, y, z'

loop_
  _atom_site_type_symbol
  _atom_site_label
  _atom_site_symmetry_multiplicity
  _atom_site_fract_x
  _atom_site_fract_y
  _atom_site_fract_z
  _atom_site_occupancy
  H   H1        1.0  0.2906284579118151  0.26019152390322375  0.28737300628949203  1.0000
  H   H2        1.0  0.709375515568162  0.7398076367815561  0.7126334961106052  1.0000
  H   H3        1.0  0.5081314316965405  0.3075815816256479  0.4902929634282387  1.0000
  H   H4        1.0  0.4918679267548143  0.6924188031406118  0.5097126389317026  1.0000
  H   H5        1.0  0.4799543953094059  0.49589342356200916  0.7737688170816738  1.0000
  H   H6        1.0  0.5200496744870691  0.5041094508336956  0.2262379896799659  1.0000
  H   H7        1.0  0.23520093032023937  0.640153681427627  0.8522045156186593  1.0000
  H   H8        1.0  0.7648009050027865  0.3598529057699124  0.14780026690217338  1.0000
  Ru  Ru1       1.0  0.9948080680504249  0.8695718039815008  0.8954990721200532  1.0000
  Ru  Ru2       1.0  0.0051853248919969  0.13042363530027498  0.10449774392115779  1.0000
  C   C1        1.0  0.7318256980507131  0.9320033729823153  0.08718983840405778  1.0000
  C   C2        1.0  0.2681706133679286  0.06801307675884519  0.912821632515886  1.0000
  C   C3        1.0  0.5810363305127807  0.8906870500261874  0.1485301323231809  1.0000
  C   C4        1.0  0.4189631448039464  0.10931829595782717  0.851472951283597  1.0000
  C   C5        1.0  0.8802352254076949  0.13174687383492767  0.8048854802337431  1.0000
  C   C6        1.0  0.11975923982713971  0.8682461141020993  0.19510498577957244  1.0000
  C   C7        1.0  0.8230207957870447  0.20800028812094234  0.6849997873537035  1.0000
  C   C8        1.0  0.17698421531545697  0.7919964500286696  0.31499159131285387  1.0000
  C   C9        1.0  0.1335137435024123  0.41753201454483246  0.4522448072906684  1.0000
  C   C10       1.0  0.8664902169763592  0.5824671569435436  0.5477584049698122  1.0000
  C   C11       1.0  0.27763090752787895  0.3401694159651426  0.4109056679272314  1.0000
  C   C12       1.0  0.722371799906888  0.6598260341553795  0.5890982690969437  1.0000
  C   C13       1.0  0.3987004999654787  0.36831507159925536  0.5241898739207259  1.0000
  C   C14       1.0  0.6012999145631497  0.6316816107142172  0.475813298239224  1.0000
  C   C15       1.0  0.3829809393947485  0.47625252233368787  0.6851223951628072  1.0000
  C   C16       1.0  0.617020723844142  0.5237478849488469  0.31487895552024275  1.0000
  C   C17       1.0  0.24762974849252123  0.5575545752408146  0.729197208899528  1.0000
  C   C18       1.0  0.7523696553903179  0.4424483009379116  0.2708038439442149  1.0000
  C   C19       1.0  0.11967188259713171  0.5336036061574346  0.6149930439279245  1.0000
  C   C20       1.0  0.8803285860304441  0.4663955603661164  0.3850077721422451  1.0000
  N   N1        1.0  0.012526176523365998  0.38337457523916635  0.3407695072630759  1.0000
  N   N2        1.0  0.9874766943280523  0.6166270619987487  0.6592356681724709  1.0000
  O   O1        1.0  0.783277636705172  0.8198046245573989  0.9661365582173502  1.0000
  O   O2        1.0  0.2167259125051899  0.18017971369449276  0.0338588563177353  1.0000
  O   O3        1.0  0.2079597992117712  0.92554841650157  0.8324537895724617  1.0000
  O   O4        1.0  0.7920311492892579  0.07444332256499558  0.1675360066520355  1.0000
  O   O5        1.0  0.8982775619420806  0.977116825546659  0.7461426349128075  1.0000
  O   O6        1.0  0.1017066810444618  0.022883524500961996  0.2538566052375372  1.0000
  O   O7        1.0  0.09190233412714123  0.7696256232367132  0.05076966793242115  1.0000
  O   O8        1.0  0.9080969561042521  0.2303735536358857  0.94922669369695  1.0000
  F   F1        1.0  0.614306898429092  0.866373006035836  0.28513619236547777  1.0000
  F   F2        1.0  0.38568793264266793  0.1336323237252159  0.7148666208894312  1.0000
  F   F3        1.0  0.4808205025623452  0.017595669534117092  0.1811296991938178  1.0000
  F   F4        1.0  0.5191799779466352  0.9824047516986596  0.8188661003352351  1.0000
  F   F5        1.0  0.5057304382955222  0.752768809296029  0.04122003072823334  1.0000
  F   F6        1.0  0.4942630975146828  0.24723156959631615  0.9587808468390548  1.0000
  F   F7        1.0  0.9425935938083612  0.2164908843890885  0.5972487692103883  1.0000
  F   F8        1.0  0.05741592845860309  0.7834996576577068  0.4027493183891053  1.0000
  F   F9        1.0  0.7065035166026375  0.11438019180246779  0.5824880510086176  1.0000
  F   F10       1.0  0.29349378588724306  0.8856326095038723  0.4175045390132511  1.0000
  F   F11       1.0  0.7713012879774298  0.3628140291513019  0.7595866393058728  1.0000
  F   F12       1.0  0.22871091134186367  0.6371914010590345  0.24040512392327432  1.0000
