data_image0
_chemical_formula_structural       Cu2H18C24I2N4O3
_chemical_formula_sum              "Cu2 H18 C24 I2 N4 O3"
_cell_length_a       4.134991340400922
_cell_length_b       8.779707854012933
_cell_length_c       15.695303171043086
_cell_angle_alpha    99.53382084052569
_cell_angle_beta     97.58343747199054
_cell_angle_gamma    89.9760551141382

_space_group_name_H-M_alt    "P 1"
_space_group_IT_number       1

loop_
  _space_group_symop_operation_xyz
  'x, y, z'

loop_
  _atom_site_type_symbol
  _atom_site_label
  _atom_site_symmetry_multiplicity
  _atom_site_fract_x
  _atom_site_fract_y
  _atom_site_fract_z
  _atom_site_occupancy
  Cu  Cu1       1.0  0.9926300346243264  0.10787246988821411  0.49283811866264676  1.0000
  Cu  Cu2       1.0  0.4993976929350056  0.8918262710247192  0.5070162664075823  1.0000
  H   H1        1.0  0.2827752440243998  0.6828303621273265  0.267800758726402  1.0000
  H   H2        1.0  0.0163203675708772  0.31733685092392255  0.7321920595309734  1.0000
  H   H3        1.0  0.7662887510987417  0.0916506111577604  0.30349615555506654  1.0000
  H   H4        1.0  0.4615330567412243  0.9078817199184998  0.6961425600921842  1.0000
  H   H5        1.0  0.9098000372697186  0.22228696822757854  0.18316349060701503  1.0000
  H   H6        1.0  0.7262228671751599  0.7776951061319722  0.8166402527710659  1.0000
  H   H7        1.0  0.48662967890285097  0.5525638581634666  0.3786373536514205  1.0000
  H   H8        1.0  0.1092702863471047  0.44737951759395866  0.6214463665805924  1.0000
  H   H9        1.0  0.3389062955474884  0.4037514977970814  0.4899626383771434  1.0000
  H   H10       1.0  0.8498315590509691  0.5959812931621541  0.5099519918934519  1.0000
  H   H11       1.0  0.720743746870056  0.533879744766253  0.08206222608053079  1.0000
  H   H12       1.0  0.6396455726055166  0.46621336831514537  0.9181097089014827  1.0000
  H   H13       1.0  0.9194673065228116  0.7074787439501194  0.9882031358077583  1.0000
  H   H14       1.0  0.9316726463598144  0.29253886197371065  0.01209004556724839  1.0000
  H   H15       1.0  0.42358201653648564  0.0888310247539792  0.1197806500520642  1.0000
  H   H16       1.0  0.30452785126595927  0.911361493122925  0.8802833685386133  1.0000
  H   H17       1.0  0.24082634419647767  0.9178264118914187  0.2176325600054412  1.0000
  H   H18       1.0  0.024742898699514605  0.08241600781074963  0.7822411814202965  1.0000
  C   C1        1.0  0.9249875589842063  0.19431032930252465  0.3174502674348787  1.0000
  C   C2        1.0  0.6069604330177256  0.8053566300829688  0.6823043276896784  1.0000
  C   C3        1.0  0.0036989776722507004  0.26720454676560484  0.2507336531668329  1.0000
  C   C4        1.0  0.7528417740999346  0.7326991060395187  0.7490929877396795  1.0000
  C   C5        1.0  0.20653601593851081  0.3993647947203983  0.2710430501432199  1.0000
  C   C6        1.0  0.9359883756913375  0.600663528764308  0.7289028894906406  1.0000
  C   C7        1.0  0.321537303132331  0.45237177939290524  0.3588568703732378  1.0000
  C   C8        1.0  0.9636323337409323  0.5475596656912814  0.6411397472459015  1.0000
  C   C9        1.0  0.23861225911492306  0.37007391821787655  0.42154568084086463  1.0000
  C   C10       1.0  0.8177466239540648  0.6296631914340481  0.5783648964955503  1.0000
  C   C11       1.0  0.31371871677594493  0.46737827565024753  0.1977014021139993  1.0000
  C   C12       1.0  0.11641861588426392  0.5327875346134904  0.8023277610364445  1.0000
  C   C13       1.0  0.47439764582653504  0.7155494451264843  0.15687202878893908  1.0000
  C   C14       1.0  0.3185421541359688  0.28469055111509783  0.8432261357291964  1.0000
  C   C15       1.0  0.660186481672234  0.6552816377010374  0.09117745240496326  1.0000
  C   C16       1.0  0.5698376972486726  0.344886040574778  0.908994718935908  1.0000
  C   C17       1.0  0.7655456577013168  0.7513550563462276  0.03773320330905959  1.0000
  C   C18       1.0  0.7282099026666627  0.2487739070086334  0.9625122220870495  1.0000
  C   C19       1.0  0.6815484924410954  0.9063452924079131  0.04864395241893499  1.0000
  C   C20       1.0  0.6331803889437992  0.09381088913102789  0.9516009313350366  1.0000
  C   C21       1.0  0.49307896575865584  0.9679304678660472  0.1133129175563639  1.0000
  C   C22       1.0  0.38044163705242073  0.032237699954080795  0.8868090972568651  1.0000
  C   C23       1.0  0.39257750869263924  0.872280540617382  0.1677207663917812  1.0000
  C   C24       1.0  0.2260333788537849  0.12793448838915114  0.8323110831643703  1.0000
  I   I1        1.0  0.9612361563630003  0.8285704919853742  0.3991524142066609  1.0000
  I   I2        1.0  0.562321001216972  0.17123588945348442  0.6006924614123648  1.0000
  N   N1        1.0  0.0452059579964512  0.24203648721861273  0.4022027521479998  1.0000
  N   N2        1.0  0.6428458361827794  0.7575754845214179  0.5975913497095248  1.0000
  N   N3        1.0  0.36616698851589286  0.6235691648173116  0.21361835770358784  1.0000
  N   N4        1.0  0.15366784690296953  0.37663546091206973  0.7864078267500219  1.0000
  O   O1        1.0  0.35461815434199917  0.38101966822136296  0.1290788141880839  1.0000
  O   O2        1.0  0.2253097017800556  0.6191699385023952  0.8710154242258241  1.0000
  O   O3        1.0  0.8224664824283393  7.632274618169985e-05  0.00017237584723519793  1.0000
