data_image0
_chemical_formula_structural       Cd3H32C12Br6N8O4
_chemical_formula_sum              "Cd3 H32 C12 Br6 N8 O4"
_cell_length_a       7.208108565093262
_cell_length_b       7.510275715120888
_cell_length_c       14.394399560367379
_cell_angle_alpha    70.76989041766726
_cell_angle_beta     87.8262087449367
_cell_angle_gamma    74.97816569667206

_space_group_name_H-M_alt    "P 1"
_space_group_IT_number       1

loop_
  _space_group_symop_operation_xyz
  'x, y, z'

loop_
  _atom_site_type_symbol
  _atom_site_label
  _atom_site_symmetry_multiplicity
  _atom_site_fract_x
  _atom_site_fract_y
  _atom_site_fract_z
  _atom_site_occupancy
  Cd  Cd1       1.0  0.9999962401230745  0.999993351816137  6.0814599152296074e-06  1.0000
  Cd  Cd2       1.0  0.24094629008875768  0.5561149515027138  0.4343039665665457  1.0000
  Cd  Cd3       1.0  0.7590944156463663  0.44387654348800964  0.5656857313914327  1.0000
  H   H1        1.0  0.3257705467561038  0.004573563147516813  0.3960486315223547  1.0000
  H   H2        1.0  0.6742552354751722  0.9954083168098293  0.6039504079603829  1.0000
  H   H3        1.0  0.08362147936221483  0.04183059664085681  0.3549509374336139  1.0000
  H   H4        1.0  0.9163975393782097  0.9581424829018207  0.6450585966594885  1.0000
  H   H5        1.0  0.5370705680389776  0.6859785276304822  0.2540812494875836  1.0000
  H   H6        1.0  0.4629430179755474  0.31403069569663705  0.7459039780933807  1.0000
  H   H7        1.0  0.5868066817786113  0.7964622845773875  0.33979077394207013  1.0000
  H   H8        1.0  0.4132125407096083  0.20354657234760518  0.6601944341064083  1.0000
  H   H9        1.0  0.020185122100919356  0.8898493419782626  0.239541279648634  1.0000
  H   H10       1.0  0.9798184055727078  0.11012488493263116  0.7604662010046821  1.0000
  H   H11       1.0  0.21532010522137318  0.738487635153071  0.1969061668965252  1.0000
  H   H12       1.0  0.7846943307391498  0.2615092752007159  0.8030920828034736  1.0000
  H   H13       1.0  0.5443523069399275  0.14721619309875686  0.2863884986836922  1.0000
  H   H14       1.0  0.4556465800235472  0.8527963951527369  0.7136033568053076  1.0000
  H   H15       1.0  0.46937231050450395  0.2903719258104688  0.16013314548520438  1.0000
  H   H16       1.0  0.5305938412514665  0.7096436676005669  0.8398670285468837  1.0000
  H   H17       1.0  0.40510452090353516  0.14053230211721518  0.048327743658766985  1.0000
  H   H18       1.0  0.5948596631251492  0.8594865772127348  0.9516677761780555  1.0000
  H   H19       1.0  0.43509237815404583  0.8804996069595747  0.08731878084526559  1.0000
  H   H20       1.0  0.5648912634640055  0.11951972688449798  0.9126722339345859  1.0000
  H   H21       1.0  0.9770179619839824  0.23727161109751196  0.18329369633516987  1.0000
  H   H22       1.0  0.02296799942558888  0.7627131263850804  0.8167228171073828  1.0000
  H   H23       1.0  0.14321488798660914  0.3428793992452911  0.10219019618849497  1.0000
  H   H24       1.0  0.8567603134686693  0.6571175936024858  0.8978238650873818  1.0000
  H   H25       1.0  0.14262376074804453  0.38441426938585727  0.28321076425578434  1.0000
  H   H26       1.0  0.8573825241535573  0.6155742582660012  0.716793068244783  1.0000
  H   H27       1.0  0.9627730262723019  0.4477691725837263  0.34454400957228853  1.0000
  H   H28       1.0  0.03722668349313813  0.552246099098497  0.6554495034175218  1.0000
  H   H29       1.0  0.9125139882577217  0.6893699796909092  0.176863553617565  1.0000
  H   H30       1.0  0.08749104453036688  0.3106383024407507  0.8231441795725585  1.0000
  H   H31       1.0  0.7353945030380161  0.8794979534872597  0.15237398496199006  1.0000
  H   H32       1.0  0.26458932608937863  0.12053380126506855  0.8476227448175562  1.0000
  C   C1        1.0  0.2333247807914987  0.021824506388540506  0.33311187929247404  1.0000
  C   C2        1.0  0.7666801162602539  0.9781567311304615  0.6668958844385741  1.0000
  C   C3        1.0  0.4940779152863897  0.8165447504981743  0.27645225432383563  1.0000
  C   C4        1.0  0.5059286128215277  0.18346474448177474  0.7235358072115261  1.0000
  C   C5        1.0  0.17022194833732843  0.869204109369278  0.21891259218274678  1.0000
  C   C6        1.0  0.8297778498628006  0.13078938981244906  0.7810870807715344  1.0000
  C   C7        1.0  0.45446137239874673  0.16373173435642494  0.22258525134679985  1.0000
  C   C8        1.0  0.5455335847038328  0.8362721032166291  0.777413577062809  1.0000
  C   C9        1.0  0.39107079699186187  0.01153448575596632  0.10932049611128747  1.0000
  C   C10       1.0  0.6089117086549509  0.9884832493545305  0.8906742578602758  1.0000
  C   C11       1.0  0.1281567612679453  0.21507370285212357  0.16385907006566913  1.0000
  C   C12       1.0  0.8718240982113773  0.7849232497057342  0.8361500549848129  1.0000
  Br  Br1       1.0  0.26676894582629984  0.6761952095061122  0.0083643917432212  1.0000
  Br  Br2       1.0  0.7332223696739106  0.32379071214608507  0.9916504750123634  1.0000
  Br  Br3       1.0  0.8731958698423342  0.773489064078369  0.4547009064019462  1.0000
  Br  Br4       1.0  0.12681436926735762  0.22650087910599845  0.545299177140663  1.0000
  Br  Br5       1.0  0.6080372369832859  0.3358218863888143  0.4207374794406958  1.0000
  Br  Br6       1.0  0.3920023050730138  0.6641675905812151  0.5792622791713099  1.0000
  N   N1        1.0  0.29162411796352933  0.8412284173201315  0.30593548780396407  1.0000
  N   N2        1.0  0.7083878249621236  0.15876007004180087  0.6940634084712086  1.0000
  N   N3        1.0  0.18740388773834837  0.03862276785906001  0.1348211124443495  1.0000
  N   N4        1.0  0.8125792252117138  0.9613771026412012  0.8651847485309144  1.0000
  N   N5        1.0  0.25028130333706144  0.19422152699438305  0.2498258456377086  1.0000
  N   N6        1.0  0.7497091834857201  0.8057693258977638  0.7501799253461953  1.0000
  N   N7        1.0  0.5156408216176089  0.9867690318082725  0.19404240384550053  1.0000
  N   N8        1.0  0.4843439405785687  0.013251667832086946  0.8059483836661483  1.0000
  O   O1        1.0  0.058685976278638904  0.5003120143571211  0.3019639860004089  1.0000
  O   O2        1.0  0.9413278733654309  0.4996876710279352  0.6980359260835199  1.0000
  O   O3        1.0  0.8339610671077791  0.7963808982445572  0.12207223253608386  1.0000
  O   O4        1.0  0.1660468516468256  0.20362822561011035  0.8779200384243635  1.0000
