data_image0
_chemical_formula_structural       Co2H28C42N8O16
_chemical_formula_sum              "Co2 H28 C42 N8 O16"
_cell_length_a       10.135776561400597
_cell_length_b       10.041113515547364
_cell_length_c       11.789594271563281
_cell_angle_alpha    82.92912722088089
_cell_angle_beta     63.49023212797693
_cell_angle_gamma    72.36197990243507

_space_group_name_H-M_alt    "P 1"
_space_group_IT_number       1

loop_
  _space_group_symop_operation_xyz
  'x, y, z'

loop_
  _atom_site_type_symbol
  _atom_site_label
  _atom_site_symmetry_multiplicity
  _atom_site_fract_x
  _atom_site_fract_y
  _atom_site_fract_z
  _atom_site_occupancy
  Co  Co1       1.0  0.8760879231879529  0.8513453021308238  0.030114079857703764  1.0000
  Co  Co2       1.0  0.12392330155658732  0.14859890968831732  0.9698336285049365  1.0000
  H   H1        1.0  0.8617960952923553  0.9548085131403777  0.7832589345290443  1.0000
  H   H2        1.0  0.13820638890906173  0.045198325360608686  0.21673842401468588  1.0000
  H   H3        1.0  0.2735998190531674  0.4087728802265858  0.7428444585476441  1.0000
  H   H4        1.0  0.7264025850787449  0.5912171902962269  0.257150352824766  1.0000
  H   H5        1.0  0.001786285065776531  0.8799632032792387  0.5532087236374322  1.0000
  H   H6        1.0  0.9982087037304339  0.12002571380222798  0.44679322029099217  1.0000
  H   H7        1.0  0.5336814243081777  0.2638414843533567  0.3629079109617237  1.0000
  H   H8        1.0  0.4663219706600828  0.736155951016542  0.637083253614925  1.0000
  H   H9        1.0  0.20062768810824855  0.6477519283342872  0.4916714547403913  1.0000
  H   H10       1.0  0.7993568633313116  0.3522452372445031  0.5083386684960374  1.0000
  H   H11       1.0  0.7369912271908206  0.7507375515776077  0.7559621273142058  1.0000
  H   H12       1.0  0.2629868142380829  0.24926580067784704  0.24405745406230037  1.0000
  H   H13       1.0  0.09425234707681798  0.5834421567470045  0.8887951752118681  1.0000
  H   H14       1.0  0.9057501126927932  0.4165646746885301  0.11120388972609156  1.0000
  H   H15       1.0  0.6710496495052639  0.09958776373891  0.20531501753432466  1.0000
  H   H16       1.0  0.32895172692649066  0.9004054348755727  0.7946815647506043  1.0000
  H   H17       1.0  0.9341115399023326  0.7125905223019089  0.25462621956171444  1.0000
  H   H18       1.0  0.06588190592917444  0.28740989861358196  0.7453794017546329  1.0000
  H   H19       1.0  0.8552076488505166  0.7686814213688392  0.4804202631735989  1.0000
  H   H20       1.0  0.1447965999663197  0.23132645984423314  0.5195831172884482  1.0000
  H   H21       1.0  0.6752865565552568  0.0064586273119573  0.5710907743339674  1.0000
  H   H22       1.0  0.324728849724174  0.9935463131108192  0.42889005803195346  1.0000
  H   H23       1.0  0.8152606894114173  0.4333216864455237  0.867623881124068  1.0000
  H   H24       1.0  0.1847263711813127  0.5666818366178248  0.13237618884831898  1.0000
  H   H25       1.0  0.3961541190323032  0.5073180317521276  0.8290937690400213  1.0000
  H   H26       1.0  0.6038502861944933  0.49268251170551725  0.17090943284695476  1.0000
  H   H27       1.0  0.5896909054216549  0.10835229976838429  0.9582838484975085  1.0000
  H   H28       1.0  0.4103103270321282  0.8916377365973036  0.041716494639970875  1.0000
  C   C1        1.0  0.9461258189366079  0.8533727012080516  0.7518653577868193  1.0000
  C   C2        1.0  0.0538825136361751  0.1466257804289484  0.24813912293223686  1.0000
  C   C3        1.0  0.024834815460010897  0.8111196779716038  0.6252333049293597  1.0000
  C   C4        1.0  0.9751692213091587  0.1888787800841669  0.3747660005421948  1.0000
  C   C5        1.0  0.13508478142014008  0.6820263570896471  0.5900826448711951  1.0000
  C   C6        1.0  0.8649076881876779  0.3179740861923435  0.4099148570563429  1.0000
  C   C7        1.0  0.16262575108744678  0.596700777124134  0.6856198978885785  1.0000
  C   C8        1.0  0.837370479853348  0.4033018187038309  0.31437343713034943  1.0000
  C   C9        1.0  0.07661919304025845  0.6462974156841169  0.8117845399247088  1.0000
  C   C10       1.0  0.9233809285988173  0.35370310772503194  0.18821263351765072  1.0000
  C   C11       1.0  0.3748122711523223  0.4087592171982735  0.5472642803687434  1.0000
  C   C12       1.0  0.6251833374097515  0.5912380991844869  0.45273659786136716  1.0000
  C   C13       1.0  0.48396415332577913  0.26374888350358106  0.5493400836890743  1.0000
  C   C14       1.0  0.516036744489128  0.7362527014514268  0.4506558454799077  1.0000
  C   C15       1.0  0.6618401245692808  0.07161887741384018  0.39401129544067715  1.0000
  C   C16       1.0  0.33814987952325753  0.928381462226646  0.6060058019881679  1.0000
  C   C17       1.0  0.7114174661249137  0.029737802807623795  0.2683923937246461  1.0000
  C   C18       1.0  0.2885807539109635  0.9702647588855128  0.7316146204805634  1.0000
  C   C19       1.0  0.8569222891874375  0.8135263514033539  0.29703753928419  1.0000
  C   C20       1.0  0.14306627228047825  0.1864824004768906  0.7029699324427696  1.0000
  C   C21       1.0  0.8126143721546485  0.8463324502644554  0.42246615968942064  1.0000
  C   C22       1.0  0.1873784388661335  0.1536731912100393  0.5775434225606374  1.0000
  C   C23       1.0  0.7137959196109734  0.9770234424051694  0.47327831084379557  1.0000
  C   C24       1.0  0.286210789711511  0.0229802786246154  0.5267228646172625  1.0000
  C   C25       1.0  0.7166447040701557  0.2610785910091664  0.9146488087168834  1.0000
  C   C26       1.0  0.283369208540357  0.7389168603046556  0.08534115919767517  1.0000
  C   C27       1.0  0.7236048512331338  0.395655981155805  0.8711093719797985  1.0000
  C   C28       1.0  0.2763828049097441  0.604345430606429  0.12889577416309814  1.0000
  C   C29       1.0  0.6105030797011396  0.4823723701894378  0.8370699042352642  1.0000
  C   C30       1.0  0.38949017307269435  0.5176353778832948  0.16293845524750586  1.0000
  C   C31       1.0  0.48682212117743984  0.43661325102876  0.8507591868490676  1.0000
  C   C32       1.0  0.5131826795516546  0.5633862650401509  0.14923972754622375  1.0000
  C   C33       1.0  0.47990059268396845  0.3017016226628754  0.8935454077585164  1.0000
  C   C34       1.0  0.5201107032270258  0.6982948230527127  0.10645137920668886  1.0000
  C   C35       1.0  0.5964313393693245  0.21301338102252027  0.9234292275522051  1.0000
  C   C36       1.0  0.40358238039961236  0.7869788939116018  0.0765679140033697  1.0000
  C   C37       1.0  0.8360174211292418  0.173728474412016  0.9552436727221049  1.0000
  C   C38       1.0  0.16397581222241092  0.8262835304200634  0.044749002654576486  1.0000
  C   C39       1.0  0.6152693238853643  0.6258112314741452  0.7947245442035396  1.0000
  C   C40       1.0  0.384718688283151  0.37420276569419286  0.2052809160773065  1.0000
  C   C41       1.0  0.3470587487361669  0.2516791397055726  0.9124471061910098  1.0000
  C   C42       1.0  0.6529654029476077  0.7483216299803246  0.08755037560770516  1.0000
  N   N1        1.0  0.9728237474250748  0.7718530995903591  0.8434843073205511  1.0000
  N   N2        1.0  0.027167296583527886  0.22814411549118327  0.15653016599865308  1.0000
  N   N3        1.0  0.2716895066289169  0.46568178113057  0.6632848832453178  1.0000
  N   N4        1.0  0.7283032974016876  0.5343176170990489  0.33671259717611696  1.0000
  N   N5        1.0  0.5623433797432965  0.20528940632194548  0.43086581571818533  1.0000
  N   N6        1.0  0.43765602418660887  0.7947131930610424  0.5691348135248403  1.0000
  N   N7        1.0  0.8064535562530467  0.9043501484431145  0.22101460978952042  1.0000
  N   N8        1.0  0.19356261137345135  0.095658969848877  0.7789723090129995  1.0000
  O   O1        1.0  0.3859345001892935  0.463359233365793  0.4443137172635118  1.0000
  O   O2        1.0  0.6140551869220872  0.5366359151476487  0.5556895934485764  1.0000
  O   O3        1.0  0.4953892576604204  0.21145626743022206  0.6459836375137797  1.0000
  O   O4        1.0  0.5046116525864831  0.7885348175205706  0.35401587393267425  1.0000
  O   O5        1.0  0.8547599249440694  0.04295631225898689  0.9642633207700654  1.0000
  O   O6        1.0  0.1452271452516954  0.9570503341931623  0.03574237351807602  1.0000
  O   O7        1.0  0.9142714398224073  0.23799800333580381  0.9764788087037316  1.0000
  O   O8        1.0  0.0857202725995734  0.7620181287148712  0.02352675065409222  1.0000
  O   O9        1.0  0.7476421813102972  0.6513071117049094  0.7749386712114729  1.0000
  O   O10       1.0  0.2523411860191445  0.3487005197209783  0.22507340151254596  1.0000
  O   O11       1.0  0.5116174929346046  0.7165062081768454  0.7797423388885889  1.0000
  O   O12       1.0  0.4883913697315022  0.2834807813944664  0.22025290464507932  1.0000
  O   O13       1.0  0.22892021402336132  0.3353601311222576  0.9018543426372716  1.0000
  O   O14       1.0  0.7710910668427787  0.664649934453621  0.09814533956332373  1.0000
  O   O15       1.0  0.3502532108449116  0.1253067886441244  0.9436080550217624  1.0000
  O   O16       1.0  0.6497675505763709  0.874690794041598  0.05639101258810802  1.0000
