data_image0
_chemical_formula_structural       Cd3H40C54N4O18
_chemical_formula_sum              "Cd3 H40 C54 N4 O18"
_cell_length_a       8.606281810906982
_cell_length_b       12.3998727158273
_cell_length_c       13.882458928895272
_cell_angle_alpha    103.91825797600254
_cell_angle_beta     99.60010398751263
_cell_angle_gamma    100.01390558774756

_space_group_name_H-M_alt    "P 1"
_space_group_IT_number       1

loop_
  _space_group_symop_operation_xyz
  'x, y, z'

loop_
  _atom_site_type_symbol
  _atom_site_label
  _atom_site_symmetry_multiplicity
  _atom_site_fract_x
  _atom_site_fract_y
  _atom_site_fract_z
  _atom_site_occupancy
  Cd  Cd1       1.0  1.5452766177839108e-06  0.5000005521084461  2.3336417597802854e-06  1.0000
  Cd  Cd2       1.0  0.25298717964150796  0.5447029948255705  0.25198887103902473  1.0000
  Cd  Cd3       1.0  0.7470139285460249  0.4552954141639134  0.7480111657549384  1.0000
  H   H1        1.0  0.2526137723946674  0.20170098225369767  0.9288883237474649  1.0000
  H   H2        1.0  0.7473880610008262  0.7982957503085116  0.07110782655155383  1.0000
  H   H3        1.0  0.4494278931362387  0.29277456758297393  0.9747461645116002  1.0000
  H   H4        1.0  0.5505725506203304  0.7072255375229232  0.025254167816356622  1.0000
  H   H5        1.0  0.9655178817491292  0.769434208015703  0.5651142060327459  1.0000
  H   H6        1.0  0.03448163925295939  0.2305667408216436  0.4348862087280948  1.0000
  H   H7        1.0  0.6793608052396961  0.36103643177946043  0.1474187203392033  1.0000
  H   H8        1.0  0.32064153264743567  0.6389620016148356  0.8525785743542185  1.0000
  H   H9        1.0  0.7805704530946187  0.2761816627523856  0.06940693010065499  1.0000
  H   H10       1.0  0.21943277108081108  0.7238159150969709  0.9305924367364536  1.0000
  H   H11       1.0  0.5679721590999662  0.9473331214679348  0.8307449168603752  1.0000
  H   H12       1.0  0.4320268319586659  0.05266190083082022  0.16924839132343544  1.0000
  H   H13       1.0  0.10022597214632607  0.022230343635229105  0.09856329967043108  1.0000
  H   H14       1.0  0.8997764398142036  0.9777723312168902  0.901437084436864  1.0000
  H   H15       1.0  0.46105116912640637  0.12061127794839882  0.882140942160113  1.0000
  H   H16       1.0  0.5389492491783513  0.8793846014509937  0.11785342798520997  1.0000
  H   H17       1.0  0.9603894579538518  0.1763237964923619  0.0881942590036573  1.0000
  H   H18       1.0  0.0396083653231898  0.8236754389215619  0.911805598886765  1.0000
  H   H19       1.0  0.23873915415266816  0.8946468890869141  0.14199801808447177  1.0000
  H   H20       1.0  0.7612655215796876  0.10535155373874257  0.8580009743297621  1.0000
  H   H21       1.0  0.04265315453468329  0.8100054647296488  0.07889550018785488  1.0000
  H   H22       1.0  0.9573503412606783  0.1899971872733417  0.9211107601251809  1.0000
  H   H23       1.0  0.8683465971338009  0.9573120215266755  0.3378930862383454  1.0000
  H   H24       1.0  0.1316579186592293  0.04268981824748861  0.6621073461042712  1.0000
  H   H25       1.0  0.11970468301858969  0.5323347536474188  0.4557623594528976  1.0000
  H   H26       1.0  0.8802936698390339  0.46765852450312206  0.5442377044506158  1.0000
  H   H27       1.0  0.5694650197114299  0.5875872180788165  0.1445057507501346  1.0000
  H   H28       1.0  0.4305352762612172  0.41241628791342316  0.8554953033140219  1.0000
  H   H29       1.0  0.7236944986896532  0.11414168027285142  0.32587953835706424  1.0000
  H   H30       1.0  0.2763025496168297  0.8858549979861792  0.674119680230042  1.0000
  H   H31       1.0  0.5131452558035647  0.6912634546587524  0.7183875665758632  1.0000
  H   H32       1.0  0.48685229699456295  0.30873492443237893  0.2816127964056392  1.0000
  H   H33       1.0  0.7906071176570107  0.7503043079084148  0.6861012047942548  1.0000
  H   H34       1.0  0.20939087771475323  0.2496915344948221  0.31389649497558736  1.0000
  H   H35       1.0  0.9967857016044803  0.7440865323436655  0.3816952499005095  1.0000
  H   H36       1.0  0.0032099319741405196  0.25592117655452284  0.6183090890968472  1.0000
  H   H37       1.0  0.8656783441893835  0.6707599484919982  0.19678919533055955  1.0000
  H   H38       1.0  0.13432074561631419  0.329251206942196  0.8032126664466901  1.0000
  H   H39       1.0  0.2167416253823902  0.602352454591838  0.6449971968854766  1.0000
  H   H40       1.0  0.7832563578339773  0.3976433838735646  0.35500122107655585  1.0000
  C   C1        1.0  0.5008906727774375  0.6364220183078757  0.4632570642832974  1.0000
  C   C2        1.0  0.4991047883435868  0.3635771997990248  0.5367425322706936  1.0000
  C   C3        1.0  0.9366205489551476  0.4021596523342055  0.20190014817100624  1.0000
  C   C4        1.0  0.063381223663356  0.5978370605388578  0.7980995930889704  1.0000
  C   C5        1.0  0.569418921204182  0.6749877357733568  0.5695439248164645  1.0000
  C   C6        1.0  0.43057941871990113  0.32501320441048154  0.43045635927616377  1.0000
  C   C7        1.0  0.6032593883455633  0.6487616483611092  0.39210324524313467  1.0000
  C   C8        1.0  0.39673880379458376  0.35124269270907144  0.6078977605856932  1.0000
  C   C9        1.0  0.34016402396747486  0.2555872567131417  0.9982486281881149  1.0000
  C   C10       1.0  0.6598342297278064  0.7444094380750529  0.0017492846828303836  1.0000
  C   C11       1.0  0.43785222471462487  0.0969450083668448  0.0297871080126342  1.0000
  C   C12       1.0  0.5621479352666154  0.9030500186475834  0.9702070490315858  1.0000
  C   C13       1.0  0.8308149608062293  0.1544490424795697  0.20587764422958799  1.0000
  C   C14       1.0  0.16918432618312812  0.8455510618484753  0.7941211210457693  1.0000
  C   C15       1.0  0.18481221682102242  0.7330667230036099  0.17328657364520686  1.0000
  C   C16       1.0  0.8151934435838156  0.26693511361057176  0.8267161439422067  1.0000
  C   C17       1.0  0.8360576320474846  0.733977124820619  0.5372238237405256  1.0000
  C   C18       1.0  0.1639428360198849  0.2660229881609339  0.46277507220305114  1.0000
  C   C19       1.0  0.7782228637970687  0.3155010966002365  0.14921888774286876  1.0000
  C   C20       1.0  0.2217794133130795  0.6844973171049203  0.850781997911504  1.0000
  C   C21       1.0  0.5405773733111233  0.9725896826110444  0.9057621703815568  1.0000
  C   C22       1.0  0.45942304499363473  0.02740619678834831  0.09423219976376628  1.0000
  C   C23       1.0  0.0169736296843013  0.0401122992003877  0.14834491637033403  1.0000
  C   C24       1.0  0.9830311322768494  0.9598903890209131  0.8516564472655828  1.0000
  C   C25       1.0  0.47886770980337445  0.06924333983457129  0.9347628037746031  1.0000
  C   C26       1.0  0.5211343940710405  0.9307542490504231  0.06523284143332822  1.0000
  C   C27       1.0  0.9371138890289712  0.128520188922522  0.1425365427125342  1.0000
  C   C28       1.0  0.0628868130511223  0.8714807685683327  0.8574640027165257  1.0000
  C   C29       1.0  0.269501797845507  0.35372398511338315  0.048776706422671554  1.0000
  C   C30       1.0  0.7304932944124047  0.6462701273372602  0.9512217421929136  1.0000
  C   C31       1.0  0.9917099295961052  0.9784079051178765  0.21861207336216637  1.0000
  C   C32       1.0  0.008296517934688604  0.021596492589026205  0.7813905653363589  1.0000
  C   C33       1.0  0.132419077283636  0.8375301925403135  0.15164799093560785  1.0000
  C   C34       1.0  0.8675880225227317  0.1624725051123406  0.848355070421121  1.0000
  C   C35       1.0  0.8863206526322145  0.0057855961041610995  0.2831643888869948  1.0000
  C   C36       1.0  0.11367990166395008  0.994218762273036  0.7168368782782649  1.0000
  C   C37       1.0  0.24585023033297665  0.5742245233492654  0.4907293964571051  1.0000
  C   C38       1.0  0.7541477164172007  0.4257713033026534  0.5092711760814979  1.0000
  C   C39       1.0  0.6293911383317194  0.6197088672593979  0.22485926927522115  1.0000
  C   C40       1.0  0.3706084932099571  0.3802963348492554  0.7751420803229221  1.0000
  C   C41       1.0  0.8068941585593876  0.09282086308224541  0.2767666601347329  1.0000
  C   C42       1.0  0.19310446399900624  0.9071809373622131  0.723232400674618  1.0000
  C   C43       1.0  0.4646913573157646  0.6619655322856843  0.6363512775501119  1.0000
  C   C44       1.0  0.535305002248954  0.3380328342141041  0.3636496729553754  1.0000
  C   C45       1.0  0.7391613472404187  0.7236757646711992  0.6045721027125167  1.0000
  C   C46       1.0  0.26083883819263315  0.2763234880497336  0.3954280165143373  1.0000
  C   C47       1.0  0.8673094137178408  0.706514463013363  0.3574258823137412  1.0000
  C   C48       1.0  0.13268677297401152  0.2934949624682446  0.6425767283092438  1.0000
  C   C49       1.0  0.7713945311990429  0.6976790545119729  0.42978439703390586  1.0000
  C   C50       1.0  0.2286012987850938  0.3023252692511917  0.5702163474584906  1.0000
  C   C51       1.0  0.796301229627467  0.6669223320386805  0.2548615248658023  1.0000
  C   C52       1.0  0.20369613814239074  0.33308710209642817  0.745141216425402  1.0000
  C   C53       1.0  0.30252240971401534  0.6116553820925077  0.5966261869003588  1.0000
  C   C54       1.0  0.6974758075150759  0.3883413008822031  0.4033738805471571  1.0000
  N   N1        1.0  0.3417730966533767  0.5866001163048863  0.4263918107066259  1.0000
  N   N2        1.0  0.6582232750667388  0.41339825413272996  0.5736084216066644  1.0000
  N   N3        1.0  0.5359502086837722  0.6117101429118819  0.2912296766799398  1.0000
  N   N4        1.0  0.46404703639109357  0.3882950340140923  0.708772847966152  1.0000
  O   O1        1.0  0.9855745188298428  0.47466970397127284  0.1543862741326549  1.0000
  O   O2        1.0  0.014424965706055662  0.5253312330525903  0.8456162952047561  1.0000
  O   O3        1.0  0.20981699712582005  0.6611126763769519  0.09756052454169858  1.0000
  O   O4        1.0  0.7901836684880762  0.3388882693004119  0.9024421754639318  1.0000
  O   O5        1.0  0.378641206047341  0.19101714804945402  0.06695994161801622  1.0000
  O   O6        1.0  0.6213577242343007  0.8089778545601546  0.9330369575267523  1.0000
  O   O7        1.0  0.7394441711922397  0.23453916570023378  0.20305889952451386  1.0000
  O   O8        1.0  0.26055602639621617  0.7654600909585271  0.7969405015101498  1.0000
  O   O9        1.0  0.013061970767402913  0.40317345823190465  0.28713976488565146  1.0000
  O   O10       1.0  0.9869411307130348  0.5968198624083244  0.7128593853063377  1.0000
  O   O11       1.0  0.3027767839105664  0.3886821469775014  0.14471044441439318  1.0000
  O   O12       1.0  0.6972188371497837  0.6113136741808916  0.8552877122112079  1.0000
  O   O13       1.0  0.20238362802822246  0.7236842922297201  0.26297006851523  1.0000
  O   O14       1.0  0.7976167792621568  0.2763158010626867  0.7370324183892973  1.0000
  O   O15       1.0  0.18570491727550825  0.39160229912729244  0.9853333928990364  1.0000
  O   O16       1.0  0.8142878006709965  0.6083917920785071  0.014665512572307245  1.0000
  O   O17       1.0  0.06528030269954849  0.8915963770174001  0.23217290553787243  1.0000
  O   O18       1.0  0.9347328008810506  0.10841061323626629  0.7678324621894317  1.0000
