data_image0
_chemical_formula_structural       Zn2H19C33N2ClO9
_chemical_formula_sum              "Zn2 H19 C33 N2 Cl1 O9"
_cell_length_a       9.714620279949273
_cell_length_b       11.042882606028243
_cell_length_c       17.70962503089464
_cell_angle_alpha    90.84979095757058
_cell_angle_beta     90.46215595910307
_cell_angle_gamma    90.01101569757182

_space_group_name_H-M_alt    "P 1"
_space_group_IT_number       1

loop_
  _space_group_symop_operation_xyz
  'x, y, z'

loop_
  _atom_site_type_symbol
  _atom_site_label
  _atom_site_symmetry_multiplicity
  _atom_site_fract_x
  _atom_site_fract_y
  _atom_site_fract_z
  _atom_site_occupancy
  Zn  Zn1       1.0  0.6394270678796802  0.48386058835203744  0.5004839181129697  1.0000
  Zn  Zn2       1.0  0.35553350979959936  0.48514124943680065  0.500729053240832  1.0000
  H   H1        1.0  0.7054155225041542  0.6236882771145672  0.8772107703411862  1.0000
  H   H2        1.0  0.28462674537090754  0.09813086830592248  0.4689944592828894  1.0000
  H   H3        1.0  0.7970859191798784  0.0929781405585075  0.5734508663829487  1.0000
  H   H4        1.0  0.8377619037892503  0.8788223691691285  0.46319314414621  1.0000
  H   H5        1.0  0.8072445586731193  0.8652529442585506  0.5622626626758986  1.0000
  H   H6        1.0  0.12944480026070693  0.3828826815255014  0.6002212757867369  1.0000
  H   H7        1.0  0.8691744206292641  0.38077100048584367  0.5996810001771351  1.0000
  H   H8        1.0  0.8655606153309281  0.5541814366245249  0.3290725446046068  1.0000
  H   H9        1.0  0.8624407846959488  0.6926640985334201  0.3827438780601256  1.0000
  H   H10       1.0  0.12779929682584884  0.559419266428776  0.3301075993258138  1.0000
  H   H11       1.0  0.7100057456262123  0.5782480597501306  0.7384949421518385  1.0000
  H   H12       1.0  0.12435633173744522  0.6965721134420876  0.3844081732704367  1.0000
  H   H13       1.0  0.27465649547332305  0.5132850489759235  0.7388602761589381  1.0000
  H   H14       1.0  0.2679935591404076  0.5570546986259332  0.8776739939275585  1.0000
  H   H15       1.0  0.6273962125357997  0.719908100772294  0.1470283024317922  1.0000
  H   H16       1.0  0.6321499252144919  0.664928722956745  0.2825536239719639  1.0000
  H   H17       1.0  0.33984872519415193  0.4298697769285979  0.1019606745261186  1.0000
  H   H18       1.0  0.2840640924730948  0.872857891967563  0.4700183217414846  1.0000
  H   H19       1.0  0.2542897325997373  0.30881786912858894  0.19439203229946858  1.0000
  C   C1        1.0  0.5006150371316594  0.7204236610445846  0.4931351761137818  1.0000
  C   C2        1.0  0.48673907420146645  0.591263717164523  0.8869719565495373  1.0000
  C   C3        1.0  0.48513052512066684  0.6027584717209251  0.9667670026374965  1.0000
  C   C4        1.0  0.48493897857297713  0.6000428378864768  0.0356837936775634  1.0000
  C   C5        1.0  0.5660443564489839  0.644079890491895  0.1666155941204011  1.0000
  C   C6        1.0  0.5692531991382384  0.6125812141991317  0.2425526399265934  1.0000
  C   C7        1.0  0.4922372496572083  0.5151720255791402  0.2690230244057332  1.0000
  C   C8        1.0  0.40882863616698734  0.44904116552116596  0.2173615799110777  1.0000
  C   C9        1.0  0.4038515741892399  0.48210347733952125  0.1415883714138602  1.0000
  C   C10       1.0  0.48406348799800014  0.578155265602021  0.1143663870840683  1.0000
  C   C11       1.0  0.6230836617649872  0.9223350708851114  0.4953019880767755  1.0000
  C   C12       1.0  0.4936429394425447  0.4912374284045881  0.3524516102120927  1.0000
  C   C13       1.0  0.5023301638364331  0.8549403114592806  0.4877018047931613  1.0000
  C   C14       1.0  0.3805779965820265  0.9222276860399672  0.47723780140549366  1.0000
  C   C15       1.0  0.38053308813763215  0.048661680950615994  0.4772431212585673  1.0000
  C   C16       1.0  0.501911448190974  0.11616810335156912  0.48960840467459826  1.0000
  C   C17       1.0  0.6224203929669657  0.04870065122276661  0.49728651116954836  1.0000
  C   C18       1.0  0.7741358222491855  0.055411754900425984  0.5171059209764407  1.0000
  C   C19       1.0  0.776316470915333  0.9128016892909228  0.5107660552213816  1.0000
  C   C20       1.0  0.06822140471592773  0.5345259825112406  0.4486710529810836  1.0000
  C   C21       1.0  0.07020304566671601  0.42684827194624114  0.5558543215776625  1.0000
  C   C22       1.0  0.926523896231622  0.4257581223465794  0.555515993425054  1.0000
  C   C23       1.0  0.4984772880639172  0.2507402886678207  0.49694236319869833  1.0000
  C   C24       1.0  0.9247593690175719  0.5331338561965351  0.4482775584923857  1.0000
  C   C25       1.0  0.9132780712901223  0.6044132645667303  0.3763788764224642  1.0000
  C   C26       1.0  0.07720949378122552  0.6067756440165439  0.37714281038120123  1.0000
  C   C27       1.0  0.49671208945235906  0.5094344531896623  0.6480665103792802  1.0000
  C   C28       1.0  0.6111927106812162  0.5996094163113026  0.8467319733960891  1.0000
  C   C29       1.0  0.6139274851368555  0.5739200702920255  0.7697069948205381  1.0000
  C   C30       1.0  0.49310470349388413  0.5406364187423734  0.7307173566075277  1.0000
  C   C31       1.0  0.368314650922784  0.5369779940452518  0.7699459504059759  1.0000
  C   C32       1.0  0.3646117803021554  0.5617642967211866  0.8469900408856856  1.0000
  C   C33       1.0  0.33208497428690725  0.338499123928699  0.2379395049737525  1.0000
  N   N1        1.0  0.1442469957492918  0.482869483306068  0.5017322064895069  1.0000
  N   N2        1.0  0.8505672448669375  0.4806072437894071  0.5010876539024735  1.0000
  Cl  Cl1       1.0  0.8867588568612349  0.13171793606260002  0.45331585936516916  1.0000
  O   O1        1.0  0.6159351770312186  0.6665868844131212  0.4844818802458448  1.0000
  O   O2        1.0  0.3858213255342521  0.6701850243686422  0.5069223911605647  1.0000
  O   O3        1.0  0.6089695554746016  0.467078266330951  0.3827566083994398  1.0000
  O   O4        1.0  0.37924358444501394  0.5059150481691645  0.3855467738307325  1.0000
  O   O5        1.0  0.6133275399152751  0.30289360508988483  0.5109850515891735  1.0000
  O   O6        1.0  0.3824675933223532  0.30283635969929174  0.48997026183043596  1.0000
  O   O7        1.0  0.6130282332021936  0.5149152345755682  0.615407024539266  1.0000
  O   O8        1.0  0.382872420094806  0.48003038573227025  0.6163594060215516  1.0000
  O   O9        1.0  0.35089403683335973  0.2797371567266396  0.2950181298151051  1.0000
