data_image0
_chemical_formula_structural       Ni2H22C32N8O14
_chemical_formula_sum              "Ni2 H22 C32 N8 O14"
_cell_length_a       7.183201536690828
_cell_length_b       7.5101034401146665
_cell_length_c       14.556612136053639
_cell_angle_alpha    97.99648806968462
_cell_angle_beta     99.92598321830866
_cell_angle_gamma    89.54000612471359

_space_group_name_H-M_alt    "P 1"
_space_group_IT_number       1

loop_
  _space_group_symop_operation_xyz
  'x, y, z'

loop_
  _atom_site_type_symbol
  _atom_site_label
  _atom_site_symmetry_multiplicity
  _atom_site_fract_x
  _atom_site_fract_y
  _atom_site_fract_z
  _atom_site_occupancy
  Ni  Ni1       1.0  0.5000007467708228  0.5000012234314537  1.0482642451893023e-06  1.0000
  Ni  Ni2       1.0  0.9999957740461551  1.1549301599892119e-07  0.9999980911895178  1.0000
  H   H1        1.0  0.2969664876929911  0.13121798273584764  0.9791841110143692  1.0000
  H   H2        1.0  0.7030260884087125  0.8687830695795566  0.020812753294819675  1.0000
  H   H3        1.0  0.09603985107777649  0.9413872890353827  0.7757776377512469  1.0000
  H   H4        1.0  0.9039723503643627  0.05860828805738548  0.22422534802255703  1.0000
  H   H5        1.0  0.17413060523954013  0.5104092171792302  0.5590232118320485  1.0000
  H   H6        1.0  0.8258688492351781  0.48958509397530736  0.4409778972981683  1.0000
  H   H7        1.0  0.0677818162353603  0.7041700778952629  0.4375452504809373  1.0000
  H   H8        1.0  0.9322191424858488  0.29582826791568095  0.5624576446083934  1.0000
  H   H9        1.0  0.24944382746802776  0.2562866574551491  0.2705663699426495  1.0000
  H   H10       1.0  0.7505559635097255  0.7437210915331459  0.7294343337014266  1.0000
  H   H11       1.0  0.3783520811294353  0.4321262374777674  0.42490982981296094  1.0000
  H   H12       1.0  0.6216448432285516  0.5678801950430382  0.5750919081232765  1.0000
  H   H13       1.0  0.46015704583683  0.7616221690819953  0.43223131693954986  1.0000
  H   H14       1.0  0.5398328939215843  0.23838698003523717  0.5677672596121892  1.0000
  H   H15       1.0  0.006737014346199998  0.14246150916018502  0.6560200024726085  1.0000
  H   H16       1.0  0.9932752162242479  0.8575354175322685  0.3439837671446071  1.0000
  H   H17       1.0  0.3741697825407328  0.7820481775441123  0.8509159964488262  1.0000
  H   H18       1.0  0.6258311179238588  0.2179474690674752  0.14908533095369586  1.0000
  H   H19       1.0  0.21149581644488075  0.23885165874653308  0.8302207899255762  1.0000
  H   H20       1.0  0.7885037836713877  0.7611494004064027  0.16978423842167698  1.0000
  H   H21       1.0  0.32311439185866675  0.9172983036059319  0.987463589068696  1.0000
  H   H22       1.0  0.6768795935679464  0.08270274426067198  0.012534083656085215  1.0000
  C   C1        1.0  0.30409452094599476  0.6576507737506031  0.19415168468626112  1.0000
  C   C2        1.0  0.6959036013020778  0.3423462168174963  0.8058467487484292  1.0000
  C   C3        1.0  0.2595188732651224  0.753221258469267  0.10802362193728496  1.0000
  C   C4        1.0  0.740483389572745  0.2467716699534036  0.8919748852139617  1.0000
  C   C5        1.0  0.029752309535858487  0.9407237333040964  0.5363224602831947  1.0000
  C   C6        1.0  0.9702557437798375  0.059275915627942787  0.46368182576075156  1.0000
  C   C7        1.0  0.09499686544531727  0.8928939544730239  0.7015069467843844  1.0000
  C   C8        1.0  0.9050096140622869  0.10709897514401938  0.29849604659369067  1.0000
  C   C9        1.0  0.37445303240527045  0.7549995716122666  0.2831181515978187  1.0000
  C   C10       1.0  0.6255424685728174  0.24500549636998403  0.7168792461060177  1.0000
  C   C11       1.0  0.13519385968992031  0.648891107857949  0.5790279112752541  1.0000
  C   C12       1.0  0.8648099073944379  0.35110585522112797  0.4209723818350994  1.0000
  C   C13       1.0  0.261097605975074  0.47414055082028717  0.19116409365724954  1.0000
  C   C14       1.0  0.7389034157894087  0.5258591009680555  0.8088334023353381  1.0000
  C   C15       1.0  0.076729551271832  0.7602840676698148  0.5112508928132726  1.0000
  C   C16       1.0  0.9232742665324877  0.23971560430245376  0.48875234197059564  1.0000
  C   C17       1.0  0.14292975874636224  0.7152657017940454  0.673838774869651  1.0000
  C   C18       1.0  0.8570753772296057  0.2847299217773127  0.326163603792942  1.0000
  C   C19       1.0  0.20174911026738576  0.3441897596553218  0.10199901578255317  1.0000
  C   C20       1.0  0.7982575272050738  0.6558085150443133  0.8979995560422935  1.0000
  C   C21       1.0  0.28525551918030356  0.3977205183865492  0.27489684164520867  1.0000
  C   C22       1.0  0.7147428662408756  0.6022872302036216  0.7251023665899293  1.0000
  C   C23       1.0  0.3574935879880811  0.49707125243721595  0.36160868732304147  1.0000
  C   C24       1.0  0.6425033514432243  0.5029351606959124  0.6383903026397987  1.0000
  C   C25       1.0  0.4031823808441145  0.6778661386821127  0.36622592172881235  1.0000
  C   C26       1.0  0.5968188091718858  0.3221402320231092  0.6337713715207015  1.0000
  C   C27       1.0  0.0409962818832454  0.0038629422628772988  0.6329918646997611  1.0000
  C   C28       1.0  0.9590188368986219  0.9961366601905791  0.36701302845539624  1.0000
  C   C29       1.0  0.3114738154422128  0.6495042431852551  0.8278831780010021  1.0000
  C   C30       1.0  0.688527088790707  0.35049139857941464  0.1721174624081669  1.0000
  C   C31       1.0  0.22783447081740593  0.3734134191347351  0.8134712748583153  1.0000
  C   C32       1.0  0.7721651114755375  0.6265862758777628  0.18653090866547464  1.0000
  N   N1        1.0  0.331102539599506  0.5070996963744034  0.8737707753921738  1.0000
  N   N2        1.0  0.6688970793584017  0.4929013385439375  0.12623081798832905  1.0000
  N   N3        1.0  0.20149754108619075  0.6027127646242078  0.7434692460900648  1.0000
  N   N4        1.0  0.7985033189451088  0.39728154692845385  0.2565333584490972  1.0000
  N   N5        1.0  0.4284373122936671  0.945205164440196  0.29170460563992145  1.0000
  N   N6        1.0  0.5715554029312528  0.05480125719240898  0.708291272082782  1.0000
  N   N7        1.0  0.1470094015827428  0.4255879621970278  0.732736493714661  1.0000
  N   N8        1.0  0.852991495113514  0.574407689261477  0.2672655206812066  1.0000
  O   O1        1.0  0.25306002416967743  0.006925016951051097  0.9504166353408363  1.0000
  O   O2        1.0  0.7469339283602993  0.9930746861627923  0.049580940533886037  1.0000
  O   O3        1.0  0.3700376426799749  0.7385759823250236  0.04749464377484705  1.0000
  O   O4        1.0  0.6299633893711698  0.26142504329759214  0.9525070710278953  1.0000
  O   O5        1.0  0.1094719398988246  0.8429228208727934  0.10329785996463407  1.0000
  O   O6        1.0  0.8905275587775208  0.15707282049374524  0.8967012850355898  1.0000
  O   O7        1.0  0.2930543557027292  0.34480702236221805  0.03357667801808619  1.0000
  O   O8        1.0  0.7069522742330676  0.6551912620312662  0.9664232677934661  1.0000
  O   O9        1.0  0.4454769978599059  0.03719327389504909  0.37054926786314707  1.0000
  O   O10       1.0  0.5545199641813809  0.96281311015656  0.62944560013959  1.0000
  O   O11       1.0  0.4566441503977358  0.0040660213273895  0.21938356894484903  1.0000
  O   O12       1.0  0.543341474001025  0.9959390923371952  0.7806102308298931  1.0000
  O   O13       1.0  0.0737461150199863  0.22984378282426823  0.1023747671745596  1.0000
  O   O14       1.0  0.9262521350463115  0.7701585916017846  0.8976247406537039  1.0000
