data_image0
_chemical_formula_structural       Gd2P4H34C32O22
_chemical_formula_sum              "Gd2 P4 H34 C32 O22"
_cell_length_a       5.594212396723776
_cell_length_b       9.292310123483087
_cell_length_c       18.37631836188019
_cell_angle_alpha    104.51696786677886
_cell_angle_beta     92.0117851957024
_cell_angle_gamma    96.51645903136804

_space_group_name_H-M_alt    "P 1"
_space_group_IT_number       1

loop_
  _space_group_symop_operation_xyz
  'x, y, z'

loop_
  _atom_site_type_symbol
  _atom_site_label
  _atom_site_symmetry_multiplicity
  _atom_site_fract_x
  _atom_site_fract_y
  _atom_site_fract_z
  _atom_site_occupancy
  Gd  Gd1       1.0  0.11822727735247437  0.8048154759907503  0.002518591119063294  1.0000
  Gd  Gd2       1.0  0.881775963931922  0.19518481788831113  0.9974807879789293  1.0000
  P   P1        1.0  0.38646644655268864  0.0982744885620548  0.10559733129965568  1.0000
  P   P2        1.0  0.6135353462835837  0.9017190796974148  0.8944000943532087  1.0000
  P   P3        1.0  0.2586612149597016  0.5321668977325659  0.10504154610568857  1.0000
  P   P4        1.0  0.7413351080826374  0.4678345576912692  0.894959532142124  1.0000
  H   H1        1.0  0.60273933421756  0.1448007295082832  0.3162742445380927  1.0000
  H   H2        1.0  0.39726875178763515  0.8551973008600485  0.6837281700905817  1.0000
  H   H3        1.0  0.4824600029578577  0.004575427635643301  0.4091391633122895  1.0000
  H   H4        1.0  0.5175329897829783  0.9954271673329914  0.5908620202089166  1.0000
  H   H5        1.0  0.7723469374894163  0.8809609347046675  0.29813557053201106  1.0000
  H   H6        1.0  0.2276627359747891  0.11903595643477867  0.7018618211032359  1.0000
  H   H7        1.0  0.8897849134936493  0.024637253437759896  0.20484744865224505  1.0000
  H   H8        1.0  0.11022630847505614  0.9753585066130416  0.7951492740149105  1.0000
  H   H9        1.0  0.5040409011411029  0.2618691815952586  0.22536651259756008  1.0000
  H   H10       1.0  0.4959745989070328  0.7381299263880835  0.7746334026878967  1.0000
  H   H11       1.0  0.20128998550173086  0.26761554324951936  0.19682750853509384  1.0000
  H   H12       1.0  0.7987127551124686  0.7323825124872912  0.8031732150094653  1.0000
  H   H13       1.0  0.5342078362918627  0.6535148727067082  0.31042481163448327  1.0000
  H   H14       1.0  0.46577516554448545  0.34649114089634037  0.6895766877068963  1.0000
  H   H15       1.0  0.4771363848078281  0.5204944221638356  0.410980983996552  1.0000
  H   H16       1.0  0.5228580661197666  0.47951489638933953  0.589021064463452  1.0000
  H   H17       1.0  0.7480060595365217  0.3587858892788489  0.32435785137462136  1.0000
  H   H18       1.0  0.2519913210787479  0.6412121948790245  0.6756428138453286  1.0000
  H   H19       1.0  0.8043705071096098  0.48646995064817133  0.2206797419338996  1.0000
  H   H20       1.0  0.1956235432041638  0.5135292730545159  0.7793210285594437  1.0000
  H   H21       1.0  0.3522471018349549  0.7465935921160424  0.20880546877988584  1.0000
  H   H22       1.0  0.6477382727863271  0.25340679649992387  0.7911937159027429  1.0000
  H   H23       1.0  0.03988692694937164  0.7015857440176493  0.18453205877089118  1.0000
  H   H24       1.0  0.9601046222126541  0.298410124313861  0.8154666270520179  1.0000
  H   H25       1.0  0.17176994696204417  0.8126827848094466  0.5111695455967575  1.0000
  H   H26       1.0  0.8282248421837365  0.18731979865044227  0.4888305688596474  1.0000
  H   H27       1.0  0.5497678813996885  0.3885786457812089  0.10113376684530807  1.0000
  H   H28       1.0  0.45023405441133946  0.6114238997839152  0.8988664253772496  1.0000
  H   H29       1.0  0.2008869472250012  0.30305119416409104  0.5219518520642835  1.0000
  H   H30       1.0  0.7991144976544575  0.6969491112237237  0.47804859609851025  1.0000
  H   H31       1.0  0.7241383098939521  0.668935567947692  0.0824846200531582  1.0000
  H   H32       1.0  0.2758626781391413  0.33106249014009853  0.9175122742777045  1.0000
  H   H33       1.0  0.6689032882326559  0.8362284733546873  0.08847605695356005  1.0000
  H   H34       1.0  0.3310928356023836  0.1637718523139569  0.9115199788592957  1.0000
  C   C1        1.0  0.25554176593244904  0.09526158233840931  0.25368681371482177  1.0000
  C   C2        1.0  0.7444676401540633  0.9047341932912617  0.7463131550297886  1.0000
  C   C3        1.0  0.4204690959746955  0.0864788572054636  0.3111021719738644  1.0000
  C   C4        1.0  0.579541510659503  0.9135225244639074  0.6889001503125767  1.0000
  C   C5        1.0  0.35430212678644313  0.008146252952961702  0.3638815455333741  1.0000
  C   C6        1.0  0.6457041920296973  0.9918517828189412  0.6361186726410962  1.0000
  C   C7        1.0  0.11970238082130888  0.9340360654441755  0.3595964761032845  1.0000
  C   C8        1.0  0.8803005687388178  0.0659631180127676  0.640408201369908  1.0000
  C   C9        1.0  0.9545646841550947  0.9388251880132471  0.3013103967609822  1.0000
  C   C10       1.0  0.045444474030972494  0.061169468036538915  0.6986899720803306  1.0000
  C   C11       1.0  0.0212424594678922  0.0195667026837825  0.24914257981379245  1.0000
  C   C12       1.0  0.9787613484578727  0.9804279797520081  0.7508566421965737  1.0000
  C   C13       1.0  0.3342705207391745  0.19139353549223162  0.20202322627481095  1.0000
  C   C14       1.0  0.6657409296527205  0.8086033482085854  0.7979752733083031  1.0000
  C   C15       1.0  0.05119119138724669  0.8540945969332869  0.41759363165488844  1.0000
  C   C16       1.0  0.9488049886803366  0.1458978811848937  0.5824046800232237  1.0000
  C   C17       1.0  0.17446078856584524  0.5762625303609495  0.2573468920591821  1.0000
  C   C18       1.0  0.8255283169707609  0.4237468135607045  0.7426534653167206  1.0000
  C   C19       1.0  0.362417892566306  0.5860994117174912  0.31155740985698793  1.0000
  C   C20       1.0  0.6375799838498466  0.41390091160017317  0.6884424551695643  1.0000
  C   C21       1.0  0.3318551680904847  0.5124698853913544  0.3686629387832382  1.0000
  C   C22       1.0  0.668140826472296  0.48753830309070173  0.6313389849618359  1.0000
  C   C23       1.0  0.11074608025894149  0.42833124824413465  0.3724075386757163  1.0000
  C   C24       1.0  0.8892471652516531  0.5716724652868665  0.6275927004956258  1.0000
  C   C25       1.0  0.9210364230536568  0.42031421270291264  0.3190044373671269  1.0000
  C   C26       1.0  0.0789543018279346  0.5796861495270421  0.6809958941464415  1.0000
  C   C27       1.0  0.9525939327318084  0.4924679948874769  0.26190165481642674  1.0000
  C   C28       1.0  0.04740192372553759  0.507531215271392  0.7380969581057852  1.0000
  C   C29       1.0  0.20429127474773887  0.6535925573131324  0.19516100273123263  1.0000
  C   C30       1.0  0.7957027901739764  0.34640666333696407  0.8048381350026117  1.0000
  C   C31       1.0  0.0681143864127236  0.3466594152921658  0.4310670757302474  1.0000
  C   C32       1.0  0.9318827803873049  0.6533375421631149  0.5689301798142379  1.0000
  O   O1        1.0  0.4541653243834034  0.9390984933506986  0.09644164184694393  1.0000
  O   O2        1.0  0.545834676917245  0.06089508539999141  0.9035563086175457  1.0000
  O   O3        1.0  0.1434512786856672  0.07166730607851692  0.056925022359386894  1.0000
  O   O4        1.0  0.8565493711292406  0.92833748710256  0.9430738059750678  1.0000
  O   O5        1.0  0.580475539366816  0.2050532556175568  0.08059192048997937  1.0000
  O   O6        1.0  0.4195307794493245  0.7949447801543457  0.9194082976844907  1.0000
  O   O7        1.0  0.21976011609926624  0.8741426215697957  0.47233220023701944  1.0000
  O   O8        1.0  0.780244391703988  0.12585542876344394  0.527670719761744  1.0000
  O   O9        1.0  0.8516342934690114  0.7760549248476354  0.4145611335718015  1.0000
  O   O10       1.0  0.14836431204052053  0.22394876026229582  0.5854391639241497  1.0000
  O   O11       1.0  0.2507993648989313  0.6216269493156189  0.04642746259869305  1.0000
  O   O12       1.0  0.7492000551524074  0.3783722439309258  0.953572277712922  1.0000
  O   O13       1.0  0.5316900786548401  0.49870729146169873  0.11506119914132276  1.0000
  O   O14       1.0  0.46830803105380164  0.5012941544884485  0.884939898548026  1.0000
  O   O15       1.0  0.08903811784171717  0.3866072192231016  0.08828782999893288  1.0000
  O   O16       1.0  0.9109648950194968  0.6133919510059443  0.9117097721830942  1.0000
  O   O17       1.0  0.24584895279259197  0.363596717745466  0.4827851657485309  1.0000
  O   O18       1.0  0.7541494145551227  0.6364058457495148  0.5172144433377922  1.0000
  O   O19       1.0  0.8715616631447246  0.2667892617701853  0.43004721527632467  1.0000
  O   O20       1.0  0.12844170650647868  0.7332200124671218  0.5699565631508676  1.0000
  O   O21       1.0  0.7998242940130635  0.7686316499778202  0.08080872007481327  1.0000
  O   O22       1.0  0.2001736164882857  0.23136866621713645  0.9191873351795793  1.0000
