data_image0
_chemical_formula_structural       Cu2H24C32N8O8
_chemical_formula_sum              "Cu2 H24 C32 N8 O8"
_cell_length_a       8.595811981241194
_cell_length_b       9.75224576221256
_cell_length_c       9.752229811153727
_cell_angle_alpha    70.82765387725878
_cell_angle_beta     86.22905024558729
_cell_angle_gamma    86.22896836936232

_space_group_name_H-M_alt    "P 1"
_space_group_IT_number       1

loop_
  _space_group_symop_operation_xyz
  'x, y, z'

loop_
  _atom_site_type_symbol
  _atom_site_label
  _atom_site_symmetry_multiplicity
  _atom_site_fract_x
  _atom_site_fract_y
  _atom_site_fract_z
  _atom_site_occupancy
  Cu  Cu1       1.0  0.25000074122116434  0.3393087267890422  0.660690630911148  1.0000
  Cu  Cu2       1.0  0.7500000117096733  0.6606903107576727  0.3393111035347189  1.0000
  H   H1        1.0  0.5029147279388299  0.1747205813902681  0.8474150811662041  1.0000
  H   H2        1.0  0.9970891397310809  0.15258464200510963  0.8252770021100061  1.0000
  H   H3        1.0  0.49709329395366814  0.82527301699551  0.15258597921372535  1.0000
  H   H4        1.0  0.00290700401221499  0.8474133113577339  0.1747263826603457  1.0000
  H   H5        1.0  0.6467177334958478  0.9340994695101231  0.8992630546533887  1.0000
  H   H6        1.0  0.8532859750538649  0.10073430191563662  0.06590036388397638  1.0000
  H   H7        1.0  0.3532843505360432  0.0658962958398632  0.1007345569890816  1.0000
  H   H8        1.0  0.14671477733742927  0.8992647403085527  0.9341034198653018  1.0000
  H   H9        1.0  0.13350891088688852  0.16099867260767547  0.5069496638653348  1.0000
  H   H10       1.0  0.36649144184447385  0.493049908599744  0.8390027867724754  1.0000
  H   H11       1.0  0.8664951214793318  0.8390047096259609  0.4930494198009326  1.0000
  H   H12       1.0  0.6335058139708067  0.5069491244853098  0.16099710065380174  1.0000
  H   H13       1.0  0.577025165188843  0.7589919679819774  0.7753076799416403  1.0000
  H   H14       1.0  0.9229794294018491  0.2246889263169152  0.24100914282436042  1.0000
  H   H15       1.0  0.422975643443479  0.2410059733994174  0.22469031185843139  1.0000
  H   H16       1.0  0.0770238186266425  0.7753068553322962  0.7589955739521059  1.0000
  H   H17       1.0  0.3380303920600056  0.7382548556250229  0.5570953303113341  1.0000
  H   H18       1.0  0.1619663846119863  0.4429063446774465  0.26174387548438455  1.0000
  H   H19       1.0  0.6619690321977743  0.2617474330697788  0.4429013050726026  1.0000
  H   H20       1.0  0.8380319281133524  0.5570948596176706  0.7382542079402085  1.0000
  H   H21       1.0  0.1259426922064506  0.9428035590957293  0.41631672091093463  1.0000
  H   H22       1.0  0.37405521124708235  0.5836837937997076  0.05719788219136028  1.0000
  H   H23       1.0  0.874057733799461  0.0572019922969744  0.5836798038137019  1.0000
  H   H24       1.0  0.6259418809708491  0.41631849737770926  0.9427999127001526  1.0000
  C   C1        1.0  0.472680377067718  0.0968621554618494  0.7961134303691395  1.0000
  C   C2        1.0  0.0273213520939279  0.20388441695180862  0.9031372661610674  1.0000
  C   C3        1.0  0.5273228720398748  0.9031336168324131  0.20388718780050388  1.0000
  C   C4        1.0  0.972676012156775  0.796112449528728  0.09686640714236455  1.0000
  C   C5        1.0  0.552468094626775  0.9612390718882864  0.8240421034051904  1.0000
  C   C6        1.0  0.9475357288123121  0.17595580131510494  0.03876124479316447  1.0000
  C   C7        1.0  0.44753276835814393  0.03875778502148821  0.17595726900760408  1.0000
  C   C8        1.0  0.05246629897854396  0.8240410648776689  0.9612421587985125  1.0000
  C   C9        1.0  0.5135303193789157  0.8637830982571728  0.7555518561036647  1.0000
  C   C10       1.0  0.9864712482050847  0.24444913090478335  0.13621650412943612  1.0000
  C   C11       1.0  0.48646821129638346  0.13621376347394692  0.24444970046842224  1.0000
  C   C12       1.0  0.013530779585771294  0.7555477352879977  0.8637868994622407  1.0000
  C   C13       1.0  0.3935625084376825  0.9068683075867913  0.6577356135398346  1.0000
  C   C14       1.0  0.10643491034522162  0.3422666788358271  0.09312980132751388  1.0000
  C   C15       1.0  0.6064349115145119  0.09312746272842527  0.34226431711780236  1.0000
  C   C16       1.0  0.8935646215386583  0.6577334502706692  0.9068736938886844  1.0000
  C   C17       1.0  0.3179325456301072  0.8455603749479649  0.566410099731172  1.0000
  C   C18       1.0  0.18205963601885597  0.4335931148238856  0.15443841226991142  1.0000
  C   C19       1.0  0.6820634353251691  0.15444082949102267  0.4335881185493021  1.0000
  C   C20       1.0  0.8179362900442654  0.5664091787642107  0.8455604747012443  1.0000
  C   C21       1.0  0.20727319727628674  0.9479857095396228  0.4946470103749049  1.0000
  C   C22       1.0  0.29272359988834046  0.5053538617022041  0.05201491568805494  1.0000
  C   C23       1.0  0.7927284495068109  0.05201875263203701  0.5053487782311094  1.0000
  C   C24       1.0  0.7072723264445527  0.4946484295471548  0.9479829466313988  1.0000
  C   C25       1.0  0.32018749148542003  0.0484454965936365  0.6355189718721448  1.0000
  C   C26       1.0  0.17981136642050188  0.36448387671003957  0.9515535139654003  1.0000
  C   C27       1.0  0.6798121499129837  0.9515524565533867  0.3644842106143925  1.0000
  C   C28       1.0  0.8201882208950763  0.6355151585698807  0.048447263256704794  1.0000
  C   C29       1.0  0.4667513365963175  0.4840092408610772  0.4340796624207001  1.0000
  C   C30       1.0  0.03325126762099731  0.5659204490492371  0.5159911236007487  1.0000
  C   C31       1.0  0.5332548628635223  0.5159974086759931  0.5659212924617378  1.0000
  C   C32       1.0  0.9667447690357562  0.4340796592244375  0.48400335203393036  1.0000
  N   N1        1.0  0.3562156230315026  0.14098338855527706  0.7032186355476923  1.0000
  N   N2        1.0  0.143786185280014  0.29678072012224993  0.8590173097163144  1.0000
  N   N3        1.0  0.6437886821768259  0.8590145619652604  0.29678325257538046  1.0000
  N   N4        1.0  0.8562123451255061  0.703216143947607  0.1409852715074749  1.0000
  N   N5        1.0  0.2088264346694473  0.07069601673777733  0.5359588520339071  1.0000
  N   N6        1.0  0.29117170195004866  0.46404251163844645  0.9293045836572417  1.0000
  N   N7        1.0  0.7911741546640412  0.9293062789013004  0.4640407898771955  1.0000
  N   N8        1.0  0.7088266105055184  0.5359586949954078  0.07069452441906066  1.0000
  O   O1        1.0  0.35530576240709166  0.3983463953581676  0.4602619789130529  1.0000
  O   O2        1.0  0.1446957177588004  0.539735812106983  0.6016549593703288  1.0000
  O   O3        1.0  0.6446994358441671  0.6016569868035261  0.5397370373252811  1.0000
  O   O4        1.0  0.8552992065561894  0.4602632187832114  0.3983440382601202  1.0000
  O   O5        1.0  0.5279255912213897  0.544774131472046  0.30937674462084164  1.0000
  O   O6        1.0  0.9720770680334782  0.6906235511416768  0.4552256669261892  1.0000
  O   O7        1.0  0.47207483451474275  0.45523142225939495  0.6906208047555039  1.0000
  O   O8        1.0  0.02792579952681249  0.3093798218089461  0.5447693855611959  1.0000
