data_image0
_chemical_formula_structural       Al4H31C68I5O24
_chemical_formula_sum              "Al4 H31 C68 I5 O24"
_cell_length_a       6.6538557857487595
_cell_length_b       20.27744837811556
_cell_length_c       23.840390949956642
_cell_angle_alpha    90.1599945220987
_cell_angle_beta     93.20402961211713
_cell_angle_gamma    90.5005720389389

_space_group_name_H-M_alt    "P 1"
_space_group_IT_number       1

loop_
  _space_group_symop_operation_xyz
  'x, y, z'

loop_
  _atom_site_type_symbol
  _atom_site_label
  _atom_site_symmetry_multiplicity
  _atom_site_fract_x
  _atom_site_fract_y
  _atom_site_fract_z
  _atom_site_occupancy
  Al  Al1       1.0  0.9107092324202313  0.5053399672367362  0.4979865936562291  1.0000
  Al  Al2       1.0  0.4107669635100065  0.5025774099332949  0.503684119437807  1.0000
  Al  Al3       1.0  0.2375101517307243  0.9976019671029808  0.9971027692425452  1.0000
  Al  Al4       1.0  0.7367926962590019  0.9982110542838073  0.9969454647809428  1.0000
  H   H1        1.0  0.9057861713410488  0.6197293846008094  0.162523863448321  1.0000
  H   H2        1.0  0.010351966621861709  0.6287789853945257  0.3455104061132134  1.0000
  H   H3        1.0  0.3712346423107534  0.7141091970147571  0.4820332803395502  1.0000
  H   H4        1.0  0.4511518348410206  0.8626116936077324  0.3301843932918587  1.0000
  H   H5        1.0  0.8898321471428617  0.6701118834965741  0.072121733266556  1.0000
  H   H6        1.0  0.96879419887879  0.6243805981613307  0.2643747925813003  1.0000
  H   H7        1.0  0.439609266239792  0.8130872321905473  0.4240446696372473  1.0000
  H   H8        1.0  0.7549511557178477  0.2726080748686002  0.2884735989158926  1.0000
  H   H9        1.0  0.9337658466359643  0.14595626119921692  0.284265521995863  1.0000
  H   H10       1.0  0.3062541566238012  0.20208388983095932  0.3247027978159593  1.0000
  H   H11       1.0  0.4069290669644944  0.22498022364577966  0.2114892007209477  1.0000
  H   H12       1.0  0.37314682423380674  0.6877441108128578  0.8167361138717553  1.0000
  H   H13       1.0  0.8897660831553226  0.7883597906559106  0.8027180498611415  1.0000
  H   H14       1.0  0.2798096078484917  0.36917463464479994  0.8217337526884023  1.0000
  H   H15       1.0  0.49857175766521783  0.37584427610098464  0.6517505870510902  1.0000
  H   H16       1.0  0.9035576115540139  0.2983143518147955  0.5348127390166226  1.0000
  H   H17       1.0  0.8998274030506862  0.13710283202118492  0.6803032742636503  1.0000
  H   H18       1.0  0.22257426644557657  0.3088888876082336  0.9075850460299578  1.0000
  H   H19       1.0  0.26010021061063066  0.20678495958449625  0.9654409048836  1.0000
  H   H20       1.0  0.6493263722457955  0.12452033890333787  0.8467609654315424  1.0000
  H   H21       1.0  0.41537670255232945  0.37560243155448364  0.7287951241295474  1.0000
  H   H22       1.0  0.7583933166964981  0.1294245597880064  0.7724392588247468  1.0000
  H   H23       1.0  0.9548531561131882  0.1979503650833792  0.5940693042966814  1.0000
  H   H24       1.0  0.3861924918859785  0.3548186264084023  0.2013993079027969  1.0000
  H   H25       1.0  0.937204578051592  0.8049702740860099  0.6774332071510187  1.0000
  H   H26       1.0  0.1743822181500718  0.9035910297124233  0.1914329428625905  1.0000
  H   H27       1.0  0.4307875058981097  0.8543655001985327  0.1930683156812023  1.0000
  H   H28       1.0  0.6336855922167146  0.4921026122588046  0.4286273850506888  1.0000
  H   H29       1.0  0.1561623081950927  0.459117919510625  0.5626475966293185  1.0000
  H   H30       1.0  0.5014314290878019  0.010472992323983002  0.0694900539108261  1.0000
  H   H31       1.0  0.9755129958242464  0.039065378050246104  0.9332286949021552  1.0000
  C   C1        1.0  0.6900591047351271  0.5784652606753085  0.5787897142730999  1.0000
  C   C2        1.0  0.6690135409804013  0.40276221463943795  0.5559129375388991  1.0000
  C   C3        1.0  0.14148020649425772  0.4287239314354778  0.42077889386450107  1.0000
  C   C4        1.0  0.16600321033794782  0.6048454376408827  0.4493933326225772  1.0000
  C   C5        1.0  0.0029960467146850104  0.8340123070493918  0.0818787014690869  1.0000
  C   C6        1.0  0.18536569951552204  0.6664033365612385  0.4160155284148033  1.0000
  C   C7        1.0  0.9422121584813327  0.7170422082267083  0.09008868878793659  1.0000
  C   C8        1.0  0.951214452174817  0.7728885396193023  0.0571910662895476  1.0000
  C   C9        1.0  0.05600965620673292  0.838596890614824  0.1394822836029093  1.0000
  C   C10       1.0  0.07395772952085622  0.7806921534084454  0.1736530882289813  1.0000
  C   C11       1.0  0.9978666255009828  0.7206743503679153  0.14799494173625763  1.0000
  C   C12       1.0  0.148186551419613  0.7786098736520303  0.2322219465750806  1.0000
  C   C13       1.0  0.09767293107945113  0.7235601956837101  0.2661681165928655  1.0000
  C   C14       1.0  0.003234079166830414  0.6674149940565716  0.2394000917065  1.0000
  C   C15       1.0  0.9667959295007621  0.6646164928637789  0.182541390384678  1.0000
  C   C16       1.0  0.2856740316593047  0.8260889529185249  0.2579460462456566  1.0000
  C   C17       1.0  0.3427015077424969  0.825663067529007  0.3140008425480758  1.0000
  C   C18       1.0  0.2767600925250946  0.7749967401037595  0.3495275710267052  1.0000
  C   C19       1.0  0.15531343481887921  0.7224046912370669  0.32557618707462416  1.0000
  C   C20       1.0  0.3469596801578376  0.772416704985922  0.4067489210013803  1.0000
  C   C21       1.0  0.30817751091463214  0.718206236944198  0.43902749965458543  1.0000
  C   C22       1.0  0.10569743027816263  0.6695057985205041  0.36114748063943136  1.0000
  C   C23       1.0  0.16639795544229938  0.3051802485539312  0.23087305268708042  1.0000
  C   C24       1.0  0.9560220700016089  0.2747059898613599  0.2102027923528951  1.0000
  C   C25       1.0  0.0151303663295792  0.1189986185567307  0.1233781499899465  1.0000
  C   C26       1.0  0.1382440878520299  0.3804075428103602  0.37639982880917705  1.0000
  C   C27       1.0  0.26331038749874836  0.23551671041129657  0.2297056219660476  1.0000
  C   C28       1.0  0.05654608613058801  0.20389099041091197  0.2068565145541754  1.0000
  C   C29       1.0  0.20633485519647374  0.2225273857194807  0.2913785127692066  1.0000
  C   C30       1.0  0.10566616466648783  0.2929162356767351  0.2948527911828549  1.0000
  C   C31       1.0  0.999634840397846  0.19196683177248997  0.2697527333205869  1.0000
  C   C32       1.0  0.9000941752542956  0.2612796465006966  0.2716389977011815  1.0000
  C   C33       1.0  0.03246893553310311  0.158143774139198  0.1622061711926506  1.0000
  C   C34       1.0  0.12720779836034524  0.33909915130172413  0.3390984285717806  1.0000
  C   C35       1.0  0.46617145242719715  0.7143678480526818  0.7878717496496037  1.0000
  C   C36       1.0  0.6857354539891389  0.6964226987834367  0.7738020710632512  1.0000
  C   C37       1.0  0.6913595939679952  0.6248831286481719  0.6247405570273443  1.0000
  C   C38       1.0  0.4694224452462167  0.8730903438946884  0.8754819390776518  1.0000
  C   C39       1.0  0.4124760117323873  0.7249852302483009  0.7240245064322935  1.0000
  C   C40       1.0  0.6314683359817792  0.7051049227217021  0.708489262142443  1.0000
  C   C41       1.0  0.4781663988580648  0.7991796567457001  0.7295392732029599  1.0000
  C   C42       1.0  0.533495432478567  0.7890147861765087  0.7946540150180397  1.0000
  C   C43       1.0  0.6980097981259448  0.7816461948486833  0.7154758819936261  1.0000
  C   C44       1.0  0.7542780101951366  0.7699586148416773  0.779571006903545  1.0000
  C   C45       1.0  0.6712525704250539  0.6621009870401694  0.6642286091605456  1.0000
  C   C46       1.0  0.4896402599135996  0.8330760647975811  0.8381481842375463  1.0000
  C   C47       1.0  0.45905727496366217  0.16049489446671572  0.9085174539171702  1.0000
  C   C48       1.0  0.6945596074308258  0.3419191910302288  0.5905083936416489  1.0000
  C   C49       1.0  0.3136859639060603  0.2679671054899089  0.8939217682524401  1.0000
  C   C50       1.0  0.33548030114679506  0.21205421688758713  0.9262645023350443  1.0000
  C   C51       1.0  0.5551474537857503  0.16538374556723315  0.8585525840617266  1.0000
  C   C52       1.0  0.5241874856125223  0.22014471134185956  0.8226117445829787  1.0000
  C   C53       1.0  0.40276961097801955  0.2727804391002309  0.8414846689395787  1.0000
  C   C54       1.0  0.605420154765632  0.22412953079541614  0.7675476742321906  1.0000
  C   C55       1.0  0.5624973972236021  0.2798838718287016  0.7330910870972788  1.0000
  C   C56       1.0  0.4451829278066342  0.33197603139478826  0.7543433950572903  1.0000
  C   C57       1.0  0.369431538184216  0.3287759126830282  0.8064299552552825  1.0000
  C   C58       1.0  0.7264646587357931  0.17274294611291907  0.7466783398272909  1.0000
  C   C59       1.0  0.8054985888139826  0.1766433523239286  0.6950040425461311  1.0000
  C   C60       1.0  0.7682291646312649  0.23208634623259172  0.6594890710303005  1.0000
  C   C61       1.0  0.6410586847868417  0.2834939738386879  0.677724569152268  1.0000
  C   C62       1.0  0.8577652368694331  0.23759178844733242  0.6071406642552901  1.0000
  C   C63       1.0  0.8278782023774484  0.2925348764874229  0.5739210426506602  1.0000
  C   C64       1.0  0.6001600099454549  0.3366638588147168  0.6406801329320899  1.0000
  C   C65       1.0  0.4721971354207497  0.09861424899195731  0.9419656722241996  1.0000
  C   C66       1.0  0.47393749734121826  0.9214369421696205  0.9200696313237344  1.0000
  C   C67       1.0  0.0005447767652100049  0.8973918795811144  0.049295427232209504  1.0000
  C   C68       1.0  0.9994936130264166  0.07251023876700913  0.0773456131842138  1.0000
  I   I1        1.0  0.7559828343058328  0.31602574850696646  0.1477713100000599  1.0000
  I   I2        1.0  0.8419160101593306  0.6160732410895237  0.8112999614276362  1.0000
  I   I3        1.0  0.31641199885031324  0.8794904014714647  0.6957885787786608  1.0000
  I   I4        1.0  0.15560002664781794  0.6881559168225241  0.6783091373765017  1.0000
  I   I5        1.0  0.8799802909671682  0.7657740817651161  0.9702356489256445  1.0000
  O   O1        1.0  0.4912889343942482  0.4219757207128865  0.542013527438165  1.0000
  O   O2        1.0  0.8528265621468238  0.5694481657581465  0.5544811212528417  1.0000
  O   O3        1.0  0.9962121835640046  0.5755126244714363  0.4508072894574582  1.0000
  O   O4        1.0  0.83249493993236  0.43140162316424135  0.5440225176082123  1.0000
  O   O5        1.0  0.9712211524517825  0.44285002313128546  0.4395176123165712  1.0000
  O   O6        1.0  0.5213850959156899  0.5501461732337491  0.5675156280411855  1.0000
  O   O7        1.0  0.649973870663331  0.5092779400692253  0.46664241106900317  1.0000
  O   O8        1.0  0.3125644829382566  0.45300228279018045  0.43700533440598116  1.0000
  O   O9        1.0  0.3303543977883052  0.5851879679544824  0.4732718754269031  1.0000
  O   O10       1.0  0.16326479323148393  0.49353808783100556  0.5345978775067408  1.0000
  O   O11       1.0  0.6486770992951137  0.9350773450628298  0.9414349955596819  1.0000
  O   O12       1.0  0.30702081275432397  0.07901367158470413  0.9612829962648846  1.0000
  O   O13       1.0  0.1641358737961198  0.04785405459150381  0.0628403295666971  1.0000
  O   O14       1.0  0.3086932481744358  0.9464796503604093  0.9333430673002638  1.0000
  O   O15       1.0  0.16799774243199292  0.917131101148499  0.0324374745620517  1.0000
  O   O16       1.0  0.6413922592749162  0.0695996030672319  0.9478904430847379  1.0000
  O   O17       1.0  0.4942843245163999  0.9932678254798052  0.0314293376775012  1.0000
  O   O18       1.0  0.8328751146571849  0.9262185162369153  0.042356907318051605  1.0000
  O   O19       1.0  0.8230759727747312  0.06069885659543672  0.05593166219517091  1.0000
  O   O20       1.0  0.9807115774769174  0.007410968889139702  0.963683462430332  1.0000
  O   O21       1.0  0.24623320263897602  0.3621112897364471  0.2104249859224225  1.0000
  O   O22       1.0  0.7961590540456314  0.8190767277292182  0.6781742499936526  1.0000
  O   O23       1.0  0.07211489693000321  0.9015546872417632  0.1595130454844451  1.0000
  O   O24       1.0  0.37645530028195406  0.8749069574680564  0.226095732571892  1.0000
