data_image0
_chemical_formula_structural       Cd4H56C60S8N16
_chemical_formula_sum              "Cd4 H56 C60 S8 N16"
_cell_length_a       9.634313259149392
_cell_length_b       11.75224423250495
_cell_length_c       17.75285731652308
_cell_angle_alpha    105.2014315319516
_cell_angle_beta     90.02379826416929
_cell_angle_gamma    114.17674341636719

_space_group_name_H-M_alt    "P 1"
_space_group_IT_number       1

loop_
  _space_group_symop_operation_xyz
  'x, y, z'

loop_
  _atom_site_type_symbol
  _atom_site_label
  _atom_site_symmetry_multiplicity
  _atom_site_fract_x
  _atom_site_fract_y
  _atom_site_fract_z
  _atom_site_occupancy
  Cd  Cd1       1.0  0.014283405054200735  0.2479680962561517  0.4799624220793249  1.0000
  Cd  Cd2       1.0  0.23359964739702116  0.24796872413362778  0.9799838926467286  1.0000
  Cd  Cd3       1.0  0.9857179442215768  0.7520313160948077  0.5200356762572723  1.0000
  Cd  Cd4       1.0  0.7663970012383885  0.7520316624554083  0.020020007239317288  1.0000
  H   H1        1.0  0.6657073784390449  0.18925767358403078  0.47797473670066637  1.0000
  H   H2        1.0  0.5232268418283184  0.18908120202883077  0.9778239523918658  1.0000
  H   H3        1.0  0.33429598170857133  0.8107436864404247  0.5220220102171282  1.0000
  H   H4        1.0  0.47677243369017946  0.8109182103123018  0.022179778606087625  1.0000
  H   H5        1.0  0.4039367100185702  0.0114511920545368  0.4256362124370908  1.0000
  H   H6        1.0  0.6072530323258718  0.0112882475036997  0.9254928529043694  1.0000
  H   H7        1.0  0.5960656126421996  0.9885501680453216  0.5743616609564057  1.0000
  H   H8        1.0  0.39274416720525096  0.9887111651220974  0.07451031462002078  1.0000
  H   H9        1.0  0.6189499587607727  0.8014436310771911  0.2695565686740834  1.0000
  H   H10       1.0  0.18211000810578065  0.8012316558579043  0.7694696102410814  1.0000
  H   H11       1.0  0.38104834134536253  0.1985538337827605  0.7304417544170503  1.0000
  H   H12       1.0  0.8178891371816663  0.19877165239955724  0.23053029097214756  1.0000
  H   H13       1.0  0.8716006304238492  0.9882695093057235  0.3287225861559691  1.0000
  H   H14       1.0  0.11612712965254704  0.9880065420700817  0.8286872756850983  1.0000
  H   H15       1.0  0.12840133445769203  0.011726981177375296  0.6712755681413539  1.0000
  H   H16       1.0  0.8838740924332172  0.011996765795622399  0.17131544214165464  1.0000
  H   H17       1.0  0.20986614851613433  0.5188035675809741  0.9881799683231307  1.0000
  H   H18       1.0  0.30921435275536163  0.5186581639269575  0.4881934011130156  1.0000
  H   H19       1.0  0.7901306285257023  0.4811929233326848  0.011822691782704486  1.0000
  H   H20       1.0  0.6907854075296387  0.48134222254296327  0.5118048662059635  1.0000
  H   H21       1.0  0.16568497654100156  0.6949345946133005  0.08332518642495049  1.0000
  H   H22       1.0  0.5297205085874453  0.6945013755022487  0.5833394085403327  1.0000
  H   H23       1.0  0.8343070968194155  0.30506287094002715  0.9166748259554608  1.0000
  H   H24       1.0  0.4702808398773827  0.3054980369558038  0.41665643665629654  1.0000
  H   H25       1.0  0.029272123015530845  0.44858677806131914  0.23769398437461584  1.0000
  H   H26       1.0  0.41886522979256574  0.44841917977285545  0.7378884525397352  1.0000
  H   H27       1.0  0.9707218983313128  0.5514145828291745  0.7623089578295461  1.0000
  H   H28       1.0  0.5811400779360059  0.5515860756423124  0.262110097631826  1.0000
  H   H29       1.0  0.08212789801487472  0.2835214936043897  0.1363057477468033  1.0000
  H   H30       1.0  0.2006784121091698  0.28372162447715243  0.6365431804489673  1.0000
  H   H31       1.0  0.9178677129309495  0.7164788930868297  0.8636987153299458  1.0000
  H   H32       1.0  0.7993269607349306  0.7162816829798472  0.3634572846149524  1.0000
  H   H33       1.0  0.35037664672194074  0.6917604878834567  0.2784303020170711  1.0000
  H   H34       1.0  0.3411980741351783  0.6916366095652859  0.7781701364476206  1.0000
  H   H35       1.0  0.6496257408516256  0.30823892428500693  0.7215689229837919  1.0000
  H   H36       1.0  0.6588021725382163  0.30836475081924414  0.22182717347231318  1.0000
  H   H37       1.0  0.27403863787965577  0.7505007360480176  0.36280865032291126  1.0000
  H   H38       1.0  0.47601480268868124  0.7501568074687271  0.862657369447156  1.0000
  H   H39       1.0  0.725964300995095  0.24949770210366037  0.63719096888628  1.0000
  H   H40       1.0  0.523985995285905  0.24984357889901787  0.1373403346811131  1.0000
  H   H41       1.0  0.29625535783871026  0.8414554396355669  0.21433208099791295  1.0000
  H   H42       1.0  0.5452512885118566  0.8412595461625259  0.7142692485333341  1.0000
  H   H43       1.0  0.7037471581412831  0.1585400768575198  0.7856659042227463  1.0000
  H   H44       1.0  0.4547525588351107  0.15874278766944627  0.2857287941253901  1.0000
  H   H45       1.0  0.218626185697488  0.8952239334494291  0.2988005615461944  1.0000
  H   H46       1.0  0.6763853453370247  0.8950030713340382  0.7988762788783674  1.0000
  H   H47       1.0  0.7813813266276243  0.1047774259789094  0.7011978756037109  1.0000
  H   H48       1.0  0.32361593983690545  0.1049982888412231  0.20112272099083126  1.0000
  H   H49       1.0  0.02402162022967498  0.6605193274239908  0.27972789403418113  1.0000
  H   H50       1.0  0.6364269299789882  0.6603688476331796  0.7799408066622533  1.0000
  H   H51       1.0  0.97598112654228  0.3394849541738267  0.7202749930578064  1.0000
  H   H52       1.0  0.36357795485481864  0.3396334861233896  0.2200561095207689  1.0000
  H   H53       1.0  0.005054350790622616  0.7295739097756168  0.20515956295407276  1.0000
  H   H54       1.0  0.7244813377404854  0.7292864457929156  0.7053545223071749  1.0000
  H   H55       1.0  0.9949468073960334  0.27043134588761564  0.7948446196902736  1.0000
  H   H56       1.0  0.2755234829914812  0.2707178357879556  0.2946432954084485  1.0000
  C   C1        1.0  0.08084063182554496  0.5150388221445252  0.41347732774219276  1.0000
  C   C2        1.0  0.43425158896607047  0.5147364632430397  0.9133311375187104  1.0000
  C   C3        1.0  0.9191576686860615  0.4849586426618869  0.586522121918925  1.0000
  C   C4        1.0  0.5657450592638682  0.4852639233995431  0.08667163579735158  1.0000
  C   C5        1.0  0.09519848516454475  0.9791142288743229  0.4187839161210645  1.0000
  C   C6        1.0  0.8837837570379963  0.9790392633188675  0.9188021786521787  1.0000
  C   C7        1.0  0.9048036083261624  0.0208783659066185  0.5812135616810394  1.0000
  C   C8        1.0  0.1162175942651444  0.020960148764359598  0.0812015525343384  1.0000
  C   C9        1.0  0.6492462361195522  0.1011047329480732  0.4316938632518799  1.0000
  C   C10       1.0  0.45148146318892685  0.10090006660396256  0.9315775943898218  1.0000
  C   C11       1.0  0.35075559954461255  0.8988956533174954  0.568303277685679  1.0000
  C   C12       1.0  0.548516774234514  0.8990993458928925  0.06842557322885769  1.0000
  C   C13       1.0  0.5044404685104594  0.0015700059767524996  0.40241899565391037  1.0000
  C   C14       1.0  0.49680773545405543  0.0013719109584187  0.9022852482674253  1.0000
  C   C15       1.0  0.49556136735644435  0.9984303802620429  0.5975787085686476  1.0000
  C   C16       1.0  0.5031900149727804  0.9986265277041394  0.09771718689530927  1.0000
  C   C17       1.0  0.48933375412129726  0.8886287220985593  0.3443717062805121  1.0000
  C   C18       1.0  0.3989747431780375  0.8884262956942806  0.8442391727567368  1.0000
  C   C19       1.0  0.5106680821510852  0.11137166408668969  0.6556271245120228  1.0000
  C   C20       1.0  0.6010260558102304  0.11157409053959806  0.155761347796485  1.0000
  C   C21       1.0  0.62375774531602  0.8851598006151279  0.3162964507054014  1.0000
  C   C22       1.0  0.2609978454090154  0.884939595612188  0.8162152643333584  1.0000
  C   C23       1.0  0.37624207947629884  0.1148386379769448  0.68370204165096  1.0000
  C   C24       1.0  0.7390033762712778  0.11506371230706239  0.18378632692341057  1.0000
  C   C25       1.0  0.7646251367021293  0.9888408934352808  0.34855421202552606  1.0000
  C   C26       1.0  0.22372120907608203  0.9885863309429721  0.8485056151632049  1.0000
  C   C27       1.0  0.23537420109359186  0.011156571322494799  0.6514435478748979  1.0000
  C   C28       1.0  0.7762784881207524  0.011416003217391299  0.1514963701133283  1.0000
  C   C29       1.0  0.170780505533898  0.5077270608684329  0.04452928679440759  1.0000
  C   C30       1.0  0.3370604549567915  0.507561890984256  0.5445774021250713  1.0000
  C   C31       1.0  0.8292126706316341  0.4922684566245507  0.955472077287652  1.0000
  C   C32       1.0  0.6629413809101123  0.4924384952545393  0.4554203020974795  1.0000
  C   C33       1.0  0.1455134686617113  0.6051780894851715  0.09780574444776137  1.0000
  C   C34       1.0  0.4599083337201932  0.6048562205440575  0.5978494948219222  1.0000
  C   C35       1.0  0.8544797073010885  0.3948174280345782  0.9021950563493134  1.0000
  C   C36       1.0  0.5400950268329011  0.3951451394268516  0.4021483786658564  1.0000
  C   C37       1.0  0.0950739423158851  0.5877339629180725  0.1697992949389331  1.0000
  C   C38       1.0  0.49267709447805424  0.5874670063220788  0.6699154475981857  1.0000
  C   C39       1.0  0.9049175803515582  0.4122644765717211  0.830202013088126  1.0000
  C   C40       1.0  0.5073288284508167  0.41253532727877473  0.3300820319641176  1.0000
  C   C41       1.0  0.06856328860138211  0.4686308872856344  0.18297783239323448  1.0000
  C   C42       1.0  0.39977478759607277  0.4684909958458476  0.683146890808402  1.0000
  C   C43       1.0  0.9314292721611184  0.5313675520484366  0.8170240390130914  1.0000
  C   C44       1.0  0.6002300976432056  0.5315113378571751  0.31685115194461116  1.0000
  C   C45       1.0  0.09782434293507691  0.3760393976437939  0.1270352879597354  1.0000
  C   C46       1.0  0.2777907464554445  0.37606925481585307  0.6272173850498959  1.0000
  C   C47       1.0  0.9021682178274233  0.623959041690277  0.8729665834465905  1.0000
  C   C48       1.0  0.7222131012969868  0.6239330789625794  0.37278178417881236  1.0000
  C   C49       1.0  0.3353691354618745  0.7774801337820204  0.3133088216399499  1.0000
  C   C50       1.0  0.44183381578550757  0.7772883167484392  0.8131642060963385  1.0000
  C   C51       1.0  0.664634290206749  0.22251927823072037  0.686690966740194  1.0000
  C   C52       1.0  0.5581669180872312  0.22271401744360725  0.18683439956452463  1.0000
  C   C53       1.0  0.23608775243693  0.8113661629103461  0.2633556448907796  1.0000
  C   C54       1.0  0.5751631206561573  0.8111522579382541  0.7633527602307382  1.0000
  C   C55       1.0  0.7639146353393683  0.1886332492313443  0.7366441433950826  1.0000
  C   C56       1.0  0.42484017559235815  0.18885104988373058  0.23664545150464988  1.0000
  C   C57       1.0  0.07939875423598858  0.6959346278407492  0.23109130603348396  1.0000
  C   C58       1.0  0.6165034716809005  0.6956970874635146  0.7312333187987292  1.0000
  C   C59       1.0  0.9205994180719232  0.3040667326142668  0.7689099466928369  1.0000
  C   C60       1.0  0.38349933757100974  0.3043052465241871  0.26876416048072116  1.0000
  S   S1        1.0  0.06333067563152639  0.37101868181839837  0.36314843401623154  1.0000
  S   S2        1.0  0.3075841025034762  0.3707561766499338  0.8630802604136888  1.0000
  S   S3        1.0  0.9366691491607997  0.628979756773667  0.6368500583401298  1.0000
  S   S4        1.0  0.6924115715305136  0.6292422623508359  0.136920484705513  1.0000
  S   S5        1.0  0.17212287250129776  0.11452516571475967  0.3945303449064852  1.0000
  S   S6        1.0  0.9420872195484264  0.11448757205697997  0.8946110228089237  1.0000
  S   S7        1.0  0.8278801945771477  0.8854693767883074  0.6054674712375173  1.0000
  S   S8        1.0  0.05791364455537718  0.8855108662187303  0.10539141263666346  1.0000
  N   N1        1.0  0.09852631382691604  0.6212234283700367  0.4495323480264871  1.0000
  N   N2        1.0  0.5228769368099792  0.6209200494926675  0.9493466391075811  1.0000
  N   N3        1.0  0.9014710135024233  0.37877208866069606  0.5504678898627233  1.0000
  N   N4        1.0  0.47711568866257187  0.37907644193678164  0.05065602062112617  1.0000
  N   N5        1.0  0.04002967855399909  0.8783848985199963  0.43353667034869386  1.0000
  N   N6        1.0  0.8383412721520785  0.8782697697303872  0.9335062417014227  1.0000
  N   N7        1.0  0.9599744901131402  0.12160769608336607  0.5664591177870051  1.0000
  N   N8        1.0  0.16166153932992702  0.12173256396281568  0.06649743371293938  1.0000
  N   N9        1.0  0.7780767529778743  0.09445650293573489  0.4062169169468888  1.0000
  N   N10       1.0  0.31593039764018027  0.09423208782725818  0.9061508647365599  1.0000
  N   N11       1.0  0.22192508309176145  0.9055438832762872  0.5937813505606542  1.0000
  N   N12       1.0  0.6840693642667122  0.9057682984284838  0.0938519088623551  1.0000
  N   N13       1.0  0.14962205103556414  0.39529662240315844  0.0590417851036733  1.0000
  N   N14       1.0  0.24543589963634105  0.3953281715682023  0.5591702160401154  1.0000
  N   N15       1.0  0.8503736240121069  0.6047018164637518  0.9409617764404812  1.0000
  N   N16       1.0  0.7545664232271748  0.6046731885048827  0.4408282206383731  1.0000
