data_image0
_chemical_formula_structural       K4H44C40N4O16
_chemical_formula_sum              "K4 H44 C40 N4 O16"
_cell_length_a       8.053625904600766
_cell_length_b       8.63898445870744
_cell_length_c       16.21795486427886
_cell_angle_alpha    96.55978512211803
_cell_angle_beta     89.98992996967856
_cell_angle_gamma    90.01520160478272

_space_group_name_H-M_alt    "P 1"
_space_group_IT_number       1

loop_
  _space_group_symop_operation_xyz
  'x, y, z'

loop_
  _atom_site_type_symbol
  _atom_site_label
  _atom_site_symmetry_multiplicity
  _atom_site_fract_x
  _atom_site_fract_y
  _atom_site_fract_z
  _atom_site_occupancy
  K   K1        1.0  0.29821179637269773  0.42815753902232967  0.1004989391388591  1.0000
  K   K2        1.0  0.7982332363503203  0.0713844430762904  0.8997509065811469  1.0000
  K   K3        1.0  0.7017935251552174  0.5713983085555584  0.8996435828868811  1.0000
  K   K4        1.0  0.2017211861808974  0.9281467679218666  0.10031518151166807  1.0000
  H   H1        1.0  0.4173838818577167  0.7250587337791501  0.02009725326438879  1.0000
  H   H2        1.0  0.9174061217248451  0.7743620636353371  0.9798826089383111  1.0000
  H   H3        1.0  0.5825556580700847  0.27444976862573606  0.9798493665921553  1.0000
  H   H4        1.0  0.0825868064255886  0.22515449937347398  0.02009297115308329  1.0000
  H   H5        1.0  0.5829483972203988  0.7044083083899866  0.07101870409903911  1.0000
  H   H6        1.0  0.08296028715096068  0.7951077831542861  0.928938945139819  1.0000
  H   H7        1.0  0.4170197089949425  0.29515732976478404  0.9289308712052102  1.0000
  H   H8        1.0  0.9169767815029459  0.2044983737655386  0.07101915415574207  1.0000
  H   H9        1.0  0.30505971682307387  0.8074348545623453  0.30722292116607247  1.0000
  H   H10       1.0  0.804860285572694  0.6931904931046732  0.6929314407763342  1.0000
  H   H11       1.0  0.6950860563208394  0.19297324642482042  0.6928087851793662  1.0000
  H   H12       1.0  0.19522460892835614  0.3069121805201505  0.3070568982521564  1.0000
  H   H13       1.0  0.44956473792865376  0.9519671174515668  0.42739380353219747  1.0000
  H   H14       1.0  0.9487160412896642  0.5483822973792414  0.572677777128419  1.0000
  H   H15       1.0  0.5508988878205159  0.048288139407432616  0.5726069420586197  1.0000
  H   H16       1.0  0.05145205844267759  0.45179232091510363  0.42729609775796706  1.0000
  H   H17       1.0  0.6429401544036962  0.8117561770603245  0.5158459577908373  1.0000
  H   H18       1.0  0.14232973827763123  0.6881186736854943  0.484046189495828  1.0000
  H   H19       1.0  0.35743032279946607  0.18823986432246195  0.4840710202873949  1.0000
  H   H20       1.0  0.8577427707161646  0.31221374831191895  0.5159528319792273  1.0000
  H   H21       1.0  0.7012454826442821  0.5319249972617826  0.4771949450921297  1.0000
  H   H22       1.0  0.2012598253856126  0.9679169879802031  0.5225506504293091  1.0000
  H   H23       1.0  0.29885183290744527  0.4680468874276045  0.5226604469561591  1.0000
  H   H24       1.0  0.7986078157002651  0.03247392786720841  0.47744650260625576  1.0000
  H   H25       1.0  0.653795264214402  0.2903321576626965  0.3957311299382765  1.0000
  H   H26       1.0  0.1548267144179363  0.20960623828270997  0.6042605986269007  1.0000
  H   H27       1.0  0.34580412381133396  0.7096911410366005  0.6042538771009589  1.0000
  H   H28       1.0  0.8449626918967399  0.7907012668557413  0.3957199555749255  1.0000
  H   H29       1.0  0.4473755627569602  0.048041962054909994  0.24999896398523447  1.0000
  H   H30       1.0  0.9474457409499236  0.4519919930930101  0.7500605149983669  1.0000
  H   H31       1.0  0.5525714936842262  0.952067881399792  0.7500639198449972  1.0000
  H   H32       1.0  0.05259072518963849  0.5482384105627814  0.2500506799661507  1.0000
  H   H33       1.0  0.6280541792289255  0.05441751763982689  0.313806939928881  1.0000
  H   H34       1.0  0.12816784905662357  0.44597512119919025  0.6862704602324426  1.0000
  H   H35       1.0  0.3718829549553533  0.945773973939936  0.686259465289126  1.0000
  H   H36       1.0  0.8718971768774394  0.5542736209484502  0.313848862851735  1.0000
  H   H37       1.0  0.6861092988008793  0.9465457352787536  0.16506567082711848  1.0000
  H   H38       1.0  0.1862852881469195  0.5533210298922598  0.8350433156208295  1.0000
  H   H39       1.0  0.3137669285658333  0.053253337264827415  0.8350472036184937  1.0000
  H   H40       1.0  0.8137225570223166  0.4465896397335598  0.16516161827300377  1.0000
  H   H41       1.0  0.8029890525195852  0.11805397797807164  0.19527623335395813  1.0000
  H   H42       1.0  0.3030691474356288  0.3818634672943445  0.8046769030673386  1.0000
  H   H43       1.0  0.19694928530290673  0.8817573296552936  0.8046938276469787  1.0000
  H   H44       1.0  0.6969325227156772  0.6181140675280046  0.19539169413464205  1.0000
  C   C1        1.0  0.4161323325286759  0.5833184219405754  0.3232919550715393  1.0000
  C   C2        1.0  0.9163569836361418  0.9171103827318208  0.6767206153527069  1.0000
  C   C3        1.0  0.5838482933654844  0.41697817111266744  0.6766717540134051  1.0000
  C   C4        1.0  0.08360871724372032  0.0830572064335229  0.3232792744918739  1.0000
  C   C5        1.0  0.39300269375171126  0.7489227716025652  0.3444950154164488  1.0000
  C   C6        1.0  0.8927871573274472  0.7515601635219796  0.6555748551533895  1.0000
  C   C7        1.0  0.6071915001715525  0.25139629074953257  0.6554894517115528  1.0000
  C   C8        1.0  0.1072679449696068  0.2485963370435584  0.34441188192364075  1.0000
  C   C9        1.0  0.4719653967056772  0.8273811871112784  0.4122933875975505  1.0000
  C   C10       1.0  0.9714515809228388  0.6729555786708444  0.58773017443427  1.0000
  C   C11       1.0  0.5283541968159895  0.1728554602124532  0.5876788618009456  1.0000
  C   C12       1.0  0.0286631265818542  0.327248302660692  0.412268669599598  1.0000
  C   C13       1.0  0.5820525891679084  0.750117857346865  0.4616978072968933  1.0000
  C   C14       1.0  0.08160626978288832  0.7499540350184758  0.5381866041834725  1.0000
  C   C15       1.0  0.4182632698445373  0.2499755747286515  0.5382102797778998  1.0000
  C   C16       1.0  0.9184811304593481  0.25031984398128776  0.46181490759697397  1.0000
  C   C17       1.0  0.6131932715748788  0.5915001558147139  0.44061142558299327  1.0000
  C   C18       1.0  0.1131690217897301  0.9084826781606169  0.5592006727364874  1.0000
  C   C19       1.0  0.3869264015709036  0.4085501989821126  0.5592663732384506  1.0000
  C   C20       1.0  0.8867830421870622  0.0918243508143703  0.440790940995427  1.0000
  C   C21       1.0  0.536292187443351  0.507302228180528  0.37269177807257836  1.0000
  C   C22       1.0  0.0365181661056297  0.9928450148793716  0.6271609953974815  1.0000
  C   C23       1.0  0.4637207139379455  0.492843604446584  0.627193644693669  1.0000
  C   C24       1.0  0.9633742899125722  0.007402682531029798  0.37282441940748606  1.0000
  C   C25       1.0  0.5788773849692178  0.345780190419589  0.34931211442817295  1.0000
  C   C26       1.0  0.07938006101274911  0.15428694211129113  0.650559016704932  1.0000
  C   C27       1.0  0.4209877435975216  0.6542890857533904  0.6505862036667194  1.0000
  C   C28       1.0  0.9204664603068055  0.8460076462824021  0.3494230546645837  1.0000
  C   C29       1.0  0.5696260185820564  0.1038238440147126  0.26093979744367596  1.0000
  C   C30       1.0  0.06973681429825261  0.39629316489227756  0.7390752472020097  1.0000
  C   C31       1.0  0.43034214611878957  0.8962318481454973  0.7390796405795965  1.0000
  C   C32       1.0  0.9302785370067922  0.6038612908805945  0.261009408505643  1.0000
  C   C33       1.0  0.6766378503735877  0.0730321672594769  0.1831714070581256  1.0000
  C   C34       1.0  0.176756498647002  0.42686347606276354  0.8168435076468794  1.0000
  C   C35       1.0  0.3232694382719714  0.9267998777708044  0.8168575360435069  1.0000
  C   C36       1.0  0.8232538514118417  0.5730795751097588  0.18326450065579536  1.0000
  C   C37       1.0  0.6024721607588363  0.1451364318166242  0.10927180515032829  1.0000
  C   C38       1.0  0.10257407924923001  0.354597348578146  0.890723228302839  1.0000
  C   C39       1.0  0.3974115212768368  0.8545465819819924  0.8907184544278761  1.0000
  C   C40       1.0  0.8974486715862681  0.6451512908668846  0.10931562867544638  1.0000
  N   N1        1.0  0.5390228916078286  0.2685315811596638  0.2804565657159301  1.0000
  N   N2        1.0  0.03921844941641691  0.23164331980461839  0.7193385510231491  1.0000
  N   N3        1.0  0.4609775895735808  0.7315987497425738  0.7194357387703858  1.0000
  N   N4        1.0  0.9606938589450491  0.7685545873093601  0.2806888524241343  1.0000
  O   O1        1.0  0.33346437790972766  0.5077115024438469  0.26549722145991683  1.0000
  O   O2        1.0  0.8341725006621558  0.9929881424003217  0.7346303417256193  1.0000
  O   O3        1.0  0.6662207350058367  0.4927319416995175  0.7345531340982843  1.0000
  O   O4        1.0  0.1657273788284499  0.007090690982081996  0.2653679760166625  1.0000
  O   O5        1.0  0.4469630436599203  0.14101394955789462  0.10032018761890528  1.0000
  O   O6        1.0  0.9470349678718222  0.35844372041063377  0.8996094830194037  1.0000
  O   O7        1.0  0.5529491757394781  0.8584496978453302  0.8996101916354247  1.0000
  O   O8        1.0  0.0529778267253818  0.6411189545690519  0.10040648431530737  1.0000
  O   O9        1.0  0.7021575827917773  0.2062972178971663  0.06069675930583428  1.0000
  O   O10       1.0  0.2022634769071843  0.29364895863184876  0.9393355612611243  1.0000
  O   O11       1.0  0.29770003746968127  0.7935142115072934  0.9393226560947097  1.0000
  O   O12       1.0  0.7977592754206952  0.7061192083798672  0.060710895578210994  1.0000
  O   O13       1.0  0.46026372140967453  0.692692274282301  0.07306637098551509  1.0000
  O   O14       1.0  0.9602528851989475  0.8066696722308182  0.9268768785664959  1.0000
  O   O15       1.0  0.5397366486921413  0.30667352546853993  0.9268309237165225  1.0000
  O   O16       1.0  0.0396518722170711  0.19270650082777505  0.07304955280472569  1.0000
