data_image0
_chemical_formula_structural       Cd6H68C68N56O4
_chemical_formula_sum              "Cd6 H68 C68 N56 O4"
_cell_length_a       11.093560311926668
_cell_length_b       14.366187376578225
_cell_length_c       22.88492321700649
_cell_angle_alpha    89.99998761706219
_cell_angle_beta     90.0000863506012
_cell_angle_gamma    97.5516656053204

_space_group_name_H-M_alt    "P 1"
_space_group_IT_number       1

loop_
  _space_group_symop_operation_xyz
  'x, y, z'

loop_
  _atom_site_type_symbol
  _atom_site_label
  _atom_site_symmetry_multiplicity
  _atom_site_fract_x
  _atom_site_fract_y
  _atom_site_fract_z
  _atom_site_occupancy
  Cd  Cd1       1.0  0.5000008533951074  1.3249016459998886e-07  1.8276254820000002e-07  1.0000
  Cd  Cd2       1.0  0.4999995646651954  0.49999988061892947  0.5000000792441599  1.0000
  Cd  Cd3       1.0  0.3679078693047727  0.7799057669761139  0.07315217426943833  1.0000
  Cd  Cd4       1.0  0.6320924889275258  0.7200951697599578  0.5731522045241279  1.0000
  Cd  Cd5       1.0  0.6320922788807903  0.22009469828432052  0.9268479842192081  1.0000
  Cd  Cd6       1.0  0.36790765925803726  0.2799052955004839  0.42684795396451863  1.0000
  H   H1        1.0  0.09504381300985192  0.6607264449721412  0.11821887119406681  1.0000
  H   H2        1.0  0.9049568020801784  0.8392751922821517  0.6182177741770334  1.0000
  H   H3        1.0  0.9049572369116277  0.3392740221443588  0.8817808503260027  1.0000
  H   H4        1.0  0.09504334610538479  0.16072527297829003  0.3817823843116131  1.0000
  H   H5        1.0  0.8744944117071114  0.679367226663352  0.11548591431868971  1.0000
  H   H6        1.0  0.125506780501361  0.8206379215235768  0.6154846869318151  1.0000
  H   H7        1.0  0.12550663821301813  0.32063324045316216  0.8845129332635511  1.0000
  H   H8        1.0  0.8744942694201254  0.17936254559292308  0.38451503458824743  1.0000
  H   H9        1.0  0.9752386366850557  0.9485369882612884  0.0335896567297809  1.0000
  H   H10       1.0  0.02476261773001201  0.5514646539443716  0.5335905763184103  1.0000
  H   H11       1.0  0.024762296118531403  0.0514627766886662  0.9664105017591993  1.0000
  H   H12       1.0  0.9752384321921496  0.4485358131721212  0.46640958217057016  1.0000
  H   H13       1.0  0.1919930092951674  0.9192710705419599  0.03876526914240232  1.0000
  H   H14       1.0  0.8080072423118949  0.5807298674518363  0.5387654465246997  1.0000
  H   H15       1.0  0.8080071388903959  0.08072939471848167  0.9612348893462442  1.0000
  H   H16       1.0  0.1919929058736685  0.41927059780860526  0.4612347119639468  1.0000
  H   H17       1.0  0.460936390937391  0.3109309619972222  0.2956922039301447  1.0000
  H   H18       1.0  0.5390630234005654  0.1890683344181383  0.7956921703002496  1.0000
  H   H19       1.0  0.5390645418661959  0.6890688029527325  0.7043079545588358  1.0000
  H   H20       1.0  0.46093712478499776  0.8109321308422962  0.204307988188397  1.0000
  H   H21       1.0  0.474095243342596  0.22425551314612588  0.20123133388069195  1.0000
  H   H22       1.0  0.5259057986861464  0.2757444926028326  0.701230842141243  1.0000
  H   H23       1.0  0.5259056894609913  0.7757442518038288  0.7987688246082886  1.0000
  H   H24       1.0  0.4740953683545896  0.7242566766801912  0.2987693163477303  1.0000
  H   H25       1.0  0.2928814700252147  0.9770513535163728  0.2866752447298992  1.0000
  H   H26       1.0  0.7071175125808509  0.5229481673648024  0.7866757930068291  1.0000
  H   H27       1.0  0.707117659304501  0.0229484077214934  0.7133244767895095  1.0000
  H   H28       1.0  0.2928826356047196  0.47705229789563214  0.2133243654818173  1.0000
  H   H29       1.0  0.2926165848475932  0.0727546094042637  0.37884603128743083  1.0000
  H   H30       1.0  0.7073830873317278  0.42724468396968257  0.8788469629856552  1.0000
  H   H31       1.0  0.7073843479553117  0.9272451555456981  0.6211536902326389  1.0000
  H   H32       1.0  0.2926161591179194  0.5727557794346932  0.12115363247157525  1.0000
  H   H33       1.0  0.48004041442817413  0.7303314299165392  0.9397546454832838  1.0000
  H   H34       1.0  0.5199582582192406  0.7696687856761883  0.43975341683946584  1.0000
  H   H35       1.0  0.5199578131669753  0.2696683294652472  0.06024638694253782  1.0000
  H   H36       1.0  0.4800418899649656  0.2303316795842675  0.5602458677113589  1.0000
  H   H37       1.0  0.5725319498291765  0.6527821556907296  0.9709302314740715  1.0000
  H   H38       1.0  0.42746772122197285  0.8472180606177984  0.470928487937556  1.0000
  H   H39       1.0  0.4274671795025709  0.3472176055471079  0.029070800952077012  1.0000
  H   H40       1.0  0.5725333286981495  0.15278240649871574  0.5290703596446849  1.0000
  H   H41       1.0  0.4344415585869611  0.6340794014640351  0.855155705968514  1.0000
  H   H42       1.0  0.5655576363570205  0.8659201169124697  0.35515406089663076  1.0000
  H   H43       1.0  0.5655566690081952  0.36592035791775146  0.14484532645730044  1.0000
  H   H44       1.0  0.43444341356310184  0.1340803502040444  0.6448447866856102  1.0000
  H   H45       1.0  0.5778208153111137  0.5971408831756263  0.8697251782970599  1.0000
  H   H46       1.0  0.4221785419276713  0.9028593368345239  0.3697234234978383  1.0000
  H   H47       1.0  0.4221774122840358  0.4028588762061602  0.13027585412875456  1.0000
  H   H48       1.0  0.5778216062558598  0.0971411284259389  0.6302754240840686  1.0000
  H   H49       1.0  0.36127952261873014  0.47188089368223257  0.867571724672587  1.0000
  H   H50       1.0  0.6387212505715993  0.028119806293247496  0.36757017798881725  1.0000
  H   H51       1.0  0.638719723831592  0.5281195697221434  0.13242930775355433  1.0000
  H   H52       1.0  0.3612790147311884  0.9718813611337391  0.6324291065620075  1.0000
  H   H53       1.0  0.48312512887525116  0.45175830160845715  0.9140233137718783  1.0000
  H   H54       1.0  0.5168747694948905  0.04824169264544761  0.4140216753379137  1.0000
  H   H55       1.0  0.5168730987199055  0.5482414577733294  0.08597771865393612  1.0000
  H   H56       1.0  0.48312526157074126  0.9517580704484769  0.5859776092129183  1.0000
  H   H57       1.0  0.27509433594917  0.38111510073478166  0.9675139178548949  1.0000
  H   H58       1.0  0.7249048265473519  0.11888488970660659  0.46751329604887115  1.0000
  H   H59       1.0  0.7249047933819028  0.6188846605030632  0.03248667760234271  1.0000
  H   H60       1.0  0.2750953216382114  0.8811155755538348  0.5324868624397753  1.0000
  H   H61       1.0  0.1648656759290077  0.46022755417244093  0.9589147610857511  1.0000
  H   H62       1.0  0.8351334599051156  0.03977243658344777  0.4589151043161906  1.0000
  H   H63       1.0  0.8351324345462173  0.5397715030428286  0.041085397402248716  1.0000
  H   H64       1.0  0.16486668828045484  0.9602280286769866  0.5410850541724559  1.0000
  H   H65       1.0  0.24878174581159126  0.46129806192976724  0.025278274868547605  1.0000
  H   H66       1.0  0.7512169471564647  0.038701946542659  0.5252779793525522  1.0000
  H   H67       1.0  0.7512164817822153  0.5387016974520336  0.9747218836194453  1.0000
  H   H68       1.0  0.2487829667912749  0.961297114384713  0.4747217421671906  1.0000
  C   C1        1.0  0.06499967561897792  0.7235171175805418  0.0992176998682694  1.0000
  C   C2        1.0  0.9350015480538687  0.7764831178916934  0.5992175070996242  1.0000
  C   C3        1.0  0.9350012571832521  0.2764826473694341  0.9007815846828823  1.0000
  C   C4        1.0  0.0649995018682858  0.22351734922479952  0.40078265138934926  1.0000
  C   C5        1.0  0.9420307127429408  0.7337166433705845  0.09753437854865873  1.0000
  C   C6        1.0  0.05797164168376412  0.76628499835234  0.5975339829523778  1.0000
  C   C7        1.0  0.057970220059289104  0.26628312157938433  0.9024649060025001  1.0000
  C   C8        1.0  0.9420286236196914  0.23371616907463982  0.4024657385673579  1.0000
  C   C9        1.0  0.9065803182689646  0.8149392800714779  0.07224522137760661  1.0000
  C   C10       1.0  0.09342105600700985  0.6850623607203441  0.5722457364313629  1.0000
  C   C11       1.0  0.0934186939421764  0.18505977899985027  0.9277545001418094  1.0000
  C   C12       1.0  0.9065808956510605  0.31493810825219976  0.4277539850890336  1.0000
  C   C13       1.0  0.9988968792040822  0.8836266931993462  0.0521158406548707  1.0000
  C   C14       1.0  0.0011036480367821288  0.6163756486392131  0.5521158603817684  1.0000
  C   C15       1.0  0.0011032689821633003  0.11637377206108818  0.9478847548026866  1.0000
  C   C16       1.0  0.9988974018853793  0.38362481847727276  0.4478842981072121  1.0000
  C   C17       1.0  0.11921698905293707  0.8677227823379138  0.055533490997241614  1.0000
  C   C18       1.0  0.8807834316662946  0.6322788572091081  0.5555332777613702  1.0000
  C   C19       1.0  0.8807822573967098  0.13227768106646207  0.9444671044599889  1.0000
  C   C20       1.0  0.1192177353737591  0.3677223120739228  0.4444664437586925  1.0000
  C   C21       1.0  0.7799165082610529  0.8297215319468447  0.06517021044174953  1.0000
  C   C22       1.0  0.220084844078535  0.6702801091037357  0.5651716939957083  1.0000
  C   C23       1.0  0.22008454166043379  0.17027893516965514  0.9348295110783201  1.0000
  C   C24       1.0  0.7799162058443015  0.329720358012743  0.4348289014621758  1.0000
  C   C25       1.0  0.426420195910744  0.236590587142274  0.2921313365903871  1.0000
  C   C26       1.0  0.5735793245051042  0.2634094115698602  0.7921317552806574  1.0000
  C   C27       1.0  0.5735799522741446  0.7634098781181748  0.7078683849293487  1.0000
  C   C28       1.0  0.4264208236811412  0.7365910536905745  0.20786884017690005  1.0000
  C   C29       1.0  0.43195695815815327  0.1889419472166267  0.2396461318194555  1.0000
  C   C30       1.0  0.5680433012496948  0.311058055271232  0.7396461031596928  1.0000
  C   C31       1.0  0.5680440917633262  0.8110585198998732  0.760353589700614  1.0000
  C   C32       1.0  0.4319568469358757  0.6889424099892024  0.2603540553289535  1.0000
  C   C33       1.0  0.3836897252762839  0.09382856318786277  0.23659170780303646  1.0000
  C   C34       1.0  0.6163097400432207  0.40617213972218735  0.7365921387545246  1.0000
  C   C35       1.0  0.6163114417637701  0.9061726060951685  0.7634080137170262  1.0000
  C   C36       1.0  0.38369040814302463  0.5938283255382398  0.26340845670303287  1.0000
  C   C37       1.0  0.33168592988340606  0.05075245282265679  0.28739981493460226  1.0000
  C   C38       1.0  0.6683144775984786  0.4492475479185741  0.7874007151467881  1.0000
  C   C39       1.0  0.6683142183008072  0.9492480124377989  0.7125994696162224  1.0000
  C   C40       1.0  0.3316865723250331  0.5507529191978974  0.212600317280014  1.0000
  C   C41       1.0  0.33046135262198817  0.10347436084423829  0.33811922957104923  1.0000
  C   C42       1.0  0.6695392121271695  0.3965256380419148  0.8381192637488086  1.0000
  C   C43       1.0  0.6695387955629001  0.8965261044162105  0.6618804919486865  1.0000
  C   C44       1.0  0.3304618377949851  0.603474829074571  0.16188089474017187  1.0000
  C   C45       1.0  0.3891712574424702  0.041255100523748894  0.18264440535957502  1.0000
  C   C46       1.0  0.6108289423360985  0.4587456062155083  0.6826448253156913  1.0000
  C   C47       1.0  0.6108299095975838  0.9587460687592895  0.8173553161604803  1.0000
  C   C48       1.0  0.3891712058508218  0.541254859044912  0.31735620711077683  1.0000
  C   C49       1.0  0.3838755904198336  0.6046327281337297  0.9795965701479762  1.0000
  C   C50       1.0  0.6161223040305541  0.8953674841457158  0.47959495812754244  1.0000
  C   C51       1.0  0.6161227542938974  0.3953677334145879  0.020404462277838303  1.0000
  C   C52       1.0  0.3838769424163857  0.10463297925869595  0.5204038894540376  1.0000
  C   C53       1.0  0.4891051830742511  0.6558322762498534  0.945311150433476  1.0000
  C   C54       1.0  0.5108953102757069  0.8441679428517472  0.4453099052606648  1.0000
  C   C55       1.0  0.5108939462574966  0.3441674849879846  0.05468988199267241  1.0000
  C   C56       1.0  0.48910573964509746  0.15583252426475264  0.5546893792904869  1.0000
  C   C57       1.0  0.4871331525766037  0.6006505592605363  0.8878025488058727  1.0000
  C   C58       1.0  0.5128661435972575  0.8993489579218943  0.38780086077033366  1.0000
  C   C59       1.0  0.5128649579006532  0.39934849795470473  0.11219892058885962  1.0000
  C   C60       1.0  0.48713478920497266  0.1006508070280745  0.6121984237808251  1.0000
  C   C61       1.0  0.4206818285226532  0.5027615351473356  0.9028766475805485  1.0000
  C   C62       1.0  0.5793184161289914  0.9972379833398007  0.40287499511253355  1.0000
  C   C63       1.0  0.5793171836912022  0.49723752392395676  0.09712482181451781  1.0000
  C   C64       1.0  0.4206826337924952  0.0027624837766921997  0.597124726407529  1.0000
  C   C65       1.0  0.2540706732218823  0.4518546935663892  0.9778171954453969  1.0000
  C   C66       1.0  0.7459285212226519  0.048145296498148596  0.4778165984118419  1.0000
  C   C67       1.0  0.7459275543725994  0.5481450658154043  0.022183400011506607  1.0000
  C   C68       1.0  0.25407252869950986  0.9518551706183375  0.5221835600771387  1.0000
  N   N1        1.0  0.1526627841784176  0.7881981888793773  0.07797535789192273  1.0000
  N   N2        1.0  0.8473357855357831  0.7118027439681852  0.5779751096340251  1.0000
  N   N3        1.0  0.847337481125045  0.21180297854760247  0.9220243636278058  1.0000
  N   N4        1.0  0.15266436264978006  0.2881977212922493  0.4220250488546214  1.0000
  N   N5        1.0  0.7476931465839484  0.9090359581616808  0.041326547738073316  1.0000
  N   N6        1.0  0.25230801470301856  0.5909649815944602  0.5413276284228987  1.0000
  N   N7        1.0  0.25230790333753816  0.0909645089548192  0.9586731737819891  1.0000
  N   N8        1.0  0.7476929181012437  0.4090347833554872  0.45867296703499255  1.0000
  N   N9        1.0  0.6275411919023951  0.8953151891901849  0.04107524760709681  1.0000
  N   N10       1.0  0.3724590668668526  0.6046857487191203  0.5410751033979794  1.0000
  N   N11       1.0  0.3724589562831682  0.10468527607024918  0.9589249108815496  1.0000
  N   N12       1.0  0.6275410813187108  0.39531471654132116  0.45892505509066706  1.0000
  N   N13       1.0  0.5871602131282502  0.8110515546299908  0.06358875073283342  1.0000
  N   N14       1.0  0.4128419189238172  0.6889493861679693  0.5635890618129624  1.0000
  N   N15       1.0  0.4128408367932366  0.18894891248650936  0.9364109707872363  1.0000
  N   N16       1.0  0.5871582292617461  0.3110510790924721  0.4364110966756912  1.0000
  N   N17       1.0  0.6813229523955187  0.7678523376298615  0.07923227507340162  1.0000
  N   N18       1.0  0.3186793452824617  0.7321493047624583  0.5792329485425898  1.0000
  N   N19       1.0  0.3186782146445424  0.23214883165317698  0.9207674464466538  1.0000
  N   N20       1.0  0.6813208029031016  0.2678511604979832  0.4207672099460568  1.0000
  N   N21       1.0  0.376688454204718  0.19496020639412845  0.3408140276682517  1.0000
  N   N22       1.0  0.6233121189003227  0.3050397923934653  0.8408140402125784  1.0000
  N   N23       1.0  0.6233125957174438  0.8050402607223571  0.6591861308207287  1.0000
  N   N24       1.0  0.37668802928524053  0.6949606728669762  0.15918611827607526  1.0000
  N   N25       1.0  0.4218521741530523  0.0804245310985223  0.13031083295278023  1.0000
  N   N26       1.0  0.578148647969101  0.4195754772443862  0.6303107972555396  1.0000
  N   N27       1.0  0.578148875769102  0.9195759360179706  0.8696893255361932  1.0000
  N   N28       1.0  0.42185228483447895  0.5804242877055683  0.36968936123344065  1.0000
  N   N29       1.0  0.41772442914989927  0.007832730673150897  0.09435659721799544  1.0000
  N   N30       1.0  0.5822753797502784  0.49216727712875036  0.5943565548886414  1.0000
  N   N31       1.0  0.5822756019164147  0.9921670324207595  0.9056431243017402  1.0000
  N   N32       1.0  0.4177237495801122  0.5078324841091016  0.4056436035996855  1.0000
  N   N33       1.0  0.3847725135709865  0.9278705691429535  0.12349186320326314  1.0000
  N   N34       1.0  0.6152278836339278  0.572129663585386  0.6234919007974968  1.0000
  N   N35       1.0  0.6152276346139018  0.07212989611749519  0.8765078583164724  1.0000
  N   N36       1.0  0.3847722645516426  0.42787080167505553  0.37650825769115687  1.0000
  N   N37       1.0  0.3653193984115219  0.9466807359309397  0.17916912270649732  1.0000
  N   N38       1.0  0.6346811714357868  0.5533194947609629  0.679169613991242  1.0000
  N   N39       1.0  0.6346816515099645  0.053319731185560194  0.8208305988135721  1.0000
  N   N40       1.0  0.3653197613677932  0.44668027018899176  0.3208305444977385  1.0000
  N   N41       1.0  0.3657884441459628  0.8624695797578351  0.9864442862204829  1.0000
  N   N42       1.0  0.6342111578942492  0.6375299338166941  0.4864440326032523  1.0000
  N   N43       1.0  0.6342115869210261  0.137530183336068  0.013555872268170803  1.0000
  N   N44       1.0  0.36578887317273967  0.36246982927720933  0.5135561258854012  1.0000
  N   N45       1.0  0.3162917340131912  0.8323337143324563  0.9418585841611746  1.0000
  N   N46       1.0  0.6837096503686977  0.6676665067514589  0.4418579257543201  1.0000
  N   N47       1.0  0.6837084141716899  0.16766675092798516  0.058141137358561024  1.0000
  N   N48       1.0  0.3162904978155082  0.3323339585089967  0.5581413587965047  1.0000
  N   N49       1.0  0.269246383947582  0.8024703281217215  0.8991553450528046  1.0000
  N   N50       1.0  0.7307530645501216  0.6975298908119709  0.39915559100590786  1.0000
  N   N51       1.0  0.730752862500708  0.19753013528266908  0.10084437646659693  1.0000
  N   N52       1.0  0.2692460647795939  0.30246987042588797  0.6008441305135009  1.0000
  N   N53       1.0  0.34868204672739017  0.5208002252898751  0.954302180413919  1.0000
  N   N54       1.0  0.6513174556458593  0.979199289460297  0.45430058297881015  1.0000
  N   N55       1.0  0.6513161808677594  0.47919953409191146  0.045698852011902616  1.0000
  N   N56       1.0  0.34868347715637066  0.020800475489671996  0.5456987015723487  1.0000
  O   O1        1.0  0.33653874575004034  0.6308245294530009  0.025610392051788708  1.0000
  O   O2        1.0  0.6634597787107454  0.8691771074763891  0.5256095514835409  1.0000
  O   O3        1.0  0.6634594818451163  0.3691752299287855  0.9743906403740257  1.0000
  O   O4        1.0  0.3365394677361948  0.1308233559280225  0.4743892960980391  1.0000
