data_image0
_chemical_formula_structural       Mn2H16C20N6Cl2O4
_chemical_formula_sum              "Mn2 H16 C20 N6 Cl2 O4"
_cell_length_a       7.884187569998754
_cell_length_b       8.48410194894376
_cell_length_c       8.997809619020371
_cell_angle_alpha    91.13442044515534
_cell_angle_beta     103.72820817446109
_cell_angle_gamma    109.636385920903

_space_group_name_H-M_alt    "P 1"
_space_group_IT_number       1

loop_
  _space_group_symop_operation_xyz
  'x, y, z'

loop_
  _atom_site_type_symbol
  _atom_site_label
  _atom_site_symmetry_multiplicity
  _atom_site_fract_x
  _atom_site_fract_y
  _atom_site_fract_z
  _atom_site_occupancy
  Mn  Mn1       1.0  0.442592877417347  0.3029912306170531  0.3802197103534511  1.0000
  Mn  Mn2       1.0  0.5573982469833678  0.6969980670816014  0.6197815658611178  1.0000
  H   H1        1.0  0.9442960285450039  0.08787824220765827  0.20943235056628856  1.0000
  H   H2        1.0  0.05570035126050499  0.9121211424845865  0.7905591065920634  1.0000
  H   H3        1.0  0.7260791855933133  0.1523763975952406  0.9438503547332576  1.0000
  H   H4        1.0  0.27393028415449555  0.8476493998115303  0.05614657829804063  1.0000
  H   H5        1.0  0.4641981690072966  0.2406886448965864  0.804338862936959  1.0000
  H   H6        1.0  0.5358086338941135  0.7593270567337456  0.19566397354630283  1.0000
  H   H7        1.0  0.2029718889956413  0.3364355025238979  0.6878082467370066  1.0000
  H   H8        1.0  0.7970300254639253  0.6635776995660477  0.31219797998183213  1.0000
  H   H9        1.0  0.02349964354259982  0.4117634773350289  0.857450373609659  1.0000
  H   H10       1.0  0.9765098914178123  0.5882458793507865  0.14255844191756492  1.0000
  H   H11       1.0  0.1314581968966024  0.4041368071164086  0.14323335932924416  1.0000
  H   H12       1.0  0.8685426375014415  0.5958637751667054  0.8567734841875921  1.0000
  H   H13       1.0  0.8297406129091623  0.25056495733057466  0.5445224401759675  1.0000
  H   H14       1.0  0.1702487966194468  0.7494167927669011  0.4554716529662387  1.0000
  H   H15       1.0  0.9840915141861611  0.1625629351067417  0.4911581105139718  1.0000
  H   H16       1.0  0.015901185507289053  0.8374238461602133  0.5088345426833885  1.0000
  C   C1        1.0  0.8270642165717061  0.13170620138276942  0.19179899844243667  1.0000
  C   C2        1.0  0.17293266603593344  0.868294439666812  0.8081937003013169  1.0000
  C   C3        1.0  0.7158333679745326  0.16570670068809787  0.06120192329671431  1.0000
  C   C4        1.0  0.2841722305183153  0.8343027046325845  0.9387971959417459  1.0000
  C   C5        1.0  0.5875287705039226  0.2188361306607121  0.11504196217757823  1.0000
  C   C6        1.0  0.4124727348548659  0.7811695118379305  0.8849584600300137  1.0000
  C   C7        1.0  0.4365736632005123  0.273793475539648  0.0362859209765958  1.0000
  C   C8        1.0  0.5634303370153402  0.7262184614101271  0.9637151485525879  1.0000
  C   C9        1.0  0.38875453815262506  0.27832320680508355  0.8770048920041662  1.0000
  C   C10       1.0  0.6112478522940847  0.721691269372485  0.12299479145250562  1.0000
  C   C11       1.0  0.2395913435403187  0.32884890315701654  0.8113275138004286  1.0000
  C   C12       1.0  0.7604175681016443  0.6711655181357512  0.18867683821967066  1.0000
  C   C13       1.0  0.14180900503188806  0.3729692931753306  0.9054910492903618  1.0000
  C   C14       1.0  0.8581968229109692  0.6270438754771488  0.09451820099074842  1.0000
  C   C15       1.0  0.19987794606803524  0.3681356109898601  0.06337939132361473  1.0000
  C   C16       1.0  0.8001297918110593  0.6318724937300502  0.9366301404203273  1.0000
  C   C17       1.0  0.836775472333073  0.14708895861676302  0.47356941928757845  1.0000
  C   C18       1.0  0.16321753518889184  0.8528952928796228  0.526424353542261  1.0000
  C   C19       1.0  0.7356888114938156  0.9808343583232852  0.5285727652968222  1.0000
  C   C20       1.0  0.2643143113860517  0.0191523422201101  0.4714242436630017  1.0000
  N   N1        1.0  0.7653377525050047  0.16457757753265406  0.3135795649472045  1.0000
  N   N2        1.0  0.2346554538212828  0.8354104575587371  0.6864154419566335  1.0000
  N   N3        1.0  0.6195595275640994  0.2169943447851707  0.269172705698928  1.0000
  N   N4        1.0  0.3804351871685511  0.782997459378194  0.7308260259611149  1.0000
  N   N5        1.0  0.34396727619035516  0.3203479687244765  0.12833588328341966  1.0000
  N   N6        1.0  0.6560365482054422  0.6796601694328929  0.8716706248982509  1.0000
  Cl  Cl1       1.0  0.7317971939196608  0.5211843489146161  0.5544272929805631  1.0000
  Cl  Cl2       1.0  0.2681919537489747  0.4787999005586271  0.44557902598212723  1.0000
  O   O1        1.0  0.5895401538898069  0.8728239063676496  0.4406856474328508  1.0000
  O   O2        1.0  0.41045868088239956  0.12715524522580074  0.5593125425431824  1.0000
  O   O3        1.0  0.8057743170006688  0.9569905980986491  0.664901029133887  1.0000
  O   O4        1.0  0.19422379692102248  0.0429999238686278  0.3350961481397833  1.0000
