data_image0
_chemical_formula_structural       La2H18C28N4O20
_chemical_formula_sum              "La2 H18 C28 N4 O20"
_cell_length_a       7.274097355335803
_cell_length_b       9.968999987732458
_cell_length_c       11.095296371809086
_cell_angle_alpha    71.52821392271231
_cell_angle_beta     75.18256586470075
_cell_angle_gamma    78.71756719598767

_space_group_name_H-M_alt    "P 1"
_space_group_IT_number       1

loop_
  _space_group_symop_operation_xyz
  'x, y, z'

loop_
  _atom_site_type_symbol
  _atom_site_label
  _atom_site_symmetry_multiplicity
  _atom_site_fract_x
  _atom_site_fract_y
  _atom_site_fract_z
  _atom_site_occupancy
  La  La1       1.0  0.3557488282470586  0.46938762098758974  0.2712727413502947  1.0000
  La  La2       1.0  0.6442532314009812  0.5306088627157876  0.7287268880277437  1.0000
  H   H1        1.0  0.9661453613816562  0.1914219706593201  0.7811060517517633  1.0000
  H   H2        1.0  0.03385652749326337  0.8085755824516313  0.21889870903201827  1.0000
  H   H3        1.0  0.21205324062529474  0.8817584713657283  0.5679708469618633  1.0000
  H   H4        1.0  0.7879514881203278  0.11823908000803843  0.4320307324343702  1.0000
  H   H5        1.0  0.36952434964606334  0.8460780588726281  0.3962133401032518  1.0000
  H   H6        1.0  0.6304798416445507  0.1539226903742872  0.6037874175913416  1.0000
  H   H7        1.0  0.6917729234465212  0.0463312043135105  0.017747385005442668  1.0000
  H   H8        1.0  0.3082268198096115  0.9536706097595699  0.9822520151214462  1.0000
  H   H9        1.0  0.8184254340389003  0.8577750556504427  0.9790712196391026  1.0000
  H   H10       1.0  0.18156825860467046  0.1422288886376748  0.020925887502365015  1.0000
  H   H11       1.0  0.1059184506266462  0.3484300776904874  0.133607186564781  1.0000
  H   H12       1.0  0.8940788040800031  0.6515696033294703  0.8663914383288471  1.0000
  H   H13       1.0  0.24628335283388472  0.46036405498256994  0.02715583689063549  1.0000
  H   H14       1.0  0.7537151475439288  0.5396366931389237  0.9728440765040104  1.0000
  H   H15       1.0  0.7599194917445402  0.32724859255412747  0.30990590184420347  1.0000
  H   H16       1.0  0.24008221239301258  0.6727500242146434  0.6900949815015096  1.0000
  H   H17       1.0  0.691078454626144  0.4037459945039643  0.422960062478282  1.0000
  H   H18       1.0  0.30892307035973937  0.5962536882225251  0.5770405469668843  1.0000
  C   C1        1.0  0.13356229292235605  0.2650088281301493  0.5865441859204381  1.0000
  C   C2        1.0  0.8664369268549874  0.7349876573104199  0.41345862484514845  1.0000
  C   C3        1.0  0.047895247721172  0.16230867736242524  0.6940157279331488  1.0000
  C   C4        1.0  0.9521066411537474  0.8376888757485262  0.3059890328506328  1.0000
  C   C5        1.0  0.0763243944855105  0.022009971283893  0.6866494369018739  1.0000
  C   C6        1.0  0.9236813993831773  0.97798971257415  0.31335225621045026  1.0000
  C   C7        1.0  0.1842761534405  0.9913984971553874  0.5728660353866815  1.0000
  C   C8        1.0  0.8157298181834347  0.0086001201699659  0.4271350307418018  1.0000
  C   C9        1.0  0.26082475624261287  0.10135631495579392  0.46832853962737897  1.0000
  C   C10       1.0  0.7391783699249218  0.8986423018068449  0.531672104351131  1.0000
  C   C11       1.0  0.3810630485291425  0.07534274345567842  0.3461086429760698  1.0000
  C   C12       1.0  0.6189368724822301  0.924658004084705  0.6538901301669853  1.0000
  C   C13       1.0  0.42190398874900836  0.9406088301555471  0.32336409915782843  1.0000
  C   C14       1.0  0.578100378900423  0.0593908519837072  0.6766351306685509  1.0000
  C   C15       1.0  0.5375938793125103  0.9256373770076822  0.205209728036408  1.0000
  C   C16       1.0  0.4624074637288587  0.07436337052657652  0.7947888057394435  1.0000
  C   C17       1.0  0.6045703368128696  0.047487385723215404  0.11278191866909992  1.0000
  C   C18       1.0  0.3954294064432629  0.952514428349872  0.8872174814577889  1.0000
  C   C19       1.0  0.5602028387116887  0.17666674854416442  0.14373195868581232  1.0000
  C   C20       1.0  0.43979708369611364  0.8233339995711974  0.8562677153416232  1.0000
  C   C21       1.0  0.631341371071727  0.311216744805904  0.04808743852030515  1.0000
  C   C22       1.0  0.3686555309172805  0.6887850704293896  0.9519142421097513  1.0000
  C   C23       1.0  0.5887170392204409  0.7799618541011455  0.18046868857459944  1.0000
  C   C24       1.0  0.41128448017974506  0.22003782632543792  0.8195283173330451  1.0000
  C   C25       1.0  0.9988828582652401  0.9014382145261024  0.7978834598650764  1.0000
  C   C26       1.0  0.0011138687613651956  0.09856466839183751  0.2021206495175818  1.0000
  C   C27       1.0  0.12507325576580536  0.41620035256512017  0.5906166910397772  1.0000
  C   C28       1.0  0.8749286233341421  0.5837971965210117  0.40938176355333417  1.0000
  N   N1        1.0  0.23440886382896045  0.23630976661935676  0.476037937845966  1.0000
  N   N2        1.0  0.765589817096945  0.7636899161193967  0.5239631503336  1.0000
  N   N3        1.0  0.45280497000275927  0.190616025235073  0.2576159016033444  1.0000
  N   N4        1.0  0.5471935303750539  0.8093847228864207  0.7423840117913018  1.0000
  O   O1        1.0  0.6222733521440206  0.4148790785854716  0.09541292035392249  1.0000
  O   O2        1.0  0.377720880747404  0.5851216689794398  0.9045868102579462  1.0000
  O   O3        1.0  0.6903162882727969  0.31301104813176284  0.9307680566871569  1.0000
  O   O4        1.0  0.3096855922235733  0.6869865015293399  0.06923129879033496  1.0000
  O   O5        1.0  0.7155693316690513  0.7636998896266151  0.0814978395526182  1.0000
  O   O6        1.0  0.2844183019834148  0.23630618142668425  0.9184915692971317  1.0000
  O   O7        1.0  0.5012556081878259  0.6802993690105837  0.2634827807801585  1.0000
  O   O8        1.0  0.49875036064326383  0.3196992471648201  0.7365164835795639  1.0000
  O   O9        1.0  0.041281771017622766  0.7768505996972195  0.7898813394402495  1.0000
  O   O10       1.0  0.9587128201771407  0.22314801595225484  0.21011893897270528  1.0000
  O   O11       1.0  0.8889130810446486  0.9397746731692325  0.8972154238400732  1.0000
  O   O12       1.0  0.111085952586933  0.060231407609599316  0.102787385106538  1.0000
  O   O13       1.0  0.9995782053018869  0.4595774875588463  0.6761196832024226  1.0000
  O   O14       1.0  0.0004208325309348738  0.5404200626894922  0.3238810518938564  1.0000
  O   O15       1.0  0.24933019253313657  0.4905303546702696  0.5055163191202467  1.0000
  O   O16       1.0  0.7506690244513551  0.5094661296203498  0.494484689876579  1.0000
  O   O17       1.0  0.20208270305222698  0.41206472864706706  0.1203126782709489  1.0000
  O   O18       1.0  0.7979204203224555  0.5879338869656224  0.879686163938793  1.0000
  O   O19       1.0  0.6480265204642491  0.34950161340595537  0.375267915325729  1.0000
  O   O20       1.0  0.3519734033399756  0.6504991352843845  0.6247326595860941  1.0000
