data_image0
_chemical_formula_structural       Mn2H32C24S4N4O16
_chemical_formula_sum              "Mn2 H32 C24 S4 N4 O16"
_cell_length_a       7.780601459378188
_cell_length_b       6.919484783269505
_cell_length_c       17.808419497553547
_cell_angle_alpha    92.9725151632934
_cell_angle_beta     90.19702856767819
_cell_angle_gamma    120.10013912369867

_space_group_name_H-M_alt    "P 1"
_space_group_IT_number       1

loop_
  _space_group_symop_operation_xyz
  'x, y, z'

loop_
  _atom_site_type_symbol
  _atom_site_label
  _atom_site_symmetry_multiplicity
  _atom_site_fract_x
  _atom_site_fract_y
  _atom_site_fract_z
  _atom_site_occupancy
  Mn  Mn1       1.0  0.5000101958166709  0.5000040036213705  2.819186356401016e-06  1.0000
  Mn  Mn2       1.0  0.9999980498621568  0.9999987853262696  0.4999990663031254  1.0000
  H   H1        1.0  0.21740586630351544  0.584143103889133  0.05834118450751899  1.0000
  H   H2        1.0  0.28959507072756463  0.9250385988979064  0.5600363155528639  1.0000
  H   H3        1.0  0.782596049355284  0.4158618532962422  0.9416559721142617  1.0000
  H   H4        1.0  0.7103994566407649  0.0749584211579091  0.43996525095730726  1.0000
  H   H5        1.0  0.08113256830475278  0.33857943251756234  0.013784732416524998  1.0000
  H   H6        1.0  0.3832155836686865  0.19031684712956584  0.5496925489955656  1.0000
  H   H7        1.0  0.9188713804771566  0.6614271925773495  0.9862124421300676  1.0000
  H   H8        1.0  0.6167798258250626  0.8096821035005417  0.4503118467614087  1.0000
  H   H9        1.0  0.0754989324793129  0.3350581539045407  0.409781010392841  1.0000
  H   H10       1.0  0.40097280816407027  0.14693702881812246  0.9069051497392735  1.0000
  H   H11       1.0  0.9244896000612995  0.66492842157637  0.590215951772926  1.0000
  H   H12       1.0  0.5990384643190082  0.8530715536071938  0.09309541833678028  1.0000
  H   H13       1.0  0.28749925428804346  0.3461676681642701  0.43737299060840223  1.0000
  H   H14       1.0  0.1895593696119562  0.13905733364278214  0.9329734075633381  1.0000
  H   H15       1.0  0.7124948780594379  0.6538342257809688  0.5626269407094994  1.0000
  H   H16       1.0  0.8104496261957265  0.860946178641143  0.06702654556064398  1.0000
  H   H17       1.0  0.03311673542407329  0.18075629507585228  0.1530994447801817  1.0000
  H   H18       1.0  0.5040568695577646  0.36872999442159937  0.6642420162742084  1.0000
  H   H19       1.0  0.9668848251661826  0.8192421153534821  0.8468993294971978  1.0000
  H   H20       1.0  0.4959347689692493  0.6312634786919276  0.3357572654063787  1.0000
  H   H21       1.0  0.9620460932241599  0.2540176366632068  0.28458673120459815  1.0000
  H   H22       1.0  0.5501065382612608  0.27413041817638373  0.7925031813819884  1.0000
  H   H23       1.0  0.03795040747820622  0.7459723628485833  0.715411392659213  1.0000
  H   H24       1.0  0.4498906138763489  0.7258696334063758  0.20749504653754505  1.0000
  H   H25       1.0  0.3902542626050903  0.09309306761112172  0.3690493334760773  1.0000
  H   H26       1.0  0.07072999989457435  0.36548355605469857  0.8685178762190446  1.0000
  H   H27       1.0  0.60975008119766  0.9069086835943665  0.630949476262792  1.0000
  H   H28       1.0  0.9292765354745072  0.6345201723095356  0.1314843254967712  1.0000
  H   H29       1.0  0.4598741291198678  0.016567343541275602  0.23873092512224048  1.0000
  H   H30       1.0  0.01930284019788082  0.45333773317285875  0.7406835104341241  1.0000
  H   H31       1.0  0.5401291223870572  0.9834377117700868  0.7612673565717215  1.0000
  H   H32       1.0  0.9806910163026643  0.546657768640948  0.2593197255654402  1.0000
  C   C1        1.0  0.25135170213332  0.09468058161819223  0.18752511982510356  1.0000
  C   C2        1.0  0.2556943453288483  0.41143152064356775  0.6937510134534504  1.0000
  C   C3        1.0  0.7486575302519896  0.9053177475270998  0.8124730944390136  1.0000
  C   C4        1.0  0.7443038139955291  0.5885621338506722  0.3062505195358654  1.0000
  C   C5        1.0  0.1113585996340589  0.1618172391246233  0.20039432777465999  1.0000
  C   C6        1.0  0.4053128787187745  0.3617974953680729  0.7084424369243081  1.0000
  C   C7        1.0  0.8886437374527958  0.838182895712862  0.7996050263814211  1.0000
  C   C8        1.0  0.5946804906771987  0.6381912019820178  0.29155960502072986  1.0000
  C   C9        1.0  0.07334582429865577  0.20543797229643698  0.2737816968597855  1.0000
  C   C10       1.0  0.4317107872028244  0.3091447625568406  0.7801652681896483  1.0000
  C   C11       1.0  0.9266528474502848  0.7945568911906095  0.7262147925880027  1.0000
  C   C12       1.0  0.5682811740980824  0.6908522674131415  0.21983629754427614  1.0000
  C   C13       1.0  0.17789276273957466  0.18776894638629224  0.3348352919497941  1.0000
  C   C14       1.0  0.3061681272115919  0.3013474893185588  0.8374577583129292  1.0000
  C   C15       1.0  0.822107705554849  0.8122327681489169  0.6651629542826711  1.0000
  C   C16       1.0  0.6938309729400559  0.6986511371910853  0.16254326455629095  1.0000
  C   C17       1.0  0.3125935052269639  0.11222932484484721  0.32161118009695844  1.0000
  C   C18       1.0  0.16377365422636098  0.3637698976740964  0.8233936049184931  1.0000
  C   C19       1.0  0.6874051470894358  0.8877740724711529  0.6783870828959309  1.0000
  C   C20       1.0  0.8362276697862682  0.6362336958938714  0.17660690821875139  1.0000
  C   C21       1.0  0.350761331231645  0.0688461558155851  0.24839261099023696  1.0000
  C   C22       1.0  0.13604056143818613  0.4144598964635974  0.7516258850203954  1.0000
  C   C23       1.0  0.6492403936892827  0.931155502221003  0.7516050732883314  1.0000
  C   C24       1.0  0.8639493861721589  0.5855269317679018  0.24837388924361647  1.0000
  S   S1        1.0  0.2962835037181081  0.0264950243377697  0.09489246215200348  1.0000
  S   S2        1.0  0.22065023533281902  0.4751171059216831  0.6021565002412643  1.0000
  S   S3        1.0  0.7037212479676072  0.9735133767068337  0.9051058546153213  1.0000
  S   S4        1.0  0.7793414824158093  0.5248765218164451  0.3978444684653936  1.0000
  N   N1        1.0  0.1521814682144438  0.25010415072758724  0.4093696269761509  1.0000
  N   N2        1.0  0.3248627780960476  0.23301729324385434  0.9091952262228559  1.0000
  N   N3        1.0  0.8478140194137039  0.7498893075146855  0.5906296558688169  1.0000
  N   N4        1.0  0.6751449874923381  0.7669863270802252  0.09080585119704657  1.0000
  O   O1        1.0  0.4674217710448972  0.23000937675990946  0.067087940240576  1.0000
  O   O2        1.0  0.0298332191273971  0.2830120717423981  0.5710454342054803  1.0000
  O   O3        1.0  0.5325771053912477  0.770005956616892  0.9329126933246811  1.0000
  O   O4        1.0  0.9701644131401108  0.7169861989335898  0.428951651881448  1.0000
  O   O5        1.0  0.1138063725703874  0.9462757910991756  0.04828504704460099  1.0000
  O   O6        1.0  0.39031171508139556  0.49934420142583497  0.5590691239679302  1.0000
  O   O7        1.0  0.8861962539084942  0.05371926368275128  0.9517136929356621  1.0000
  O   O8        1.0  0.60967952253732  0.5006512072190645  0.4409329865713332  1.0000
  O   O9        1.0  0.34745010333652  0.8497056105314087  0.10320769972589257  1.0000
  O   O10       1.0  0.20664629115321997  0.6798951926556356  0.6100731650210703  1.0000
  O   O11       1.0  0.6525673008105313  0.15031096552208112  0.8967890204156674  1.0000
  O   O12       1.0  0.7933494664344137  0.3201017193600251  0.3899272771931876  1.0000
  O   O13       1.0  0.2094350002981286  0.4427764788470795  0.0390522790678531  1.0000
  O   O14       1.0  0.2896653874808378  0.0393587143928897  0.5286898633248569  1.0000
  O   O15       1.0  0.790565494403502  0.557225287229663  0.9609465295066356  1.0000
  O   O16       1.0  0.7103364694761112  0.9606432013513739  0.47131063266382967  1.0000
