data_image0
_chemical_formula_structural       Zn2H14C28Br4N2O8
_chemical_formula_sum              "Zn2 H14 C28 Br4 N2 O8"
_cell_length_a       8.982768186233912
_cell_length_b       13.926527749981593
_cell_length_c       15.369477687491326
_cell_angle_alpha    90.16636148195414
_cell_angle_beta     89.95700020241341
_cell_angle_gamma    81.42195874631324

_space_group_name_H-M_alt    "P 1"
_space_group_IT_number       1

loop_
  _space_group_symop_operation_xyz
  'x, y, z'

loop_
  _atom_site_type_symbol
  _atom_site_label
  _atom_site_symmetry_multiplicity
  _atom_site_fract_x
  _atom_site_fract_y
  _atom_site_fract_z
  _atom_site_occupancy
  Zn  Zn1       1.0  0.5073281971601985  0.4002887200652908  0.4956302137416628  1.0000
  Zn  Zn2       1.0  0.49525330986742944  0.5992764733540878  0.5052018140403618  1.0000
  H   H1        1.0  0.9833125596743884  0.6125239914980726  0.5025740054498797  1.0000
  H   H2        1.0  0.01994838325438763  0.3887113702931018  0.5000605809539138  1.0000
  H   H3        1.0  0.6193927086554891  0.3482356554899369  0.0667493571008748  1.0000
  H   H4        1.0  0.6243654748668703  0.626195535235155  0.9327793923811496  1.0000
  H   H5        1.0  0.6022340388173218  0.35792088570052266  0.2285291144950961  1.0000
  H   H6        1.0  0.6033618620124344  0.6204773069737897  0.7711396837987508  1.0000
  H   H7        1.0  0.43380201454728956  0.6516488256982313  0.05316947093267289  1.0000
  H   H8        1.0  0.4246928366272016  0.36382015592292294  0.9483497210198094  1.0000
  H   H9        1.0  0.2999766047171306  0.9552575257764814  0.5803851455536702  1.0000
  H   H10       1.0  0.6913900640122109  0.04700335271886048  0.579356071242401  1.0000
  H   H11       1.0  0.30678174481756315  0.7735622696025714  0.5829298960536065  1.0000
  H   H12       1.0  0.6886625557786415  0.22830886301370865  0.576581775160541  1.0000
  H   H13       1.0  0.6809250563945285  0.7299154747636718  0.4222122118335889  1.0000
  H   H14       1.0  0.31536786886781687  0.2684634749005355  0.4155988081201157  1.0000
  C   C1        1.0  0.5077157927440582  0.5055410943688583  0.3303076245962302  1.0000
  C   C2        1.0  0.5020812102263719  0.49239589806542466  0.6704589008239523  1.0000
  C   C3        1.0  0.3865885063557713  0.9075103756876146  0.5449344022321299  1.0000
  C   C4        1.0  0.606120623159697  0.09385176500821761  0.542475688655422  1.0000
  C   C5        1.0  0.3893866533075113  0.8075688594383549  0.5468262941692218  1.0000
  C   C6        1.0  0.6060543980736313  0.19355746352366046  0.5411080137851696  1.0000
  C   C7        1.0  0.5997353205654791  0.7824717811692848  0.45678462055911945  1.0000
  C   C8        1.0  0.3962238104525895  0.21667060936712793  0.4508991893551837  1.0000
  C   C9        1.0  0.6038860259208504  0.8820836637731873  0.45248358103184927  1.0000
  C   C10       1.0  0.38914783069796494  0.11725581392338569  0.450051400784794  1.0000
  C   C11       1.0  0.4958680494384141  0.9470046357501188  0.4972802298058809  1.0000
  C   C12       1.0  0.49627624419903793  0.053388046207537294  0.496078654823279  1.0000
  C   C13       1.0  0.2081265077348462  0.5241214491365795  0.5002263610319915  1.0000
  C   C14       1.0  0.7948573896430347  0.4769085950955371  0.5022919101256775  1.0000
  C   C15       1.0  0.040888726573229  0.5378333147496192  0.5018955538091987  1.0000
  C   C16       1.0  0.9621868365211695  0.4633371802619519  0.5019280871331304  1.0000
  C   C17       1.0  0.5749731976019703  0.41659124447176055  0.09868221609098529  1.0000
  C   C18       1.0  0.576082967030473  0.5676851175608917  0.9013208777329993  1.0000
  C   C19       1.0  0.5669076875896906  0.421930846249488  0.1887812199109007  1.0000
  C   C20       1.0  0.5658274194859487  0.5642696775766394  0.8112539015061272  1.0000
  C   C21       1.0  0.5133602128530654  0.509008200976389  0.23267401986137765  1.0000
  C   C22       1.0  0.5076862283897938  0.48889183342569703  0.7680912542841796  1.0000
  C   C23       1.0  0.4685424558215985  0.5918065648700477  0.1816792136109697  1.0000
  C   C24       1.0  0.45972574619279544  0.4161683490554323  0.819502475277119  1.0000
  C   C25       1.0  0.47508527497502945  0.5871524449285701  0.0910324119210273  1.0000
  C   C26       1.0  0.46837898275687445  0.41916800024440454  0.9100557708713168  1.0000
  C   C27       1.0  0.5275776674752635  0.49949079785795897  0.04828589994528439  1.0000
  C   C28       1.0  0.5261979310243773  0.49511737513674337  0.9521939960934842  1.0000
  Br  Br1       1.0  0.38480521690376424  0.7145771670039525  0.23014153107237684  1.0000
  Br  Br2       1.0  0.3683399868867596  0.3128300245059492  0.7709191764488779  1.0000
  Br  Br3       1.0  0.7552860660216609  0.9258219763613978  0.3836049840210407  1.0000
  Br  Br4       1.0  0.23565232050182058  0.07185145750501219  0.383985686109277  1.0000
  N   N1        1.0  0.49460652875546873  0.7469274417430612  0.5035606284302716  1.0000
  N   N2        1.0  0.5032897053786201  0.25303180670390896  0.49545172806007537  1.0000
  O   O1        1.0  0.48477223255149254  0.425138426014385  0.3633036336547874  1.0000
  O   O2        1.0  0.4708191175223107  0.5766397724312708  0.6370505407953644  1.0000
  O   O3        1.0  0.5286387172323613  0.5808972446271241  0.3724145998722292  1.0000
  O   O4        1.0  0.532040829062325  0.4128138636435139  0.6291734256857282  1.0000
  O   O5        1.0  0.27860627560223616  0.43807886939572427  0.5076095017343718  1.0000
  O   O6        1.0  0.7245212404812307  0.561488706941411  0.5183745105505864  1.0000
  O   O7        1.0  0.2680173729083677  0.6012313793056733  0.49174086783133925  1.0000
  O   O8        1.0  0.735191898474632  0.4010380159363719  0.4860062811965307  1.0000
