data_image0
_chemical_formula_structural       Al2H16C30N2Cl2O12
_chemical_formula_sum              "Al2 H16 C30 N2 Cl2 O12"
_cell_length_a       6.656363838898612
_cell_length_b       16.955056990077864
_cell_length_c       17.750641093798208
_cell_angle_alpha    87.15594636769039
_cell_angle_beta     79.10036886687877
_cell_angle_gamma    82.54751871305193

_space_group_name_H-M_alt    "P 1"
_space_group_IT_number       1

loop_
  _space_group_symop_operation_xyz
  'x, y, z'

loop_
  _atom_site_type_symbol
  _atom_site_label
  _atom_site_symmetry_multiplicity
  _atom_site_fract_x
  _atom_site_fract_y
  _atom_site_fract_z
  _atom_site_occupancy
  Al  Al1       1.0  0.4915179722517281  0.5005953275272718  0.5012467641405536  1.0000
  Al  Al2       1.0  0.9927748963111612  0.5009099904547015  0.49899793618419613  1.0000
  H   H1        1.0  0.7637936651563068  0.5557172319071244  0.41253626470315646  1.0000
  H   H2        1.0  0.21270492552401526  0.4458370549691325  0.5878045586512286  1.0000
  H   H3        1.0  0.122845991327118  0.26232858648140933  0.5236583835522594  1.0000
  H   H4        1.0  0.18838457574145906  0.11389567144800591  0.5230380367841079  1.0000
  H   H5        1.0  0.5896682633279015  0.10639798794702673  0.4655984182848131  1.0000
  H   H6        1.0  0.3998302205339144  0.8942538152497833  0.5336992057211916  1.0000
  H   H7        1.0  0.8007099160201891  0.8883678806938918  0.4760646899797861  1.0000
  H   H8        1.0  0.8629880492287683  0.7398803339621838  0.47598476547659624  1.0000
  H   H9        1.0  0.6534905640741826  0.5319691671172677  0.2727931804046193  1.0000
  H   H10       1.0  0.7384441485268881  0.5357651902045149  0.1297609762763727  1.0000
  H   H11       1.0  0.09231687780012275  0.4345421555846514  0.2646440783115338  1.0000
  H   H12       1.0  0.9091591761512345  0.570973362255522  0.7271612991980945  1.0000
  H   H13       1.0  0.3590753565642614  0.4595201436865963  0.7361366576862451  1.0000
  H   H14       1.0  0.30747224786914273  0.45348426220584065  0.8792483387986465  1.0000
  H   H15       1.0  0.484115019868213  0.3174639844652205  0.46997216795826086  1.0000
  H   H16       1.0  0.4992814959572057  0.6830874424059561  0.531667652504666  1.0000
  C   C1        1.0  0.3095561667295072  0.48928401193725796  0.3624552969366944  1.0000
  C   C2        1.0  0.1988249332594307  0.6456844945187755  0.500806407501841  1.0000
  C   C3        1.0  0.6800425143481164  0.5117750089706661  0.6377131794949091  1.0000
  C   C4        1.0  0.7858815613236487  0.35567334005221346  0.4993676164764125  1.0000
  C   C5        1.0  0.8192323523779238  0.26841969510795854  0.49692769885284344  1.0000
  C   C6        1.0  0.006566730921598208  0.2274207049687931  0.5120123139175092  1.0000
  C   C7        1.0  0.04433810214855781  0.14553709091867972  0.5112487633153506  1.0000
  C   C8        1.0  0.8913806145667066  0.10214408616808869  0.49452221733751134  1.0000
  C   C9        1.0  0.7051691621116732  0.1410182579156753  0.4787394475532664  1.0000
  C   C10       1.0  0.6665586466723994  0.22426072152723006  0.4799087161402013  1.0000
  C   C11       1.0  0.2835275082772739  0.8600459359111811  0.5205509333392442  1.0000
  C   C12       1.0  0.09808500638784075  0.8993409256827789  0.5045127456236997  1.0000
  C   C13       1.0  0.9442145486718302  0.8563194030039798  0.4879319095821515  1.0000
  C   C14       1.0  0.9802271899050153  0.774391156204338  0.48752294498785176  1.0000
  C   C15       1.0  0.16669276024342852  0.7329465907020636  0.5029783189014907  1.0000
  C   C16       1.0  0.3201279999501454  0.776737643100624  0.5200763579803365  1.0000
  C   C17       1.0  0.3656547065791783  0.48505133155708097  0.27734187665411264  1.0000
  C   C18       1.0  0.5502340765331083  0.5116446071913786  0.23918542314645913  1.0000
  C   C19       1.0  0.597725880765367  0.5136190412918893  0.1597868842241752  1.0000
  C   C20       1.0  0.4646493207597544  0.4873147960766318  0.11569031107490699  1.0000
  C   C21       1.0  0.28433632149294413  0.45655804192092825  0.15534255695530413  1.0000
  C   C22       1.0  0.23363345509235248  0.4566356807911731  0.2350470037026327  1.0000
  C   C23       1.0  0.509215382544305  0.49364642332434266  0.034972051794014164  1.0000
  C   C24       1.0  0.5459853323585692  0.5024114232213821  0.9652650290674885  1.0000
  C   C25       1.0  0.5772395479233837  0.5090191179950665  0.8845619045511484  1.0000
  C   C26       1.0  0.7453784406773425  0.5438525946365542  0.8403391207703735  1.0000
  C   C27       1.0  0.7773797356386752  0.5453980503632394  0.7605890047959178  1.0000
  C   C28       1.0  0.6390121831413466  0.5142055159796756  0.7230158935759974  1.0000
  C   C29       1.0  0.4669322694734035  0.4826255973430662  0.7658889803085244  1.0000
  C   C30       1.0  0.4380235805782818  0.4793399053732514  0.845275423206381  1.0000
  N   N1        1.0  0.9105194652724009  0.018196648818538105  0.49229668874950516  1.0000
  N   N2        1.0  0.07982837061328499  0.983307349115066  0.506600366334325  1.0000
  Cl  Cl1       1.0  0.12354699811426431  0.4195545246231447  0.10376465210620718  1.0000
  Cl  Cl2       1.0  0.9144139063727152  0.5838698056875915  0.8859140982447755  1.0000
  O   O1        1.0  0.4504682723701875  0.5043099124501398  0.3974543048684112  1.0000
  O   O2        1.0  0.057544336341727786  0.6086133953010063  0.48564400683086  1.0000
  O   O3        1.0  0.860585651090389  0.5226317731830221  0.6029896861697779  1.0000
  O   O4        1.0  0.6074609148855074  0.3906043535958262  0.4889467254538857  1.0000
  O   O5        1.0  0.533607511424961  0.4970600898276275  0.6053192053553929  1.0000
  O   O6        1.0  0.9291145093941822  0.3929886015506554  0.512401958792644  1.0000
  O   O7        1.0  0.125793200182251  0.47955516108591223  0.3945338112260046  1.0000
  O   O8        1.0  0.3748035470680976  0.610439036176345  0.5136060915182837  1.0000
  O   O9        1.0  0.7472249330684521  0.5351906256130832  0.464956191836805  1.0000
  O   O10       1.0  0.23550172580227266  0.46617141086706243  0.5353161555980321  1.0000
  O   O11       1.0  0.4839960707409361  0.2589922651034016  0.4645445040601501  1.0000
  O   O12       1.0  0.5015360897684006  0.7416101956384438  0.5360976660588008  1.0000
