data_image0
_chemical_formula_structural       Cu12H48C60N28
_chemical_formula_sum              "Cu12 H48 C60 N28"
_cell_length_a       23.57534989761424
_cell_length_b       23.590650421515814
_cell_length_c       23.623608655250187
_cell_angle_alpha    89.92320161574949
_cell_angle_beta     90.05039916353967
_cell_angle_gamma    90.01038197697973

_space_group_name_H-M_alt    "P 1"
_space_group_IT_number       1

loop_
  _space_group_symop_operation_xyz
  'x, y, z'

loop_
  _atom_site_type_symbol
  _atom_site_label
  _atom_site_symmetry_multiplicity
  _atom_site_fract_x
  _atom_site_fract_y
  _atom_site_fract_z
  _atom_site_occupancy
  Cu  Cu1       1.0  0.18165059892262997  0.8733243240626364  0.0737772911481756  1.0000
  Cu  Cu2       1.0  0.0663285011092256  0.8232093284632782  0.12778228696923574  1.0000
  Cu  Cu3       1.0  0.12680765557436047  0.9266438709330412  0.18408005852226944  1.0000
  Cu  Cu4       1.0  0.6773687770703845  0.12796446966511613  0.43289763523789293  1.0000
  Cu  Cu5       1.0  0.5708923596618051  0.1847701927672531  0.3780342247334544  1.0000
  Cu  Cu6       1.0  0.6277229993310628  0.07467479376035159  0.3204475870172132  1.0000
  Cu  Cu7       1.0  0.3195997321479425  0.3728265887616757  0.9307955964185338  1.0000
  Cu  Cu8       1.0  0.42720310530255295  0.31722736205905017  0.877469312852291  1.0000
  Cu  Cu9       1.0  0.3712344045728955  0.4284207328620796  0.8203675258857784  1.0000
  Cu  Cu10      1.0  0.8188012991247222  0.6263026495794152  0.5716144490952927  1.0000
  Cu  Cu11      1.0  0.9324810864627011  0.6781550499899681  0.6268550758838457  1.0000
  Cu  Cu12      1.0  0.8790061098988674  0.5681434629838976  0.6770832061024875  1.0000
  H   H1        1.0  0.19486175777915088  0.7913071508301144  0.9677629828637747  1.0000
  H   H2        1.0  0.035317142608271006  0.7317137206279793  0.03633321011204059  1.0000
  H   H3        1.0  0.22132392876351767  0.014578518157485095  0.21850621175310178  1.0000
  H   H4        1.0  0.2897235497893931  0.9549974548362458  0.05921498898816679  1.0000
  H   H5        1.0  0.9594485488049075  0.8079234787130716  0.2111743673368025  1.0000
  H   H6        1.0  0.0349289013275467  0.9624822737881475  0.27536988488737524  1.0000
  H   H7        1.0  0.7120844536304461  0.22199103640360113  0.522535538333031  1.0000
  H   H8        1.0  0.5526109408090322  0.29036271652878304  0.4619818173366922  1.0000
  H   H9        1.0  0.7115038634356595  0.9685146264624437  0.305590620117087  1.0000
  H   H10       1.0  0.7636786849263687  0.03220030804754259  0.46947220634515924  1.0000
  H   H11       1.0  0.4750600405337623  0.2113473399349104  0.289510321038307  1.0000
  H   H12       1.0  0.5482046896814836  0.06197092387161968  0.2122371341230647  1.0000
  H   H13       1.0  0.2843873829768526  0.27797618444793665  0.019615722542525294  1.0000
  H   H14       1.0  0.44569869562170794  0.21174909991434274  0.9620261226368  1.0000
  H   H15       1.0  0.28876764863258597  0.5358134769204597  0.8064873991906719  1.0000
  H   H16       1.0  0.23266179591357888  0.46783985860702854  0.9674142814274871  1.0000
  H   H17       1.0  0.5229388216853437  0.2909148369241805  0.7891628279758505  1.0000
  H   H18       1.0  0.4513808952595327  0.4418419203962712  0.7129099196852948  1.0000
  H   H19       1.0  0.8046842898705721  0.7089726582166732  0.46574475039616187  1.0000
  H   H20       1.0  0.9616723596155978  0.7719874337966388  0.5372005817900529  1.0000
  H   H21       1.0  0.786973083338232  0.47734217366893716  0.7108948536045999  1.0000
  H   H22       1.0  0.7081420604176358  0.5479544933291933  0.5609149680864646  1.0000
  H   H23       1.0  0.035350255265427705  0.698062039173884  0.7143049096221928  1.0000
  H   H24       1.0  0.9746404094986901  0.5323625633026269  0.7654001529603176  1.0000
  H   H25       1.0  0.19407475780111844  0.6823485760612796  0.9226616257486882  1.0000
  H   H26       1.0  0.06322854020829281  0.6912194656504196  0.9248879741173182  1.0000
  H   H27       1.0  0.5534444391222736  0.3350147566069737  0.5718654598995768  1.0000
  H   H28       1.0  0.6841942433367195  0.33419692759203906  0.5614845832326694  1.0000
  H   H29       1.0  0.44410208963390124  0.1678895891019607  0.07181170935059099  1.0000
  H   H30       1.0  0.31346903585023256  0.1663861547614189  0.06000261973724718  1.0000
  H   H31       1.0  0.8038279110859324  0.8196958864907984  0.42123510161516003  1.0000
  H   H32       1.0  0.9346824351624009  0.8118952109470926  0.4251675689338937  1.0000
  H   H33       1.0  0.3335377598907883  0.06499594100490208  0.05954583479611839  1.0000
  H   H34       1.0  0.3328439944559847  0.0555376634855236  0.1901214130973372  1.0000
  H   H35       1.0  0.664944931631375  0.4362936947113025  0.5586640513822443  1.0000
  H   H36       1.0  0.6701250432268823  0.44313386525925574  0.6892451016533486  1.0000
  H   H37       1.0  0.8184756643209213  0.9217453367505895  0.3101098368350321  1.0000
  H   H38       1.0  0.8057121073869168  0.921681271628117  0.4404077103861893  1.0000
  H   H39       1.0  0.18231408679393724  0.5830815235703994  0.8097915820762864  1.0000
  H   H40       1.0  0.19167937769329063  0.5792613528808346  0.9403226796808608  1.0000
  H   H41       1.0  0.9165345779776503  0.807635921836564  0.32229013655605593  1.0000
  H   H42       1.0  0.9207705590539135  0.938355731237735  0.3134004057369494  1.0000
  H   H43       1.0  0.5650514275239686  0.44724004105404447  0.6716934859210254  1.0000
  H   H44       1.0  0.5589932802824578  0.316336544669376  0.6741848233433243  1.0000
  H   H45       1.0  0.0813674103221729  0.6946015357989735  0.8227708868916821  1.0000
  H   H46       1.0  0.0821703977722805  0.5641015114900867  0.8103979545444628  1.0000
  H   H47       1.0  0.43553154275263495  0.055296106829494804  0.171083462160027  1.0000
  H   H48       1.0  0.4385569296364765  0.18627676107092836  0.17451861365504576  1.0000
  C   C1        1.0  0.15716259704442592  0.7824118299374021  0.9925946123021204  1.0000
  C   C2        1.0  0.11311771478141712  0.7435312198918637  0.9821419740746362  1.0000
  C   C3        1.0  0.07521338051999038  0.7527512308668848  0.027100905529259495  1.0000
  C   C4        1.0  0.23055005351756822  0.9935173961379886  0.17872384824350004  1.0000
  C   C5        1.0  0.275559024560316  0.002665014275351  0.14078951296535538  1.0000
  C   C6        1.0  0.2649107444487413  0.9638836098317682  0.09684138718337458  1.0000
  C   C7        1.0  0.9859417881770511  0.8441957532417065  0.22119664559223648  1.0000
  C   C8        1.0  0.9772413455057318  0.8875492034485576  0.2611284789964897  1.0000
  C   C9        1.0  0.023965404398950296  0.9237242752495122  0.25318760341590246  1.0000
  C   C10       1.0  0.6722460351404181  0.23111028312280266  0.5013298656439318  1.0000
  C   C11       1.0  0.6343244904872095  0.276256070648202  0.5099661163601111  1.0000
  C   C12       1.0  0.5902612902730411  0.26552655827042326  0.4712194097597616  1.0000
  C   C13       1.0  0.7186994406512073  0.9922197386262535  0.34428541234365184  1.0000
  C   C14       1.0  0.7552817670900892  0.9801751364590104  0.38986383051461354  1.0000
  C   C15       1.0  0.7445900107107094  0.024240903957291903  0.42840335353265135  1.0000
  C   C16       1.0  0.49955243664408033  0.17413379851031863  0.2780532889162899  1.0000
  C   C17       1.0  0.49349351016289233  0.1381228241629344  0.2310855757666132  1.0000
  C   C18       1.0  0.5361456053450979  0.09720823931871789  0.23916535607284564  1.0000
  C   C19       1.0  0.324648866334563  0.2693554618010552  0.9991138248708321  1.0000
  C   C20       1.0  0.36308672074677867  0.22479307841729929  0.008663263356396599  1.0000
  C   C21       1.0  0.4075320739830133  0.2360420059116564  0.9705176030408535  1.0000
  C   C22       1.0  0.28058898341181054  0.5110868703311977  0.8443913405973972  1.0000
  C   C23       1.0  0.24321485800950882  0.5221366984408675  0.889477427806028  1.0000
  C   C24       1.0  0.2526742227670269  0.4768311892801762  0.927018845331574  1.0000
  C   C25       1.0  0.49882664130691273  0.328495935527684  0.777953452725633  1.0000
  C   C26       1.0  0.5052910204386903  0.36490985767761697  0.7312672718311004  1.0000
  C   C27       1.0  0.4630874114464448  0.40620209180244155  0.7395858840958595  1.0000
  C   C28       1.0  0.8417473563092984  0.7186323954376023  0.4912596423909859  1.0000
  C   C29       1.0  0.884981800331822  0.7586129292619218  0.48167512958451647  1.0000
  C   C30       1.0  0.9224529839970615  0.7500382446402796  0.5272071903011691  1.0000
  C   C31       1.0  0.7752811190924974  0.5009992686009923  0.6732066933794838  1.0000
  C   C32       1.0  0.7271514573236149  0.49533135019824925  0.6385188798229817  1.0000
  C   C33       1.0  0.7355646421021047  0.5362596989581404  0.5959649101518847  1.0000
  C   C34       1.0  0.0125072782117641  0.6586659631229992  0.7210542616335829  1.0000
  C   C35       1.0  0.024641971259690403  0.6135432355622469  0.7581971929552294  1.0000
  C   C36       1.0  0.9819587050465942  0.5736277128128718  0.7463831773893757  1.0000
  C   C37       1.0  0.1500074024667271  0.6777125513400576  0.909070284113362  1.0000
  C   C38       1.0  0.10653581335277103  0.7029116168893523  0.9366538907080223  1.0000
  C   C39       1.0  0.5974129432456863  0.34905168078640975  0.5759876396720073  1.0000
  C   C40       1.0  0.6408903090214154  0.3219766671154574  0.5502798950712204  1.0000
  C   C41       1.0  0.4004111091765239  0.15296563248604397  0.07567086836696288  1.0000
  C   C42       1.0  0.35671393856786443  0.17915574784211696  0.049259327338603484  1.0000
  C   C43       1.0  0.8480716365346268  0.8246641956779824  0.4083983615008862  1.0000
  C   C44       1.0  0.8914139741001676  0.7996059447092136  0.4364244515276282  1.0000
  C   C45       1.0  0.3474441506370384  0.06976861821762978  0.1034236949752838  1.0000
  C   C46       1.0  0.3208131156188969  0.0437481416095977  0.14700855225790826  1.0000
  C   C47       1.0  0.6521281315781807  0.43110439402208567  0.6028118610841418  1.0000
  C   C48       1.0  0.6809725659216  0.45540162854986477  0.6459359993135932  1.0000
  C   C49       1.0  0.8218602218793267  0.907331125595107  0.3539446836380191  1.0000
  C   C50       1.0  0.795417153655265  0.9342465193724439  0.3970383308996686  1.0000
  C   C51       1.0  0.17772665826903733  0.5961952862689088  0.8538913167958596  1.0000
  C   C52       1.0  0.20312301125768076  0.5680343954499206  0.8969129840069882  1.0000
  C   C53       1.0  0.9035072673821106  0.8518297745071308  0.32692057514491774  1.0000
  C   C54       1.0  0.931781017024129  0.8949038346376385  0.30170795390482397  1.0000
  C   C55       1.0  0.5704884205767088  0.4033001140465301  0.6581958705975522  1.0000
  C   C56       1.0  0.5462437996950201  0.35932152128170003  0.6858899258732194  1.0000
  C   C57       1.0  0.0956924758862101  0.6507215444083839  0.8265038800696515  1.0000
  C   C58       1.0  0.06956146038119472  0.6073641053309231  0.7995541841222005  1.0000
  C   C59       1.0  0.42896589085637526  0.0992104614596201  0.15785020049771245  1.0000
  C   C60       1.0  0.4523143245897431  0.1434626959681609  0.185793975688  1.0000
  N   N1        1.0  0.6044848084217662  0.39669752380030593  0.6102734469174108  1.0000
  N   N2        1.0  0.14303297396444487  0.6435722355963663  0.8613343084156708  1.0000
  N   N3        1.0  0.8558030805729118  0.8593939380201123  0.36107223874449795  1.0000
  N   N4        1.0  0.39429611341914494  0.10532605050340041  0.11024100290059378  1.0000
  N   N5        1.0  0.0954115990412703  0.7934211678488126  0.061760319960541196  1.0000
  N   N6        1.0  0.1461581325296777  0.8121534992589545  0.04016934689902028  1.0000
  N   N7        1.0  0.2170899512737137  0.9343099408422261  0.10785192634035208  1.0000
  N   N8        1.0  0.19564266971805472  0.9530336835648328  0.15851542051890277  1.0000
  N   N9        1.0  0.05794255923755289  0.9031372737478877  0.21222982648592387  1.0000
  N   N10       1.0  0.03424467606416929  0.8539724269713742  0.19206849300903878  1.0000
  N   N11       1.0  0.6012629005317011  0.217534385849909  0.4421306224313638  1.0000
  N   N12       1.0  0.6519626007410082  0.1960567292925006  0.4611181522789848  1.0000
  N   N13       1.0  0.705307023912937  0.05991410845966531  0.4070809539429376  1.0000
  N   N14       1.0  0.6889166504142993  0.0399068222664027  0.3550022363494704  1.0000
  N   N15       1.0  0.5650848962647715  0.10814697406786421  0.28731377633449984  1.0000
  N   N16       1.0  0.5420428454816744  0.1557145354954628  0.311606422927916  1.0000
  N   N17       1.0  0.3962436064989916  0.28377034980177024  0.9409460562082612  1.0000
  N   N18       1.0  0.3449655738479294  0.3045645525442069  0.9589824139950662  1.0000
  N   N19       1.0  0.29204810455613034  0.4414111867146246  0.9056061872093009  1.0000
  N   N20       1.0  0.3097023247182023  0.46281338654556947  0.8544748582649858  1.0000
  N   N21       1.0  0.4340104472239119  0.39507529133923214  0.7875981672847414  1.0000
  N   N22       1.0  0.4565257930699218  0.3470100010362103  0.811567531748274  1.0000
  N   N23       1.0  0.9027282093902187  0.7086914922218313  0.5613893403670218  1.0000
  N   N24       1.0  0.8527802821101249  0.6888576891216545  0.5389044681780533  1.0000
  N   N25       1.0  0.7849935415464344  0.5638587848367179  0.6047638559428563  1.0000
  N   N26       1.0  0.80977033758532  0.5416315080509762  0.6525087334148693  1.0000
  N   N27       1.0  0.9469386790873315  0.593722445540422  0.7059519720400758  1.0000
  N   N28       1.0  0.9660366980218668  0.6463526902442922  0.6899518548572628  1.0000
