data_image0
_chemical_formula_structural       Gd4H28C32N4O32
_chemical_formula_sum              "Gd4 H28 C32 N4 O32"
_cell_length_a       7.491811383714491
_cell_length_b       9.873108710001882
_cell_length_c       14.760276064227007
_cell_angle_alpha    89.99993389976585
_cell_angle_beta     97.8324142913535
_cell_angle_gamma    89.99998430534932

_space_group_name_H-M_alt    "P 1"
_space_group_IT_number       1

loop_
  _space_group_symop_operation_xyz
  'x, y, z'

loop_
  _atom_site_type_symbol
  _atom_site_label
  _atom_site_symmetry_multiplicity
  _atom_site_fract_x
  _atom_site_fract_y
  _atom_site_fract_z
  _atom_site_occupancy
  Gd  Gd1       1.0  0.1450862580214221  0.9563347358889875  0.3572753813376224  1.0000
  Gd  Gd2       1.0  0.35491163228996203  0.45633230249468687  0.14272536641950498  1.0000
  Gd  Gd3       1.0  0.8549101091640736  0.043667469295378715  0.6427221159157738  1.0000
  Gd  Gd4       1.0  0.6450900691611282  0.5436638255708602  0.8572779335391587  1.0000
  H   H1        1.0  0.7878865481518531  0.057897272699008795  0.3694336574619967  1.0000
  H   H2        1.0  0.7121085134752858  0.5578940068864712  0.13056487326203128  1.0000
  H   H3        1.0  0.21211113882251453  0.9421059453350155  0.6305666444842615  1.0000
  H   H4        1.0  0.2878851590259615  0.44210414688948435  0.8694324306767527  1.0000
  H   H5        1.0  0.7557151889796999  0.9478551310222727  0.293106794365869  1.0000
  H   H6        1.0  0.7442823373123063  0.44785362199277046  0.20689161314930968  1.0000
  H   H7        1.0  0.24428385911417652  0.05214808701269652  0.7068922502209459  1.0000
  H   H8        1.0  0.2557140092083258  0.5521475703376312  0.7931079151308609  1.0000
  H   H9        1.0  0.9217745566438397  0.8647121997565324  0.17972249890781458  1.0000
  H   H10       1.0  0.5782243522558518  0.3647135669938635  0.3202774267680724  1.0000
  H   H11       1.0  0.0782244845625399  0.1352879797212196  0.8202772226890147  1.0000
  H   H12       1.0  0.4217746820612405  0.6352896510399405  0.6797229718363125  1.0000
  H   H13       1.0  0.03536859224220731  0.7287550868764614  0.2075690987992118  1.0000
  H   H14       1.0  0.4646267445111505  0.22875541145614167  0.292430963355585  1.0000
  H   H15       1.0  0.9646331367609378  0.2712461054524767  0.7924314931222509  1.0000
  H   H16       1.0  0.5353709355751307  0.7712467937250838  0.7075700155998702  1.0000
  H   H17       1.0  0.39204314956819536  0.7168254072968596  0.5206599954949098  1.0000
  H   H18       1.0  0.1079546353963394  0.21681940395463786  0.97933868217482  1.0000
  H   H19       1.0  0.607958613876889  0.2831757850349987  0.47933721138262086  1.0000
  H   H20       1.0  0.8920444333656903  0.7831736855599589  0.02065833138974677  1.0000
  H   H21       1.0  0.16904666313627106  0.38291655846657596  0.3547106659328989  1.0000
  H   H22       1.0  0.3309607225456758  0.8829142561317699  0.14528878699741907  1.0000
  H   H23       1.0  0.8309550727558631  0.6170826081585264  0.6452892489806032  1.0000
  H   H24       1.0  0.6690423675778732  0.11708389764147852  0.8547105475658369  1.0000
  H   H25       1.0  0.21010312078014687  0.3808095674188153  0.6493034579765647  1.0000
  H   H26       1.0  0.2898986025956845  0.8808069187226056  0.8506960535708785  1.0000
  H   H27       1.0  0.7898986219988801  0.61919466346793  0.35069577992609163  1.0000
  H   H28       1.0  0.7101017859546204  0.11918920934607512  0.14930376468572598  1.0000
  C   C1        1.0  0.33026737087480734  0.617107080758416  0.513592086444838  1.0000
  C   C2        1.0  0.16973452182483587  0.1171051041707187  0.9864062851290996  1.0000
  C   C3        1.0  0.6697357192484433  0.3828920858670416  0.48640724811800595  1.0000
  C   C4        1.0  0.8302699363063015  0.8828940624562734  0.013591115065508997  1.0000
  C   C5        1.0  0.2805136969969269  0.561988756232161  0.426705506673855  1.0000
  C   C6        1.0  0.2194884886164914  0.0619854571545275  0.0732938201178328  1.0000
  C   C7        1.0  0.7194894000138133  0.4380134489505209  0.5732931508789676  1.0000
  C   C8        1.0  0.7805105663675606  0.9380116837677478  0.9267045474626625  1.0000
  C   C9        1.0  0.2056236545161738  0.4322221434771264  0.420742175655441  1.0000
  C   C10       1.0  0.2943810073966517  0.9322209753713014  0.07925704393736767  1.0000
  C   C11       1.0  0.7943794356067714  0.5677780360005472  0.5792571589069837  1.0000
  C   C12       1.0  0.7056167071330606  0.06777616555177703  0.9207405499762088  1.0000
  C   C13       1.0  0.17625317344622723  0.3663046421723451  0.5011712882412027  1.0000
  C   C14       1.0  0.32375395474453234  0.8663027437539695  0.9988279447031514  1.0000
  C   C15       1.0  0.8237499304531967  0.6336965501587104  0.4988266923032468  1.0000
  C   C16       1.0  0.6762491560444772  0.1336943971688171  0.0011693588341543898  1.0000
  C   C17       1.0  0.22901698937448603  0.43047786763398943  0.5852081107014939  1.0000
  C   C18       1.0  0.2709860451581322  0.9304761249403416  0.914792134197299  1.0000
  C   C19       1.0  0.7709847465167458  0.5695243375477477  0.4147918042107719  1.0000
  C   C20       1.0  0.7290143571683457  0.06952202883393002  0.08520633004091137  1.0000
  C   C21       1.0  0.3096573454672508  0.6422877483850586  0.3436564717585426  1.0000
  C   C22       1.0  0.19034079208149993  0.14229038891423332  0.15633843782584478  1.0000
  C   C23       1.0  0.6903377019317601  0.357705341131947  0.6563382208052744  1.0000
  C   C24       1.0  0.8096610126933187  0.8577128291255537  0.8436547069981513  1.0000
  C   C25       1.0  0.0918503184478467  0.22833291159750507  0.4986901235786476  1.0000
  C   C26       1.0  0.4081503390428694  0.7283288165744114  0.0013170956409922004  1.0000
  C   C27       1.0  0.9081431956183864  0.771672332130507  0.5013227515593428  1.0000
  C   C28       1.0  0.5918527097503486  0.271669337195334  0.998686300974974  1.0000
  C   C29       1.0  0.5450179955153517  0.0317676568706133  0.4608660758758488  1.0000
  C   C30       1.0  0.9550012303689784  0.5317604485432953  0.03914437103698991  1.0000
  C   C31       1.0  0.4550132992545953  0.9682365740037185  0.5391440896198461  1.0000
  C   C32       1.0  0.04500309688548039  0.4682296024027012  0.9608658923282505  1.0000
  N   N1        1.0  0.30772199778482456  0.5529185198845852  0.5912500086650994  1.0000
  N   N2        1.0  0.19228128012088058  0.05291262142058881  0.9087485116696852  1.0000
  N   N3        1.0  0.692282446568342  0.44708469815009283  0.40874874554543783  1.0000
  N   N4        1.0  0.8077191222064927  0.9470824937970478  0.09124995256975409  1.0000
  O   O1        1.0  0.33421545460370794  0.7694401917699097  0.3529588251565556  1.0000
  O   O2        1.0  0.16578391395962913  0.2694286733749396  0.147040139936216  1.0000
  O   O3        1.0  0.6657795514601973  0.23056910337898984  0.6470399294534062  1.0000
  O   O4        1.0  0.8342164883692363  0.7305613775816299  0.8529583243052841  1.0000
  O   O5        1.0  0.30636274122201723  0.579583145678278  0.26884942350231  1.0000
  O   O6        1.0  0.19363804534171442  0.07957451500661253  0.23115385440495825  1.0000
  O   O7        1.0  0.6936376266604328  0.4204220980585591  0.7311524257769477  1.0000
  O   O8        1.0  0.8063650034529956  0.9204185745020727  0.7688495422130686  1.0000
  O   O9        1.0  0.08896007250633178  0.16037565566305295  0.4257521839693226  1.0000
  O   O10       1.0  0.4110393879395886  0.660376498400048  0.07424416160974798  1.0000
  O   O11       1.0  0.9110376489120711  0.8396204724083988  0.5742447329358811  1.0000
  O   O12       1.0  0.5889556112386175  0.3396236810783577  0.9257552700127007  1.0000
  O   O13       1.0  0.030205573160628794  0.19020707300423115  0.5703113646409221  1.0000
  O   O14       1.0  0.46980437425490607  0.6902002002598595  0.9296861735317634  1.0000
  O   O15       1.0  0.9697962109475284  0.809801209294861  0.42968381120737575  1.0000
  O   O16       1.0  0.5302081266034478  0.3097949149534642  0.0703158686659791  1.0000
  O   O17       1.0  0.44780862112401104  0.05139275664557631  0.3849773616945456  1.0000
  O   O18       1.0  0.05218144465469271  0.5513905627556498  0.1150211037741897  1.0000
  O   O19       1.0  0.5521783697680148  0.9486145128060532  0.6150140428796077  1.0000
  O   O20       1.0  0.9478175276684127  0.44860759101183606  0.8849853879113211  1.0000
  O   O21       1.0  0.7110897804597017  0.06047590755297702  0.479040152545238  1.0000
  O   O22       1.0  0.7888958413594837  0.5604707897944723  0.0209583764883803  1.0000
  O   O23       1.0  0.28888907127036134  0.939526297634238  0.5209560881524951  1.0000
  O   O24       1.0  0.21109907516105866  0.439519261154807  0.97904917924361  1.0000
  O   O25       1.0  0.8297717403920687  0.02689492505169971  0.3115797699557419  1.0000
  O   O26       1.0  0.6702260342063582  0.5268956192046376  0.1884189792471886  1.0000
  O   O27       1.0  0.17022731459078952  0.9731062672794267  0.6884185976231052  1.0000
  O   O28       1.0  0.32977165276800957  0.4731075988293869  0.8115813226990625  1.0000
  O   O29       1.0  0.9991172958217549  0.8154318228430102  0.23153300671582136  1.0000
  O   O30       1.0  0.5008762252228111  0.315430256562472  0.268469280364215  1.0000
  O   O31       1.0  0.0008790369218019029  0.18457038233843556  0.7684678755815071  1.0000
  O   O32       1.0  0.4991187395137544  0.6845689100608044  0.7315335363025709  1.0000
