data_image0
_chemical_formula_structural       Mo4H44C36N12O12
_chemical_formula_sum              "Mo4 H44 C36 N12 O12"
_cell_length_a       10.343923009570924
_cell_length_b       10.343917165919455
_cell_length_c       10.482992439000315
_cell_angle_alpha    90.0000235553921
_cell_angle_beta     89.99997845563847
_cell_angle_gamma    106.74487825765023

_space_group_name_H-M_alt    "P 1"
_space_group_IT_number       1

loop_
  _space_group_symop_operation_xyz
  'x, y, z'

loop_
  _atom_site_type_symbol
  _atom_site_label
  _atom_site_symmetry_multiplicity
  _atom_site_fract_x
  _atom_site_fract_y
  _atom_site_fract_z
  _atom_site_occupancy
  Mo  Mo1       1.0  0.10157404706079377  0.6015748198983103  0.640494698823673  1.0000
  Mo  Mo2       1.0  0.3984260463468914  0.8984255629359978  0.6404947039771969  1.0000
  Mo  Mo3       1.0  0.8984257087938163  0.39842631740472  0.3595050858754902  1.0000
  Mo  Mo4       1.0  0.6015743865995661  0.10157456577546502  0.3595050807216325  1.0000
  H   H1        1.0  0.9467146665095855  0.7096656898807367  0.3609703706928897  1.0000
  H   H2        1.0  0.5532829986292215  0.7903353795846328  0.3609695064028103  1.0000
  H   H3        1.0  0.7903350926941358  0.5532823890887926  0.6390302842617147  1.0000
  H   H4        1.0  0.7096648147599326  0.9467167569174181  0.6390303793283891  1.0000
  H   H5        1.0  0.05328286534782481  0.2903344359269866  0.6390303679325697  1.0000
  H   H6        1.0  0.44671743431724314  0.20966474912683  0.639030278296012  1.0000
  H   H7        1.0  0.20966534025232872  0.44671773962267025  0.3609695004371146  1.0000
  H   H8        1.0  0.29033503831095686  0.053281352674964894  0.36096940537013467  1.0000
  H   H9        1.0  0.09224369098635073  0.763266484020221  0.10445409118165831  1.0000
  H   H10       1.0  0.4077565545198781  0.7367337200004299  0.104454027062566  1.0000
  H   H11       1.0  0.7367342503758748  0.4077567367993353  0.8955467140709032  1.0000
  H   H12       1.0  0.7632663700105482  0.09224331660324481  0.8955466449347043  1.0000
  H   H13       1.0  0.9077567419601138  0.2367336446912347  0.8955456935171638  1.0000
  H   H14       1.0  0.5922438784264515  0.26326640871118906  0.8955467115623534  1.0000
  H   H15       1.0  0.26326618257058243  0.5922433919121204  0.10445307062791902  1.0000
  H   H16       1.0  0.2367330959061392  0.907756811140402  0.1044540936903928  1.0000
  H   H17       1.0  0.13229378696075858  0.8677055218057602  0.8873603264372888  1.0000
  H   H18       1.0  0.36770594646241517  0.6322939338189856  0.8873602347247314  1.0000
  H   H19       1.0  0.6322944864840495  0.3677061948924703  0.1126395499740909  1.0000
  H   H20       1.0  0.8677056789560638  0.13229460593773007  0.11263945826171812  1.0000
  H   H21       1.0  0.85886128820853  0.9343611876952098  0.2597531509441566  1.0000
  H   H22       1.0  0.6411380497714703  0.5656388403824195  0.2597531164400095  1.0000
  H   H23       1.0  0.5656388357534893  0.6411374347794023  0.7402466718486949  1.0000
  H   H24       1.0  0.9343610429810026  0.8588617449907829  0.740246647526341  1.0000
  H   H25       1.0  0.1411381777082994  0.0656389400482809  0.7402466337548503  1.0000
  H   H26       1.0  0.3588623831749872  0.43436128832903625  0.7402466682588198  1.0000
  H   H27       1.0  0.4343615971929681  0.3588626939320605  0.2597531128501345  1.0000
  H   H28       1.0  0.06563842293581962  0.14113838275271465  0.259753137172666  1.0000
  H   H29       1.0  0.8713828162748387  0.779603269726806  0.19368038035326407  1.0000
  H   H30       1.0  0.6286177974202191  0.7203977468377971  0.19368136741389463  1.0000
  H   H31       1.0  0.7203979195257091  0.6286169413825036  0.8063184233441946  1.0000
  H   H32       1.0  0.7796019404612906  0.8713822604280564  0.8063184617217304  1.0000
  H   H33       1.0  0.128617616671626  0.2203968589846568  0.8063194043455653  1.0000
  H   H34       1.0  0.37138263552623835  0.27960238187366565  0.8063184172849277  1.0000
  H   H35       1.0  0.2796034804503904  0.37138318829692446  0.19368136135445008  1.0000
  H   H36       1.0  0.22039752545553176  0.1286178673154339  0.1936813229772767  1.0000
  H   H37       1.0  0.8963864527335731  0.7560488655382046  0.9546586933107548  1.0000
  H   H38       1.0  0.6036133651628361  0.7439503857558875  0.9546577914112433  1.0000
  H   H39       1.0  0.7439512794069076  0.6036135392468582  0.045341999321721  1.0000
  H   H40       1.0  0.7560490864408254  0.896386418274837  0.0453411027153052  1.0000
  H   H41       1.0  0.10361272324546894  0.24395025264575312  0.045341091388102904  1.0000
  H   H42       1.0  0.3963861007539862  0.25604974198761  0.0453419932877637  1.0000
  H   H43       1.0  0.2560488636016345  0.3963855799052212  0.9546587393030492  1.0000
  H   H44       1.0  0.24395037947600431  0.10361370946866093  0.9546586819837017  1.0000
  C   C1        1.0  0.03703881988266032  0.78665357204752  0.3914628031593637  1.0000
  C   C2        1.0  0.4629603771568185  0.7133467267461809  0.39146270897476404  1.0000
  C   C3        1.0  0.7133466968356645  0.4629594864807416  0.6085370787848916  1.0000
  C   C4        1.0  0.7866527480207212  0.03703946065301272  0.6085369784788455  1.0000
  C   C5        1.0  0.962959679004392  0.2133465547281689  0.6085379354659182  1.0000
  C   C6        1.0  0.5370400557895111  0.2866534019654381  0.6085380296501555  1.0000
  C   C7        1.0  0.2866524791436404  0.5370396317028963  0.39146079806177886  1.0000
  C   C8        1.0  0.21334613802066835  0.9629586479712486  0.39146185229376584  1.0000
  C   C9        1.0  0.06061505734671612  0.939385642082307  0.1973360085383149  1.0000
  C   C10       1.0  0.4393854517425879  0.560615602481633  0.19733586097572703  1.0000
  C   C11       1.0  0.5606152711415291  0.4393855357895262  0.8026648776493488  1.0000
  C   C12       1.0  0.9393853755996135  0.0606144866293121  0.8026647300866047  1.0000
  C   C13       1.0  0.12615715174461437  0.8738426690192824  0.0933551772996566  1.0000
  C   C14       1.0  0.3738428069730801  0.626156521739432  0.0933550808053312  1.0000
  C   C15       1.0  0.6261576259733772  0.37384360697203073  0.9066447038934912  1.0000
  C   C16       1.0  0.8738432812018432  0.1261574596921804  0.9066446073991727  1.0000
  C   C17       1.0  0.08561120171745536  0.9143879758932486  0.9620470339978766  1.0000
  C   C18       1.0  0.4143885105137812  0.5856115046456623  0.9620469059118548  1.0000
  C   C19       1.0  0.5856116324947607  0.414387614506424  0.037953832712908295  1.0000
  C   C20       1.0  0.9143879742614446  0.0856111422908725  0.0379537046270713  1.0000
  C   C21       1.0  0.9067651010114945  0.8901637676858768  0.1843319205718075  1.0000
  C   C22       1.0  0.5932332913390825  0.609836234264769  0.1843328758106821  1.0000
  C   C23       1.0  0.6098359534115262  0.5932333205398237  0.8156669124138389  1.0000
  C   C24       1.0  0.8901619698636125  0.9067658824532925  0.8156669240373232  1.0000
  C   C25       1.0  0.09323310793790542  0.10983534953011538  0.8156678641272279  1.0000
  C   C26       1.0  0.4067658846399524  0.3901628839191886  0.8156669088881685  1.0000
  C   C27       1.0  0.39016418959715093  0.40676579861209927  0.1843328722848412  1.0000
  C   C28       1.0  0.1098374960532098  0.0932342452902049  0.1843328606616836  1.0000
  C   C29       1.0  0.9309546550974659  0.8668245325039408  0.9467678327917355  1.0000
  C   C30       1.0  0.5690444879458099  0.6331757247497762  0.9467688065321909  1.0000
  C   C31       1.0  0.6331755585715938  0.5690441845383418  0.0532319356035842  1.0000
  C   C32       1.0  0.8668248050372825  0.9309557756154518  0.05323196575793081  1.0000
  C   C33       1.0  0.0690448108193564  0.1331755952395497  0.053231951907271494  1.0000
  C   C34       1.0  0.4309559450005126  0.36682440396184296  0.053231932092728605  1.0000
  C   C35       1.0  0.3668248743748705  0.43095594417312094  0.9467678490952379  1.0000
  C   C36       1.0  0.133174660879547  0.06904435212803861  0.9467678189410761  1.0000
  N   N1        1.0  0.10855468737207732  0.7805756963983654  0.4944286169562631  1.0000
  N   N2        1.0  0.3914435134217841  0.7194246357749492  0.49442855186499207  1.0000
  N   N3        1.0  0.7194245301348162  0.391443682815968  0.5055712347587757  1.0000
  N   N4        1.0  0.7805762009051166  0.10855624049754908  0.5055702118918859  1.0000
  N   N5        1.0  0.8914435215773224  0.2194234208176269  0.5055711677427724  1.0000
  N   N6        1.0  0.6085569195246805  0.28057549293651374  0.5055712328338302  1.0000
  N   N7        1.0  0.28057590281151334  0.6085564458956512  0.4944295038661437  1.0000
  N   N8        1.0  0.21942394210369548  0.8914428786542177  0.49442861888069706  1.0000
  N   N9        1.0  0.0997535029394997  0.900245004712744  0.3243254963110331  1.0000
  N   N10       1.0  0.4002454232120272  0.5997542621256075  0.3243253792446055  1.0000
  N   N11       1.0  0.5997547197966496  0.40024485702632256  0.6756744054540675  1.0000
  N   N12       1.0  0.9002456730395353  0.09975411347121368  0.6756742883878175  1.0000
  O   O1        1.0  0.9999997847426841  0.49999995048177237  0.5000002762570261  1.0000
  O   O2        1.0  0.500000452098277  1.5870588750026132e-07  0.4999995171225606  1.0000
  O   O3        1.0  0.2500000386627478  0.7500002008706232  0.6971731740271636  1.0000
  O   O4        1.0  0.750001361313359  0.24999992880880473  0.3028266106714881  1.0000
  O   O5        1.0  0.13693578651407987  0.4710360117324583  0.7233097592772282  1.0000
  O   O6        1.0  0.36306381214533456  0.02896421002702711  0.7233096272428909  1.0000
  O   O7        1.0  0.0289646790576725  0.363066240277476  0.2766901469011174  1.0000
  O   O8        1.0  0.4710359161409201  0.1369368611762312  0.2766900186157102  1.0000
  O   O9        1.0  0.8630646464323848  0.5289641169790045  0.2766900254216011  1.0000
  O   O10       1.0  0.6369340096502754  0.9710369253397529  0.2766882496044403  1.0000
  O   O11       1.0  0.971036333764225  0.6369359075532159  0.7233105917241076  1.0000
  O   O12       1.0  0.5289644195891299  0.8630662952460283  0.7233107200098418  1.0000
