data_image0
_chemical_formula_structural       Ho2H28C30N4O16
_chemical_formula_sum              "Ho2 H28 C30 N4 O16"
_cell_length_a       8.582824823932532
_cell_length_b       10.219400811499854
_cell_length_c       10.847557028477592
_cell_angle_alpha    65.88686076897841
_cell_angle_beta     68.75271030178278
_cell_angle_gamma    78.43450242397817

_space_group_name_H-M_alt    "P 1"
_space_group_IT_number       1

loop_
  _space_group_symop_operation_xyz
  'x, y, z'

loop_
  _atom_site_type_symbol
  _atom_site_label
  _atom_site_symmetry_multiplicity
  _atom_site_fract_x
  _atom_site_fract_y
  _atom_site_fract_z
  _atom_site_occupancy
  Ho  Ho1       1.0  0.6587467850222809  0.4389231981721622  0.14631475979195593  1.0000
  Ho  Ho2       1.0  0.3412487563186133  0.5610770114718804  0.8536842268169735  1.0000
  H   H1        1.0  0.9222373168431091  0.5874045237517009  0.8751769995556771  1.0000
  H   H2        1.0  0.07775952816146511  0.41259458905169305  0.12482572255344594  1.0000
  H   H3        1.0  0.7599170640038364  0.5725507472780293  0.8423764150597038  1.0000
  H   H4        1.0  0.2400798871585721  0.4274473078761714  0.15762483307947417  1.0000
  H   H5        1.0  0.22277579896908145  0.6402959144661367  0.47607158047711806  1.0000
  H   H6        1.0  0.7772280972582878  0.35970862853159946  0.5239271058645869  1.0000
  H   H7        1.0  0.0755054008892699  0.3206687410851785  0.38473648623646284  1.0000
  H   H8        1.0  0.9244952782709389  0.6793304836812338  0.6152558958425871  1.0000
  H   H9        1.0  0.7198488452347789  0.8035933523471924  0.9794662599632175  1.0000
  H   H10       1.0  0.2801507650345769  0.1964025583122933  0.02053689451053489  1.0000
  H   H11       1.0  0.2136696843542155  0.9768247012424423  0.007473682357748196  1.0000
  H   H12       1.0  0.7863260977907842  0.023172261674154995  0.9925292293400787  1.0000
  H   H13       1.0  0.1643364729199988  0.13567890991528486  0.2509573942280312  1.0000
  H   H14       1.0  0.8356689021683438  0.8643235441747239  0.7490361340895008  1.0000
  H   H15       1.0  0.6928584570532619  0.05591502876612248  0.5850494621849337  1.0000
  H   H16       1.0  0.3071418233654201  0.9440884511903461  0.41494603344096964  1.0000
  H   H17       1.0  0.6887153826296668  0.8205172838665218  0.442872329695959  1.0000
  H   H18       1.0  0.3112851472230531  0.17948295756026056  0.5571261635745373  1.0000
  H   H19       1.0  0.6296567502152898  0.9320924088434308  0.28883790259980907  1.0000
  H   H20       1.0  0.37034261062002843  0.067906740345741  0.7111622542293431  1.0000
  H   H21       1.0  0.9162746243220355  0.9752586234358135  0.1725058950921151  1.0000
  H   H22       1.0  0.08372322916386571  0.024743746090159398  0.8274925467324294  1.0000
  H   H23       1.0  0.9797416127793994  0.8251480982212485  0.3068117484815574  1.0000
  H   H24       1.0  0.020258899813455904  0.17485212681000203  0.6931885996775549  1.0000
  H   H25       1.0  0.5689596077908304  0.6648652547283473  0.3572974717225535  1.0000
  H   H26       1.0  0.4310399222104877  0.3351317381736152  0.6427043743882308  1.0000
  H   H27       1.0  0.04346946095896703  0.7478393984973548  0.09507990058444468  1.0000
  H   H28       1.0  0.9565310343740236  0.25216081013837055  0.9049223024632695  1.0000
  C   C1        1.0  0.34101303369955366  0.4576763951819487  0.3347658506953195  1.0000
  C   C2        1.0  0.6589845444625129  0.5423291882804192  0.6652323758175314  1.0000
  C   C3        1.0  0.16534747106985753  0.4795753649278183  0.4207057067266788  1.0000
  C   C4        1.0  0.834646422244063  0.5204290899111682  0.5792967486247917  1.0000
  C   C5        1.0  0.1243745452353195  0.5800051482227103  0.48663617297540196  1.0000
  C   C6        1.0  0.8756254969779036  0.4200004224388464  0.5133650529232981  1.0000
  C   C7        1.0  0.04066196758391531  0.39983301444748776  0.4346721960688384  1.0000
  C   C8        1.0  0.9593346711362826  0.6001693778744227  0.5653228911741764  1.0000
  C   C9        1.0  0.4261109938379377  0.7468498169477797  0.9811526071848532  1.0000
  C   C10       1.0  0.573891974176135  0.25315038708490073  0.01885166780440532  1.0000
  C   C11       1.0  0.4627010918352709  0.8769867116055108  0.9929006074698066  1.0000
  C   C12       1.0  0.5373008219491666  0.12301135073812469  0.007102929663851377  1.0000
  C   C13       1.0  0.6241247225898477  0.8899624283134671  0.9887244137675708  1.0000
  C   C14       1.0  0.3758748876795083  0.11003348234601161  0.011278740706174491  1.0000
  C   C15       1.0  0.3387828027529238  0.987454041045183  0.004387143681455505  1.0000
  C   C16       1.0  0.661216486444289  0.0125461985842392  0.9956107773404239  1.0000
  C   C17       1.0  0.8339695427231744  0.22416874394745176  0.3128010374046184  1.0000
  C   C18       1.0  0.16603096986968072  0.7758314810837987  0.6871993107544866  1.0000
  C   C19       1.0  0.9200120127938619  0.10720703066044023  0.4083535093945087  1.0000
  C   C20       1.0  0.07999010207765882  0.8927900642094145  0.5916383518818764  1.0000
  C   C21       1.0  0.09310796432119872  0.07572254064274378  0.3600603021877191  1.0000
  C   C22       1.0  0.9068932097910435  0.9242852454877309  0.6399333145678482  1.0000
  C   C23       1.0  0.8272678574058785  0.0305323130100703  0.5490031166307644  1.0000
  C   C24       1.0  0.17273466351970512  0.9694744172685715  0.45098959840348135  1.0000
  C   C25       1.0  0.8041955862103835  0.68112418781525  0.20966565465355563  1.0000
  C   C26       1.0  0.1958027031354277  0.3188728032893593  0.790335619208605  1.0000
  C   C27       1.0  0.7106619022182415  0.8387109116307412  0.33111664066640867  1.0000
  C   C28       1.0  0.2893360229057648  0.16129036745498126  0.6688840369654018  1.0000
  C   C29       1.0  0.8973322432711087  0.8616227773048872  0.2400112878252189  1.0000
  C   C30       1.0  0.10266693113833722  0.13837851177596147  0.7599890346109035  1.0000
  N   N1        1.0  0.6798547529151762  0.712125328739198  0.3150288459855731  1.0000
  N   N2        1.0  0.3201459115838147  0.2878727236093185  0.6849750463437729  1.0000
  N   N3        1.0  0.9283138970563131  0.7725145627506366  0.15561318272355598  1.0000
  N   N4        1.0  0.0716868649705873  0.2274824237509278  0.844390163080142  1.0000
  O   O1        1.0  0.3721130199191123  0.3768791769800828  0.2620602525328266  1.0000
  O   O2        1.0  0.6278901431507578  0.6231188953586795  0.7379429294051506  1.0000
  O   O3        1.0  0.8273932348133997  0.5264680229114447  0.9087908046294473  1.0000
  O   O4        1.0  0.17260630381785091  0.4735289781882911  0.0912101140370325  1.0000
  O   O5        1.0  0.45852430763616076  0.5195840241789255  0.33038671072506537  1.0000
  O   O6        1.0  0.5414804516810888  0.4804097537783108  0.6696185671361832  1.0000
  O   O7        1.0  0.5095649685838951  0.6296172415227729  0.025321446500299768  1.0000
  O   O8        1.0  0.49044295945356003  0.3703841257216992  0.9746754621217448  1.0000
  O   O9        1.0  0.3154129895005654  0.7586779097656304  0.9235402521260881  1.0000
  O   O10       1.0  0.6845904316332819  0.24131693224121153  0.07646500001218477  1.0000
  O   O11       1.0  0.6765284460689855  0.25046455066645007  0.3607061102598337  1.0000
  O   O12       1.0  0.3234709233962647  0.7495346067204878  0.6392931191250142  1.0000
  O   O13       1.0  0.9180744575477817  0.29741590709627996  0.18475509525704578  1.0000
  O   O14       1.0  0.0819300695953018  0.7025811257861818  0.8152453300710006  1.0000
  O   O15       1.0  0.80683970061029  0.5844293984249517  0.16474267336362675  1.0000
  O   O16       1.0  0.19315607290478448  0.4155675562938796  0.8352611657785048  1.0000
