data_image0
_chemical_formula_structural       MgH26C30N2O10F2
_chemical_formula_sum              "Mg1 H26 C30 N2 O10 F2"
_cell_length_a       5.192147768940526
_cell_length_b       6.231610898926283
_cell_length_c       21.618307836475925
_cell_angle_alpha    85.10013401652381
_cell_angle_beta     93.53043797380317
_cell_angle_gamma    97.98917836915093

_space_group_name_H-M_alt    "P 1"
_space_group_IT_number       1

loop_
  _space_group_symop_operation_xyz
  'x, y, z'

loop_
  _atom_site_type_symbol
  _atom_site_label
  _atom_site_symmetry_multiplicity
  _atom_site_fract_x
  _atom_site_fract_y
  _atom_site_fract_z
  _atom_site_occupancy
  Mg  Mg1       1.0  0.4536975905810506  0.8446568638014185  0.6629647831173385  1.0000
  H   H1        1.0  0.08816371268083154  0.7243756566142353  0.5544064420968482  1.0000
  H   H2        1.0  0.6814146246457611  0.43273647267282195  0.6960404636035875  1.0000
  H   H3        1.0  0.7396748163841167  0.8099366885607752  0.5764402940377735  1.0000
  H   H4        1.0  0.8766061588882295  0.8538773059239873  0.7285620599803053  1.0000
  H   H5        1.0  0.7832917846989105  0.0715339022268466  0.7424636654708364  1.0000
  H   H6        1.0  0.801634493711411  0.3366389741458348  0.24903015495943484  1.0000
  H   H7        1.0  0.5150157570859761  0.3467174854180399  0.33706059785785664  1.0000
  H   H8        1.0  0.8479373671158328  0.008989795395699208  0.3601303720920086  1.0000
  H   H9        1.0  0.13306203847612616  0.9989840595228758  0.2711864527168828  1.0000
  H   H10       1.0  0.2994619029910552  0.7420141560411082  0.38926289847569245  1.0000
  H   H11       1.0  0.576853318761259  0.8071768856319962  0.4393819501063375  1.0000
  H   H12       1.0  0.06264294551819213  0.38657815959457065  0.39233917458978596  1.0000
  H   H13       1.0  0.0791838128838904  0.993572901962736  0.4595008990351772  1.0000
  H   H14       1.0  0.528743130991863  0.04377386622999781  0.533010423644555  1.0000
  H   H15       1.0  0.8937291181884818  0.17459686930626364  0.5747365380505585  1.0000
  H   H16       1.0  0.344915625810863  0.12969566226301774  0.835664429938724  1.0000
  H   H17       1.0  0.6444723956916931  0.526495145032662  0.1378047884225637  1.0000
  H   H18       1.0  0.9358639386749201  0.5284119483195298  0.04998339817756659  1.0000
  H   H19       1.0  0.6111991586054302  0.8690089633178745  0.020658724174616293  1.0000
  H   H20       1.0  0.32171041945534995  0.8662036159406129  0.10974285960154619  1.0000
  H   H21       1.0  0.1631699923301824  0.15148179480636512  0.9955009265700026  1.0000
  H   H22       1.0  0.8893246800342778  0.07234543345042252  0.9454202545099832  1.0000
  H   H23       1.0  0.3810499514194987  0.512262649856048  0.99030952349802  1.0000
  H   H24       1.0  0.3374236990026986  0.9001474697645834  0.9234164734914784  1.0000
  H   H25       1.0  0.8901110885035166  0.8351338625507694  0.8522852141307807  1.0000
  H   H26       1.0  0.5176283375898478  0.6739709934645647  0.8123319784992232  1.0000
  C   C1        1.0  0.9791537534338486  0.667797051016464  0.2563202664382089  1.0000
  C   C2        1.0  0.8090744334665414  0.4828520325890011  0.27368242158363637  1.0000
  C   C3        1.0  0.6494009688999468  0.490685691570441  0.32288112226804333  1.0000
  C   C4        1.0  0.660233261292241  0.6792939480109367  0.3544262774522835  1.0000
  C   C5        1.0  0.8346528882236155  0.8619750019921213  0.33548821950918034  1.0000
  C   C6        1.0  0.9955174353735146  0.8585484999426782  0.2861715460701148  1.0000
  C   C7        1.0  0.48517195034771277  0.689399507581186  0.4073350634488833  1.0000
  C   C8        1.0  0.20999613949857124  0.33473831844497687  0.4260158269280793  1.0000
  C   C9        1.0  0.2251890310538514  0.1357968647348002  0.45988901101245716  1.0000
  C   C10       1.0  0.45629604612842206  0.1593079937249868  0.49731860416770246  1.0000
  C   C11       1.0  0.5788930534907095  0.37365063545918525  0.48596551651659325  1.0000
  C   C12       1.0  0.8083039593507519  0.47747350177068165  0.5176812003201761  1.0000
  C   C13       1.0  0.9519980797498562  0.3511600911143092  0.5636066771777519  1.0000
  C   C14       1.0  0.1573829626978593  0.4570236318155451  0.596214712374497  1.0000
  C   C15       1.0  0.3394412771642195  0.34590832011444667  0.640504040147654  1.0000
  C   C16       1.0  0.4713331571740298  0.19580911953291755  0.1275417587648704  1.0000
  C   C17       1.0  0.6397830709631407  0.38356894211262477  0.1118447804355895  1.0000
  C   C18       1.0  0.8018583441136186  0.3825293144599157  0.0627233934121136  1.0000
  C   C19       1.0  0.7947034663507182  0.19797267168863192  0.0295848789021562  1.0000
  C   C20       1.0  0.6213904289657393  0.012465534414872102  0.046745109166948906  1.0000
  C   C21       1.0  0.4584195092292873  0.008893787517784801  0.0960408742794243  1.0000
  C   C22       1.0  0.9732735196956455  0.1942165477326371  0.9769930892250752  1.0000
  C   C23       1.0  0.22876810271884548  0.5567960451254734  0.9569093981919959  1.0000
  C   C24       1.0  0.1997578254581569  0.7527570462270035  0.9229606008297748  1.0000
  C   C25       1.0  0.9674076142250101  0.718509171500571  0.8861026308606411  1.0000
  C   C26       1.0  0.8583498763151101  0.5006037183392991  0.8978955015306694  1.0000
  C   C27       1.0  0.6321713586335633  0.38348882785324184  0.8675880808021643  1.0000
  C   C28       1.0  0.473008046412879  0.5000013264772463  0.8232688465318886  1.0000
  C   C29       1.0  0.26267702417152355  0.3871611767519169  0.7934905302193443  1.0000
  C   C30       1.0  0.08186903475665021  0.4955384313226645  0.7475019054668479  1.0000
  N   N1        1.0  0.4214860541303267  0.4789664038343133  0.4417297813700357  1.0000
  N   N2        1.0  0.024338061956115112  0.40465075795429334  0.9418391331828742  1.0000
  O   O1        1.0  0.8847307889035108  0.6821202625993051  0.5060820931101304  1.0000
  O   O2        1.0  0.2199992710364356  0.6750590532720153  0.5902470811215181  1.0000
  O   O3        1.0  0.323690820764675  0.14609519421853182  0.6505469786361927  1.0000
  O   O4        1.0  0.5162778617908259  0.48901871917203726  0.6661724217238073  1.0000
  O   O5        1.0  0.7307620195642739  0.9148966946054812  0.6065024485085215  1.0000
  O   O6        1.0  0.719359672022023  0.9163814577720047  0.7380604282059479  1.0000
  O   O7        1.0  0.5751337412313474  0.17743312187582214  0.8789551700315738  1.0000
  O   O8        1.0  0.199816239580656  0.17280481189643374  0.8032197779471985  1.0000
  O   O9        1.0  0.14492116022574922  0.6891500825617742  0.7252240966612502  1.0000
  O   O10       1.0  0.868911780634093  0.3734262657185497  0.7344388815733038  1.0000
  F   F1        1.0  0.1365675594593228  0.6612506096075563  0.20817063044152206  1.0000
  F   F2        1.0  0.31197882222068785  0.1959402057492241  0.17567417888687933  1.0000
