data_image0
_chemical_formula_structural       Cu4H32C36N16O4
_chemical_formula_sum              "Cu4 H32 C36 N16 O4"
_cell_length_a       7.5816156636547785
_cell_length_b       8.338299259696631
_cell_length_c       15.403223529490612
_cell_angle_alpha    89.99967070467174
_cell_angle_beta     89.99849459111907
_cell_angle_gamma    97.31116924246669

_space_group_name_H-M_alt    "P 1"
_space_group_IT_number       1

loop_
  _space_group_symop_operation_xyz
  'x, y, z'

loop_
  _atom_site_type_symbol
  _atom_site_label
  _atom_site_symmetry_multiplicity
  _atom_site_fract_x
  _atom_site_fract_y
  _atom_site_fract_z
  _atom_site_occupancy
  Cu  Cu1       1.0  0.9227731017558508  0.7987948054218138  0.0743823548899769  1.0000
  Cu  Cu2       1.0  0.07720459182180409  0.20123212149663058  0.5743789385726216  1.0000
  Cu  Cu3       1.0  0.5876870489776991  0.7023704334455446  0.966797222316586  1.0000
  Cu  Cu4       1.0  0.4122784887861996  0.2976730644377453  0.4667894019479633  1.0000
  H   H1        1.0  0.2961449267226611  0.9477940180293201  0.12493010345131948  1.0000
  H   H2        1.0  0.7038267710916911  0.05216195901134309  0.624929508787595  1.0000
  H   H3        1.0  0.5244754211013072  0.154498134136972  0.057174659328531184  1.0000
  H   H4        1.0  0.4755234739957216  0.8454565455324925  0.5571613724814454  1.0000
  H   H5        1.0  0.4510929440284598  0.27944328092783627  0.9150343169999999  1.0000
  H   H6        1.0  0.5489353839102761  0.720557574570961  0.4150129408307706  1.0000
  H   H7        1.0  0.16624861831855495  0.17593905774364768  0.8411167300607402  1.0000
  H   H8        1.0  0.8337924871412381  0.8240871899717206  0.3411049769832601  1.0000
  H   H9        1.0  0.8217199570886675  0.030331081998738792  0.8983040313484452  1.0000
  H   H10       1.0  0.17833793020294308  0.9697051250139596  0.3983547605613893  1.0000
  H   H11       1.0  0.8082214756665633  0.8162817833137339  0.7858653040692827  1.0000
  H   H12       1.0  0.19185196889905845  0.1836522904439377  0.28586005149715976  1.0000
  H   H13       1.0  0.02420914191970523  0.7721981377450646  0.8152934834847585  1.0000
  H   H14       1.0  0.9758393913637561  0.2277293965151657  0.31524943069139505  1.0000
  H   H15       1.0  0.9961162708906102  0.9623580268099727  0.7671976290039808  1.0000
  H   H16       1.0  0.003985330592968201  0.037543724987102706  0.2672037209142246  1.0000
  H   H17       1.0  0.19930691830111155  0.6090485639365679  0.9251878076017448  1.0000
  H   H18       1.0  0.8006743363156655  0.39094967901441885  0.4251818200344673  1.0000
  H   H19       1.0  0.9505846533087022  0.42603825136996687  0.9948583054231506  1.0000
  H   H20       1.0  0.049412407558065814  0.573929849966703  0.4948600757584529  1.0000
  H   H21       1.0  0.010055888925713  0.2944297049891205  0.13703309811921122  1.0000
  H   H22       1.0  0.9899344407871805  0.7055321313788313  0.637037030660295  1.0000
  H   H23       1.0  0.30706514593767037  0.36798696347415943  0.20808697044444094  1.0000
  H   H24       1.0  0.6929092798287684  0.6320111849751627  0.7080858809674098  1.0000
  H   H25       1.0  0.5751511082709084  0.6846437518120325  0.18574653636461133  1.0000
  H   H26       1.0  0.4247816833272962  0.31534989906171523  0.6857252825323882  1.0000
  H   H27       1.0  0.7989547751582149  0.4972732374962874  0.2175978325201058  1.0000
  H   H28       1.0  0.20101667604551207  0.502735635184891  0.7176093463158962  1.0000
  H   H29       1.0  0.6729975166062657  0.34219721515940893  0.1562149970917162  1.0000
  H   H30       1.0  0.32700150297147695  0.6578344364883433  0.6562522890276482  1.0000
  H   H31       1.0  0.5827476943302867  0.4189058497568822  0.2533230453198314  1.0000
  H   H32       1.0  0.4172287205950126  0.5810577104506081  0.7533457985806961  1.0000
  C   C1        1.0  0.2747602677827388  0.0010125894018244998  0.0617801036480117  1.0000
  C   C2        1.0  0.7252285176556154  0.998956517071946  0.5617773745931628  1.0000
  C   C3        1.0  0.39877043651274846  0.1176235025943058  0.0244278388353223  1.0000
  C   C4        1.0  0.6012379232423583  0.8823486424929075  0.5244212512606126  1.0000
  C   C5        1.0  0.35896827066584786  0.18426366582620088  0.9448645387800028  1.0000
  C   C6        1.0  0.6410479763862398  0.8157282331038544  0.4448533457709729  1.0000
  C   C7        1.0  0.1996058091619375  0.12801572031673913  0.9039209816224201  1.0000
  C   C8        1.0  0.800424486724985  0.8719949894185602  0.4039140425271199  1.0000
  C   C9        1.0  0.08245332498113098  0.0075800713795289  0.9434915755141091  1.0000
  C   C10       1.0  0.9175600789041096  0.9924287742297506  0.4434931149053298  1.0000
  C   C11       1.0  0.9094877014600724  0.9341106256104654  0.9028230911917065  1.0000
  C   C12       1.0  0.09053673320172347  0.06590493429429498  0.4028351159115289  1.0000
  C   C13       1.0  0.9374281426736031  0.8680367266936813  0.8118953013586392  1.0000
  C   C14       1.0  0.06263941133471458  0.1319029644753087  0.311886040994068  1.0000
  C   C15       1.0  0.5319981535681177  0.09778591570005088  0.3152018640852745  1.0000
  C   C16       1.0  0.467995202841628  0.9022189625130395  0.8151975738558761  1.0000
  C   C17       1.0  0.2590260466947285  0.5823322148387716  0.3449056857764603  1.0000
  C   C18       1.0  0.7409868362958035  0.4177012076914366  0.8449124832937969  1.0000
  C   C19       1.0  0.21532623649981278  0.5532535521969281  0.9882148644943313  1.0000
  C   C20       1.0  0.7846525025898499  0.4467509164685452  0.4882134414801982  1.0000
  C   C21       1.0  0.0789575596363647  0.4505588900280841  0.0269294672107847  1.0000
  C   C22       1.0  0.9210343534515955  0.549419249171258  0.5269309116803527  1.0000
  C   C23       1.0  0.1119202846094112  0.38038451726293937  0.1065510174461721  1.0000
  C   C24       1.0  0.8880731246565715  0.6195971618247924  0.6065487567119376  1.0000
  C   C25       1.0  0.27731197969082183  0.4197608010876337  0.14579686736196606  1.0000
  C   C26       1.0  0.7226655660090983  0.5802262739358426  0.6457949184997744  1.0000
  C   C27       1.0  0.4077142472573526  0.5263880344898696  0.1045973314310373  1.0000
  C   C28       1.0  0.5922547965035321  0.4736263047656806  0.6045922223556772  1.0000
  C   C29       1.0  0.5904864863794257  0.5811137691941324  0.1422031274604194  1.0000
  C   C30       1.0  0.40947652432924286  0.4189096258342744  0.6421947097261622  1.0000
  C   C31       1.0  0.6647411261470138  0.4507381092314021  0.19561960802963796  1.0000
  C   C32       1.0  0.33523601658966834  0.5492747519991494  0.6956357318009836  1.0000
  C   C33       1.0  0.0870460840610434  0.7081940515483609  0.2475776045902194  1.0000
  C   C34       1.0  0.9129411476610085  0.29180708843319547  0.747582609203441  1.0000
  C   C35       1.0  0.662053391590895  0.011237688344941401  0.19076163495996212  1.0000
  C   C36       1.0  0.3379912117994266  0.988803101020487  0.6907561322690725  1.0000
  N   N1        1.0  0.11980771682979713  0.9486546806168407  0.022338425498645603  1.0000
  N   N2        1.0  0.8801922268671017  0.0513320013912804  0.5223414074659659  1.0000
  N   N3        1.0  0.3757368996670891  0.5888990810460438  0.025766531207324295  1.0000
  N   N4        1.0  0.6242319227968736  0.4111117062295336  0.5257644652344097  1.0000
  N   N5        1.0  0.7657859506456858  0.0060827278800629995  0.13384237091198511  1.0000
  N   N6        1.0  0.23427230425910037  0.9939868045569187  0.6338219552562734  1.0000
  N   N7        1.0  0.5362690999149322  0.005206582655546299  0.2485549025923319  1.0000
  N   N8        1.0  0.4637469844751648  0.9948126944559592  0.7485471123198123  1.0000
  N   N9        1.0  0.025594687699666  0.7530860353571355  0.18305182129591197  1.0000
  N   N10       1.0  0.9743675553348508  0.24689075116135223  0.6830581327722598  1.0000
  N   N11       1.0  0.5138730675306036  0.1732867042817574  0.378594429617344  1.0000
  N   N12       1.0  0.48609908990064804  0.8267135011577552  0.8785849643941005  1.0000
  N   N13       1.0  0.3670765483408401  0.5060530502281182  0.3729135408183311  1.0000
  N   N14       1.0  0.6329271900173196  0.4939823283841917  0.872924720363649  1.0000
  N   N15       1.0  0.13670803858890673  0.6704351371905658  0.3237438724077606  1.0000
  N   N16       1.0  0.8633057190259662  0.3296058846904444  0.8237513375041914  1.0000
  O   O1        1.0  0.8326728844644928  0.8082349583985646  0.9577447667550486  1.0000
  O   O2        1.0  0.1672765994858025  0.1918413204337384  0.457732011947371  1.0000
  O   O3        1.0  0.7053255584691057  0.6345085295921606  0.072279273554507  1.0000
  O   O4        1.0  0.2946214062156898  0.36557160924767373  0.5722686162524511  1.0000
