data_image0
_chemical_formula_structural       Zn4H42C82N4O28
_chemical_formula_sum              "Zn4 H42 C82 N4 O28"
_cell_length_a       11.044187199743348
_cell_length_b       13.825653180458733
_cell_length_c       26.279279730703582
_cell_angle_alpha    89.81945516650968
_cell_angle_beta     90.07967401411221
_cell_angle_gamma    88.9495552352479

_space_group_name_H-M_alt    "P 1"
_space_group_IT_number       1

loop_
  _space_group_symop_operation_xyz
  'x, y, z'

loop_
  _atom_site_type_symbol
  _atom_site_label
  _atom_site_symmetry_multiplicity
  _atom_site_fract_x
  _atom_site_fract_y
  _atom_site_fract_z
  _atom_site_occupancy
  Zn  Zn1       1.0  0.5033675060735235  0.3994110457905721  0.503148416265745  1.0000
  Zn  Zn2       1.0  0.4988694123652381  0.6019422584271225  0.5036149527165747  1.0000
  Zn  Zn3       1.0  0.4910933336876795  0.5997153750007841  0.0832311301453785  1.0000
  Zn  Zn4       1.0  0.49363414753125306  0.3971447800540632  0.08332234149015962  1.0000
  H   H1        1.0  0.3634643968215698  0.24907365689147554  0.556460772461115  1.0000
  H   H2        1.0  0.2644483662943387  0.09214313471132841  0.5863291954713291  1.0000
  H   H3        1.0  0.6237369430605568  0.2488909143713443  0.4438268486369381  1.0000
  H   H4        1.0  0.6300935272639306  0.751378606185888  0.4448364012990212  1.0000
  H   H5        1.0  0.7067042746233981  0.9089378606414301  0.40526490688516514  1.0000
  H   H6        1.0  0.35683856954684495  0.75198737519883  0.5519015696224728  1.0000
  H   H7        1.0  0.6752662188869536  0.36746015577909924  0.19842725322392604  1.0000
  H   H8        1.0  0.814761659921203  0.25717822720485367  0.24458455986678734  1.0000
  H   H9        1.0  0.6920443941592538  0.3764312846925435  0.3867787523720097  1.0000
  H   H10       1.0  0.8265431774629518  0.2639631624147328  0.3396725823332574  1.0000
  H   H11       1.0  0.5096885949459846  0.6602731440370635  0.6661042190325619  1.0000
  H   H12       1.0  0.5090281671562026  0.7480904542919473  0.749172575179749  1.0000
  H   H13       1.0  0.5027656367471423  0.35211257453201483  0.6608171786141316  1.0000
  H   H14       1.0  0.4999351891931242  0.3383169233569774  0.9205498211196926  1.0000
  H   H15       1.0  0.5014817147100814  0.2506785070366888  0.8376464203166165  1.0000
  H   H16       1.0  0.507039883685266  0.6465269440675598  0.9260410796114161  1.0000
  H   H17       1.0  0.769262775987599  0.6423724087731414  0.5698654628420458  1.0000
  H   H18       1.0  0.8732027059071329  0.7568838209769168  0.6258894675345702  1.0000
  H   H19       1.0  0.21775912503535008  0.6297439321686725  0.5840749156895839  1.0000
  H   H20       1.0  0.0986261988211652  0.7476821944562105  0.6350490301311923  1.0000
  H   H21       1.0  0.3601209368034262  0.7533817556466431  0.028661529762708006  1.0000
  H   H22       1.0  0.26084492063048265  0.9125291136625433  0.998823115256215  1.0000
  H   H23       1.0  0.6321738836018794  0.7477008240479749  0.13670938129116192  1.0000
  H   H24       1.0  0.6229901315003303  0.2444768208131407  0.14108893688993623  1.0000
  H   H25       1.0  0.7197421519645815  0.08549368567213383  0.1720468733063001  1.0000
  H   H26       1.0  0.34381911480204513  0.25089130981533003  0.03642526220784251  1.0000
  H   H27       1.0  0.7769436897132637  0.3526167122075917  0.0117616171416444  1.0000
  H   H28       1.0  0.894158164862013  0.2442330718081038  0.9556190235410469  1.0000
  H   H29       1.0  0.2242416128642901  0.37924651405930376  0.0025043978830013003  1.0000
  H   H30       1.0  0.11888700015677504  0.25958330732243695  0.949099144931111  1.0000
  H   H31       1.0  0.22592660320587044  0.84161823811138  0.5791518028837501  1.0000
  H   H32       1.0  0.6984919257277937  0.1613973125599344  0.3916348202064982  1.0000
  H   H33       1.0  0.5099599299702007  0.751405407504521  0.8826559762001481  1.0000
  H   H34       1.0  0.5056495271106698  0.24730694897977656  0.7041737542563384  1.0000
  H   H35       1.0  0.2175114732902941  0.1635594190429259  0.0067101209438860015  1.0000
  H   H36       1.0  0.7616880765108576  0.8345473105657817  0.16415828474205804  1.0000
  H   H37       1.0  0.4244995370108454  0.644525102143767  0.3804422069335019  1.0000
  H   H38       1.0  0.4192885704628039  0.6449605264053915  0.2066588539270811  1.0000
  H   H39       1.0  0.21364292644300056  0.3548163060153443  0.47838002128961693  1.0000
  H   H40       1.0  0.8003930189168429  0.3457607362372741  0.48524032379704357  1.0000
  H   H41       1.0  0.19148620244163078  0.6575295717152869  0.1016077185891504  1.0000
  H   H42       1.0  0.7775444493707866  0.6373770299216376  0.10858653469853864  1.0000
  C   C1        1.0  0.5052674376766007  0.5078611430299702  0.6025153522178358  1.0000
  C   C2        1.0  0.2626286218791448  0.5002795703516584  0.5107460314876421  1.0000
  C   C3        1.0  0.5119656423089083  0.5009492335879456  0.40319875568117425  1.0000
  C   C4        1.0  0.7403963667999987  0.4962548681263286  0.5074033287745578  1.0000
  C   C5        1.0  0.499132085999598  0.49016187609851875  0.9841877969564481  1.0000
  C   C6        1.0  0.2538881947425651  0.5087398126197727  0.0743356251370386  1.0000
  C   C7        1.0  0.5036463449674713  0.5010952056738133  0.1832577708491385  1.0000
  C   C8        1.0  0.7328299699559223  0.49261498268306536  0.07955624892375823  1.0000
  C   C9        1.0  0.4192730026778977  0.20440918978284375  0.5312217934488006  1.0000
  C   C10       1.0  0.4104761330931482  0.10320508490405439  0.5307658443103804  1.0000
  C   C11       1.0  0.3270976662769201  0.0522518763285049  0.5617783544246039  1.0000
  C   C12       1.0  0.5668515797688158  0.20348763362240163  0.4675440114027155  1.0000
  C   C13       1.0  0.5672976080222725  0.10262160162940863  0.46383297853348904  1.0000
  C   C14       1.0  0.6439519155758973  0.048275769131464606  0.42913929936902667  1.0000
  C   C15       1.0  0.5685743383716544  0.7962059659300423  0.4675648066308327  1.0000
  C   C16       1.0  0.5691961769615759  0.8976793291522542  0.46447138946396654  1.0000
  C   C17       1.0  0.6463710833947828  0.9487650500051715  0.4308226240000438  1.0000
  C   C18       1.0  0.4136014782276689  0.7974732092913541  0.52817566238911  1.0000
  C   C19       1.0  0.4057939926229892  0.8984614982930739  0.5285402120626018  1.0000
  C   C20       1.0  0.3217241886125706  0.9530178774816208  0.5599710933323864  1.0000
  C   C21       1.0  0.48843596490765157  0.0514717725119951  0.4967992221861125  1.0000
  C   C22       1.0  0.4870360542750659  0.9494924692591982  0.4966158568272193  1.0000
  C   C23       1.0  0.523589007517934  0.5043053323500715  0.238990344215786  1.0000
  C   C24       1.0  0.5978948571534416  0.4334309247823783  0.2656488339192293  1.0000
  C   C25       1.0  0.4681598560322016  0.5801509649999943  0.26601806873030404  1.0000
  C   C26       1.0  0.6755839569817965  0.3671607182812195  0.23976920448372144  1.0000
  C   C27       1.0  0.7540705899838825  0.30548376580405556  0.26573824345800295  1.0000
  C   C28       1.0  0.5285765397002679  0.505244175341211  0.3473278315056732  1.0000
  C   C29       1.0  0.4700724409677192  0.5803253749741729  0.3206861832442059  1.0000
  C   C30       1.0  0.6013161625699297  0.43465505962767986  0.3201956036850291  1.0000
  C   C31       1.0  0.6843837631053944  0.3715184579346058  0.34563508872717114  1.0000
  C   C32       1.0  0.7594731989445619  0.3082810424155085  0.3192041399340014  1.0000
  C   C33       1.0  0.5077053665199359  0.5918710917763618  0.6868168186690017  1.0000
  C   C34       1.0  0.5070952460975491  0.59116562246993  0.7402447688936891  1.0000
  C   C35       1.0  0.5080649167313496  0.6786350273838124  0.7689351719276659  1.0000
  C   C36       1.0  0.5041258080517181  0.4165027472318243  0.6847905503102469  1.0000
  C   C37       1.0  0.5044255611359247  0.412050454855482  0.7379956461970069  1.0000
  C   C38       1.0  0.5032961581651563  0.32174087555863917  0.7657702578181045  1.0000
  C   C39       1.0  0.5016463069852292  0.4067870278703154  0.8999031475162128  1.0000
  C   C40       1.0  0.5032286112972315  0.4075997271657315  0.8465027850167177  1.0000
  C   C41       1.0  0.5026179228833457  0.3201234937221358  0.8178639540866259  1.0000
  C   C42       1.0  0.5055244988611207  0.5821609501568403  0.9020574972196941  1.0000
  C   C43       1.0  0.5063634905172093  0.5867022090353088  0.8488346325920801  1.0000
  C   C44       1.0  0.5078841314858451  0.676994899461654  0.8210362382957967  1.0000
  C   C45       1.0  0.5058195643297339  0.5055581483561441  0.6593883307278148  1.0000
  C   C46       1.0  0.5055623439424792  0.5001910272351325  0.7664138159460381  1.0000
  C   C47       1.0  0.5025012114860701  0.4930224695225932  0.9273881551431702  1.0000
  C   C48       1.0  0.5051127605012411  0.49859726220417144  0.8203681702825848  1.0000
  C   C49       1.0  0.873298241999791  0.4955649301590909  0.5157474664820257  1.0000
  C   C50       1.0  0.9333428482815119  0.5705454145866469  0.5434770894026286  1.0000
  C   C51       1.0  0.939499117181235  0.4166384531409264  0.49685427906853635  1.0000
  C   C52       1.0  0.8676723410301863  0.6409526215502551  0.5719719074973926  1.0000
  C   C53       1.0  0.9260853982708283  0.705096718592813  0.6034270155215681  1.0000
  C   C54       1.0  0.13021573456592964  0.4957852239421214  0.5183458903568905  1.0000
  C   C55       1.0  0.06923719620911578  0.41792741164148595  0.49663485077783065  1.0000
  C   C56       1.0  0.0630425234937704  0.5688605238882617  0.546183281852855  1.0000
  C   C57       1.0  0.11995502503130243  0.634765890397368  0.5795067655102387  1.0000
  C   C58       1.0  0.053180772249191904  0.7009550236608818  0.6078481944958726  1.0000
  C   C59       1.0  0.41962703929605993  0.7967175626174522  0.052249601875956814  1.0000
  C   C60       1.0  0.4118570957429241  0.8981971630573253  0.05210199079991901  1.0000
  C   C61       1.0  0.32466483860159195  0.9510048797887831  0.0227007060312374  1.0000
  C   C62       1.0  0.575043206946674  0.7941067020686176  0.11270083168736282  1.0000
  C   C63       1.0  0.5790243687281347  0.8950651262794268  0.1146210362155387  1.0000
  C   C64       1.0  0.6631324129765873  0.9476221500789562  0.14592951064314977  1.0000
  C   C65       1.0  0.562828129765677  0.2012954320332767  0.11776670853833343  1.0000
  C   C66       1.0  0.5694924150176988  0.09977774342155502  0.11840465549551742  1.0000
  C   C67       1.0  0.6562562357623135  0.04695025493842311  0.14803182798503664  1.0000
  C   C68       1.0  0.40423644538935133  0.20394765387814567  0.058705637194130106  1.0000
  C   C69       1.0  0.4010716708287205  0.10300682096846711  0.05647486932955562  1.0000
  C   C70       1.0  0.31694387394357904  0.0503138073607943  0.0252022658457989  1.0000
  C   C71       1.0  0.49347573067210254  0.9480881069852811  0.08438768514022853  1.0000
  C   C72       1.0  0.48753655757501957  0.049986808908109005  0.08626404950773293  1.0000
  C   C73       1.0  0.8646130197240396  0.49968936758379806  0.0701010459416835  1.0000
  C   C74       1.0  0.931967136149609  0.42853705456779073  0.0408436593786234  1.0000
  C   C75       1.0  0.9241955391077425  0.5800821158612379  0.08998570518491533  1.0000
  C   C76       1.0  0.8749985046796878  0.3573190422679459  0.0107495109741151  1.0000
  C   C77       1.0  0.9411254331176835  0.2962941916650194  0.9793024561125137  1.0000
  C   C78       1.0  0.12093388176725742  0.5093834415132507  0.0664877564074189  1.0000
  C   C79       1.0  0.053616936890257684  0.585214295209859  0.0878882365415095  1.0000
  C   C80       1.0  0.061376587312750495  0.43418013655810483  0.0389033944837394  1.0000
  C   C81       1.0  0.1267265968842608  0.3709048665944011  0.006018742931289001  1.0000
  C   C82       1.0  0.0679481627070047  0.3037034255405402  0.9764121561364977  1.0000
  N   N1        1.0  0.49573518225739843  0.2516448662379602  0.5007598640073425  1.0000
  N   N2        1.0  0.49362224042316427  0.7491902572886531  0.4987275098626967  1.0000
  N   N3        1.0  0.4976582135892826  0.7475086722254006  0.0822213195616257  1.0000
  N   N4        1.0  0.4839389746621378  0.2503281655675735  0.08822212381055292  1.0000
  O   O1        1.0  0.49335633641123167  0.427295803172612  0.5794482847929104  1.0000
  O   O2        1.0  0.5164211133841903  0.5899949992939  0.5811286326174567  1.0000
  O   O3        1.0  0.3168300267481712  0.5798834038052618  0.5151369028801795  1.0000
  O   O4        1.0  0.31835277268744727  0.4203920788324851  0.49793136936389  1.0000
  O   O5        1.0  0.48181880678313854  0.5809256616103652  0.4260583775673937  1.0000
  O   O6        1.0  0.5238307708472122  0.42085503641876437  0.426412520660989  1.0000
  O   O7        1.0  0.6897627712717594  0.4124280451514437  0.5069279599595475  1.0000
  O   O8        1.0  0.683543087896986  0.5753849101035866  0.49969709839013643  1.0000
  O   O9        1.0  0.5074717786115103  0.5707602205719623  0.007604906282949701  1.0000
  O   O10       1.0  0.4878488008074129  0.4078184759758301  0.0052886080406864  1.0000
  O   O11       1.0  0.31002379614366754  0.4287677693501451  0.0799304660381353  1.0000
  O   O12       1.0  0.30480769309327377  0.5922790330597536  0.0772205549655709  1.0000
  O   O13       1.0  0.512829327067955  0.4216115372800076  0.15951701421047912  1.0000
  O   O14       1.0  0.4738001592392038  0.5819961843737643  0.16084497270696124  1.0000
  O   O15       1.0  0.6756859507797371  0.5720468456682397  0.09286739572820582  1.0000
  O   O16       1.0  0.6800024016841631  0.4125408423560586  0.07596714304870032  1.0000
  O   O17       1.0  0.23788990045493114  0.9087088697671319  0.5892860346380291  1.0000
  O   O18       1.0  0.7168828781977227  0.09232917841988812  0.3950362177666521  1.0000
  O   O19       1.0  0.5087404801104327  0.7635037320781494  0.8461317147916534  1.0000
  O   O20       1.0  0.5025308977130863  0.23526182808736706  0.7406777588116429  1.0000
  O   O21       1.0  0.2298953845367109  0.0958329674873113  0.9970706214618161  1.0000
  O   O22       1.0  0.7495995794299901  0.9018130648490017  0.17430971014560734  1.0000
  O   O23       1.0  0.40993748077280406  0.6541180721329882  0.34289943008641194  1.0000
  O   O24       1.0  0.4073191052465504  0.6544328932483128  0.24430525800016772  1.0000
  O   O25       1.0  0.12429431711559859  0.3424276900966134  0.473813844583539  1.0000
  O   O26       1.0  0.8885474984108868  0.3377103814023671  0.4764896823919287  1.0000
  O   O27       1.0  0.10278789389043648  0.6638431127043704  0.10915085784017722  1.0000
  O   O28       1.0  0.8664902283057714  0.6544087816001747  0.11304859131388413  1.0000
