data_image0
_chemical_formula_structural       Zn9H78C72N12O48
_chemical_formula_sum              "Zn9 H78 C72 N12 O48"
_cell_length_a       14.141266700982575
_cell_length_b       14.696347382699352
_cell_length_c       14.695152528017749
_cell_angle_alpha    110.2110351670843
_cell_angle_beta     108.72075903171903
_cell_angle_gamma    108.70638652867656

_space_group_name_H-M_alt    "P 1"
_space_group_IT_number       1

loop_
  _space_group_symop_operation_xyz
  'x, y, z'

loop_
  _atom_site_type_symbol
  _atom_site_label
  _atom_site_symmetry_multiplicity
  _atom_site_fract_x
  _atom_site_fract_y
  _atom_site_fract_z
  _atom_site_occupancy
  Zn  Zn1       1.0  0.25998544195448386  0.7490205425241708  0.46818223061930536  1.0000
  Zn  Zn2       1.0  0.791893366118309  0.5319014682076428  0.28079899084116994  1.0000
  Zn  Zn3       1.0  0.5110203530405074  0.7191983929858382  0.2511189217926102  1.0000
  Zn  Zn4       1.0  0.7400122288525636  0.25097883033875235  0.5318150247872282  1.0000
  Zn  Zn5       1.0  0.20810580238476456  0.46809790467857937  0.7191993996048964  1.0000
  Zn  Zn6       1.0  0.4889768289529641  0.2807984914755649  0.7488786797509591  1.0000
  Zn  Zn7       1.0  0.9999982271787289  1.102103012999947e-07  0.5000002606579059  1.0000
  Zn  Zn8       1.0  0.5000018239447854  0.5000034190017145  0.5000011747140078  1.0000
  Zn  Zn9       1.0  1.0590537585091364e-06  0.500000798847104  2.752887837211152e-07  1.0000
  H   H1        1.0  0.6063507507290921  0.13930648680945978  0.8538254989113485  1.0000
  H   H2        1.0  0.7525018757171936  0.14615464703374667  0.28545357193959836  1.0000
  H   H3        1.0  0.4670779852414313  0.7144546234397708  0.8606283791471441  1.0000
  H   H4        1.0  0.3936464444296702  0.8606903975514653  0.14617414811771548  1.0000
  H   H5        1.0  0.24749563325728724  0.8538488729820627  0.7145457590213552  1.0000
  H   H6        1.0  0.5329201924691915  0.2855397727438741  0.1393686580874841  1.0000
  H   H7        1.0  0.8474400361301235  0.050383078623916284  0.7822115819573981  1.0000
  H   H8        1.0  0.06530571983717691  0.21768257690076354  0.2682831048053274  1.0000
  H   H9        1.0  0.7971605125913824  0.7317120453147508  0.9498025550085103  1.0000
  H   H10       1.0  0.1525603810056139  0.9496187825917556  0.2177887344426493  1.0000
  H   H11       1.0  0.9346898289582911  0.7823184544892712  0.7317195282241328  1.0000
  H   H12       1.0  0.2028412541093871  0.26828649802980215  0.05020041812211668  1.0000
  H   H13       1.0  0.6996345221572116  0.9287923266791935  0.5809049341250515  1.0000
  H   H14       1.0  0.11892956243028154  0.4189863576598399  0.3480735436863469  1.0000
  H   H15       1.0  0.7709063922256973  0.6521490182269858  0.07149745142013586  1.0000
  H   H16       1.0  0.30036664163232263  0.07120953456487199  0.41909560888050384  1.0000
  H   H17       1.0  0.8810673880535589  0.5810130149737418  0.6519275760856686  1.0000
  H   H18       1.0  0.22909578922315174  0.3478503545718751  0.9285059364189792  1.0000
  H   H19       1.0  0.508511534327681  0.9160448969605638  0.5181635099847312  1.0000
  H   H20       1.0  0.990556122622337  0.48176495883130604  0.3979447088544746  1.0000
  H   H21       1.0  0.5925026499138895  0.6022622709259479  0.08417637080606265  1.0000
  H   H22       1.0  0.49148912309455284  0.08395447601593989  0.4818346518438616  1.0000
  H   H23       1.0  0.009441993651805074  0.518235243251496  0.6020577340600468  1.0000
  H   H24       1.0  0.4074962656736716  0.3977321253530803  0.915819529377089  1.0000
  H   H25       1.0  0.8738158488200226  0.24640039583317724  0.10219484778558299  1.0000
  H   H26       1.0  0.7715915062944136  0.8978053343866251  0.14414005194940668  1.0000
  H   H27       1.0  0.6276940129918531  0.8557134675334694  0.753646095952675  1.0000
  H   H28       1.0  0.12618489583300624  0.753600635990068  0.8978045986829812  1.0000
  H   H29       1.0  0.22840213005695637  0.10219486752580309  0.8558610313320331  1.0000
  H   H30       1.0  0.3723039288207133  0.14428341685584908  0.24635377768191094  1.0000
  H   H31       1.0  0.7378737793610243  0.1215214655421519  0.0200662992111021  1.0000
  H   H32       1.0  0.7178958468713573  0.9800033757806685  0.10138849499846701  1.0000
  H   H33       1.0  0.6166902460149188  0.8985006658827003  0.8785457498990396  1.0000
  H   H34       1.0  0.26212664216314613  0.8784803956400324  0.9799346990174413  1.0000
  H   H35       1.0  0.282100129837481  0.0199984849632102  0.8986165982249831  1.0000
  H   H36       1.0  0.38330985291667474  0.10149455971158255  0.12145420074061522  1.0000
  H   H37       1.0  0.750199227378218  0.24646600705509059  0.018229739806301312  1.0000
  H   H38       1.0  0.7318335405533816  0.9816567532682255  0.22810443110942205  1.0000
  H   H39       1.0  0.5039127399377178  0.7718201965709001  0.7535218031768451  1.0000
  H   H40       1.0  0.2498007750094473  0.7535350247062665  0.9817701618852438  1.0000
  H   H41       1.0  0.26816134881908477  0.0183459369401575  0.7718992599544876  1.0000
  H   H42       1.0  0.4960857082421485  0.22817917608598043  0.246480451634703  1.0000
  H   H43       1.0  0.2915090495116174  0.8581648791536763  0.35192527027336235  1.0000
  H   H44       1.0  0.9395144594642986  0.6481144435156452  0.5062125732050902  1.0000
  H   H45       1.0  0.4332311607856454  0.49382821392509874  0.14186649629793638  1.0000
  H   H46       1.0  0.7084882109357834  0.14183366422144417  0.6480722522531792  1.0000
  H   H47       1.0  0.06048397116183678  0.3518849292752008  0.4937869542924602  1.0000
  H   H48       1.0  0.5667679336519313  0.506169500013918  0.8581326549936534  1.0000
  H   H49       1.0  0.2947742976397123  0.7456590281334242  0.2990360200408232  1.0000
  H   H50       1.0  0.9957149793058946  0.7010270206155411  0.44661686589665806  1.0000
  H   H51       1.0  0.5490216824432395  0.5533644279830837  0.254343025177171  1.0000
  H   H52       1.0  0.7052252899998736  0.25434117417362495  0.7009634669422341  1.0000
  H   H53       1.0  0.004284202362470093  0.2989723521702103  0.553383570034903  1.0000
  H   H54       1.0  0.4509775732906292  0.4466366037498801  0.7456566499088666  1.0000
  H   H55       1.0  0.15979515960582794  0.5682619529289709  0.26178760760625147  1.0000
  H   H56       1.0  0.8980784324982383  0.7383466806715975  0.3065695382391526  1.0000
  H   H57       1.0  0.5915563987708694  0.6932783067548839  0.4317464522677881  1.0000
  H   H58       1.0  0.8402070739663544  0.43173907898455616  0.7382116102448392  1.0000
  H   H59       1.0  0.1019214914354905  0.26165269217604253  0.6934304424694276  1.0000
  H   H60       1.0  0.4084445993339402  0.3067202367287223  0.5682528851148305  1.0000
  H   H61       1.0  0.06835274935956179  0.5620052721384566  0.3002719949027933  1.0000
  H   H62       1.0  0.768112869517175  0.6997683013771548  0.26172599895240717  1.0000
  H   H63       1.0  0.5065355600251565  0.7382314824571026  0.43814884617942346  1.0000
  H   H64       1.0  0.9316470829549461  0.4379924418959361  0.6997260193373124  1.0000
  H   H65       1.0  0.231887294703057  0.3002285832313163  0.7382718271847183  1.0000
  H   H66       1.0  0.4934658484392997  0.2617678905143137  0.5618502240831873  1.0000
  H   H67       1.0  0.9216375457504853  0.8197803362984714  0.5236609882615113  1.0000
  H   H68       1.0  0.3979055749096573  0.4762956930680529  0.29606449869641677  1.0000
  H   H69       1.0  0.10217521181655789  0.7040750420362227  0.18034694172450816  1.0000
  H   H70       1.0  0.07836237818324321  0.18021903654916835  0.4763389924470687  1.0000
  H   H71       1.0  0.6020958247779474  0.523703679970339  0.7039332079091949  1.0000
  H   H72       1.0  0.8978288557458002  0.2959251604412003  0.8196539048916307  1.0000
  H   H73       1.0  0.996560959017181  0.9245209364070489  0.6418828647067726  1.0000
  H   H74       1.0  0.3546906647130897  0.35808211098035514  0.2825609056211534  1.0000
  H   H75       1.0  0.07228929483341065  0.7175157757546415  0.07555332868449936  1.0000
  H   H76       1.0  0.003439038982051592  0.0754800953878032  0.3581163551562767  1.0000
  H   H77       1.0  0.6453108529243181  0.641918920670342  0.7174428584239223  1.0000
  H   H78       1.0  0.9277143623693077  0.2824835972349788  0.9244477850516475  1.0000
  C   C1        1.0  0.12826664184631648  0.8626168493832509  0.4727189678807021  1.0000
  C   C2        1.0  0.6555958312092897  0.5272372765246657  0.38978961224932357  1.0000
  C   C3        1.0  0.26568325757373407  0.6100209137647923  0.13736211597037595  1.0000
  C   C4        1.0  0.8717353783062407  0.13737920562166286  0.5272838961639722  1.0000
  C   C5        1.0  0.34440731470141367  0.4727670731777208  0.6102110378302328  1.0000
  C   C6        1.0  0.7343154308926215  0.3899759706529266  0.8626379842697176  1.0000
  C   C7        1.0  0.24696687723951533  0.9511540918752104  0.5539703730952609  1.0000
  C   C8        1.0  0.6930787180098009  0.44597326486190514  0.39705311095898577  1.0000
  C   C9        1.0  0.2958898648481921  0.6027783048146418  0.04886598340321766  1.0000
  C   C10       1.0  0.7530296409425148  0.048844451438022  0.4460276046542617  1.0000
  C   C11       1.0  0.306920707797218  0.554031084598023  0.6029484515784915  1.0000
  C   C12       1.0  0.7041103169257568  0.3972185796598636  0.9511345700479055  1.0000
  C   C13       1.0  0.297453646045753  0.0644415080118108  0.6277439505035148  1.0000
  C   C14       1.0  0.669783602928348  0.3722035165890674  0.4365810214599223  1.0000
  C   C15       1.0  0.23305421726733747  0.5632483314628088  0.9355611474084994  1.0000
  C   C16       1.0  0.7025439638610962  0.9355562058034222  0.3722561112340513  1.0000
  C   C17       1.0  0.3302162507920414  0.627801662224698  0.5634230012715449  1.0000
  C   C18       1.0  0.7669450521680972  0.436745235222851  0.06443797381416522  1.0000
  C   C19       1.0  0.2513475954940034  0.1388243015382002  0.6631096305350113  1.0000
  C   C20       1.0  0.588320827338869  0.33688994509439857  0.475644918063452  1.0000
  C   C21       1.0  0.1125215722509481  0.5241924894005267  0.8611865433221554  1.0000
  C   C22       1.0  0.7486465345956503  0.86117092379542  0.33688918908902094  1.0000
  C   C23       1.0  0.41167344542078865  0.6631235280608009  0.524356896738766  1.0000
  C   C24       1.0  0.8874778584807712  0.47580439507907357  0.13881310169495714  1.0000
  C   C25       1.0  0.4317718264723851  0.018757418638308796  0.6440193380541359  1.0000
  C   C26       1.0  0.7878086872015615  0.35593151178738947  0.3746242204127271  1.0000
  C   C27       1.0  0.41306086175088547  0.6253260600948208  0.9813060426157989  1.0000
  C   C28       1.0  0.5682257746575984  0.981240295243914  0.35597936002642405  1.0000
  C   C29       1.0  0.21219157249004178  0.644074496547681  0.6253788533702361  1.0000
  C   C30       1.0  0.5869392284038426  0.37466916556643787  0.018692544366857175  1.0000
  C   C31       1.0  0.5450916999651908  0.026268926745586896  0.6820320225527754  1.0000
  C   C32       1.0  0.8631337614633453  0.3179273355883723  0.3442134806313746  1.0000
  C   C33       1.0  0.5188640980474374  0.6558044815100388  0.9737950763728094  1.0000
  C   C34       1.0  0.4549063855899362  0.9737312755716445  0.31796564756225365  1.0000
  C   C35       1.0  0.13686607909174597  0.6820778433258708  0.6557884966145977  1.0000
  C   C36       1.0  0.4811321628306614  0.3441890852294875  0.02619972928530246  1.0000
  C   C37       1.0  0.6277094992643626  0.09339698760539508  0.7952013683613899  1.0000
  C   C38       1.0  0.8325530044656093  0.2047732031100296  0.29824785684119365  1.0000
  C   C39       1.0  0.5343586460147164  0.7017553359404686  0.906615238481038  1.0000
  C   C40       1.0  0.37228859067919723  0.9066032146783555  0.20479698358213463  1.0000
  C   C41       1.0  0.1674430331434351  0.7952303166815327  0.7017544300512313  1.0000
  C   C42       1.0  0.4656407062630806  0.2982398896254139  0.09338448555310214  1.0000
  C   C43       1.0  0.7356907867333788  0.100960638992774  0.8297583437292246  1.0000
  C   C44       1.0  0.9059722671927161  0.17019439578493942  0.27127838326058656  1.0000
  C   C45       1.0  0.6347951373209639  0.7286867338398435  0.8990753853750489  1.0000
  C   C46       1.0  0.26430689285053427  0.8990387338031666  0.17024027533430788  1.0000
  C   C47       1.0  0.09402327721431897  0.8298066356385901  0.7287235679403706  1.0000
  C   C48       1.0  0.36520304916653146  0.27130766227681846  0.10092301551657808  1.0000
  C   C49       1.0  0.7624191777790941  0.04245459209535339  0.7529985078476003  1.0000
  C   C50       1.0  0.009510796058904666  0.24691345949976543  0.2895568373347146  1.0000
  C   C51       1.0  0.7200500169460752  0.7104843550352977  0.957702550677517  1.0000
  C   C52       1.0  0.23758123496821051  0.9575472691538064  0.24700112672394411  1.0000
  C   C53       1.0  0.9904827618385356  0.7530850834989381  0.7104443249637528  1.0000
  C   C54       1.0  0.27995175414311996  0.2895141882757669  0.04230110428160566  1.0000
  C   C55       1.0  0.6804159651706102  0.9758066880087808  0.6411982326740497  1.0000
  C   C56       1.0  0.03936506112965075  0.3587130963971744  0.3347255112082975  1.0000
  C   C57       1.0  0.704665061163581  0.665380095967222  0.02438137676507761  1.0000
  C   C58       1.0  0.31958394998626016  0.024192684905841588  0.35880038437753115  1.0000
  C   C59       1.0  0.9606326447848517  0.6412862761978244  0.6652771988262315  1.0000
  C   C60       1.0  0.29533246151247283  0.33461595900127616  0.9756174003325171  1.0000
  C   C61       1.0  0.5721067179753304  0.9676757299570367  0.6054996640426537  1.0000
  C   C62       1.0  0.9667417966814398  0.39442325149336444  0.3622032380010508  1.0000
  C   C63       1.0  0.6044809149729956  0.6378738728971738  0.032482232509472735  1.0000
  C   C64       1.0  0.4278947733314951  0.032325301894608985  0.3945000090314323  1.0000
  C   C65       1.0  0.03325557293890559  0.605576950561037  0.6377989783079555  1.0000
  C   C66       1.0  0.39551893050680326  0.3621238410367481  0.9675178272161276  1.0000
  C   C67       1.0  0.7932729318201409  0.19688662821033628  0.024122645465070047  1.0000
  C   C68       1.0  0.7690995152697866  0.9758577884422052  0.1727081953138876  1.0000
  C   C69       1.0  0.5965936726770735  0.8271861464299449  0.8031343148843747  1.0000
  C   C70       1.0  0.20672665143101193  0.8031135741302007  0.9758761596894844  1.0000
  C   C71       1.0  0.23089602913725576  0.024143242981324392  0.8272937558870694  1.0000
  C   C72       1.0  0.4034042691354855  0.17281073795937368  0.1968655587502042  1.0000
  N   N1        1.0  0.3326004804560371  0.9233207727473812  0.5660007911990235  1.0000
  N   N2        1.0  0.7666728219804425  0.4339620273816606  0.3571936033285183  1.0000
  N   N3        1.0  0.40936544336894093  0.6427426637058673  0.07675486798454054  1.0000
  N   N4        1.0  0.6673948894894152  0.0766769409826722  0.4339985907219912  1.0000
  N   N5        1.0  0.2333288437879587  0.5660423221634544  0.6428086390255031  1.0000
  N   N6        1.0  0.5906347340165752  0.3572542208021331  0.923245003638087  1.0000
  N   N7        1.0  0.413518630042482  0.1060527696561948  0.6830760564306787  1.0000
  N   N8        1.0  0.7304696906984917  0.3168439274177928  0.422839646121517  1.0000
  N   N9        1.0  0.30750014635611933  0.5770697035904533  0.8939703726391528  1.0000
  N   N10       1.0  0.5864774602261846  0.8939449443032004  0.31691946112486136  1.0000
  N   N11       1.0  0.2695294119796685  0.6831612514010742  0.5771634681759393  1.0000
  N   N12       1.0  0.692499362829537  0.4229288398028713  0.10602919336093213  1.0000
  O   O1        1.0  0.1111199520218094  0.7627620910765385  0.44262459501550194  1.0000
  O   O2        1.0  0.6684422466582304  0.5572875113192737  0.31995128754156354  1.0000
  O   O3        1.0  0.3483622722315546  0.6798702395838988  0.23725938683062245  1.0000
  O   O4        1.0  0.8888781510870418  0.23723811110673407  0.5573758024135175  1.0000
  O   O5        1.0  0.3315589868083748  0.4427160089054993  0.6800478127899653  1.0000
  O   O6        1.0  0.6516395465925483  0.3201299628753133  0.7627394163119803  1.0000
  O   O7        1.0  0.047615376193697045  0.8815923909572163  0.43351942012854044  1.0000
  O   O8        1.0  0.6142338894040762  0.5664520494851856  0.4480282333804553  1.0000
  O   O9        1.0  0.1660763906708311  0.5517831768298578  0.11833827905596905  1.0000
  O   O10       1.0  0.9523781729268775  0.11840615210847011  0.5664803785129209  1.0000
  O   O11       1.0  0.3857693349605569  0.43355395913091854  0.5519723376820735  1.0000
  O   O12       1.0  0.8339258648435077  0.4482178549162157  0.8816643479376155  1.0000
  O   O13       1.0  0.14829504699760326  0.10022954413241081  0.6428629476133525  1.0000
  O   O14       1.0  0.5056016314511282  0.35727606454971556  0.4574952625363125  1.0000
  O   O15       1.0  0.04802978762076994  0.5425205575174274  0.8997406588495592  1.0000
  O   O16       1.0  0.8517033836285394  0.8997698286584352  0.3571365798841981  1.0000
  O   O17       1.0  0.49440548309033977  0.6427332620358044  0.5425062835197352  1.0000
  O   O18       1.0  0.9519696387225238  0.4574763269956747  0.10025830433905002  1.0000
  O   O19       1.0  0.3220490810914782  0.24315039713444966  0.7220075561842804  1.0000
  O   O20       1.0  0.6000019175136517  0.2778628010711728  0.5209667877774393  1.0000
  O   O21       1.0  0.0788851511796267  0.47879410674578776  0.7568450039337904  1.0000
  O   O22       1.0  0.6779475067676302  0.7568498051594831  0.2779889788912229  1.0000
  O   O23       1.0  0.3999972773200113  0.7221365716141078  0.47903569363961646  1.0000
  O   O24       1.0  0.9211139344810844  0.5212036072602045  0.24315278370080043  1.0000
  O   O25       1.0  0.8234099000553528  0.16690974079818224  0.9378270761384045  1.0000
  O   O26       1.0  0.8855684472545136  0.062138430533579495  0.22914699273650302  1.0000
  O   O27       1.0  0.6565906607726433  0.7707427532192596  0.8330843549958402  1.0000
  O   O28       1.0  0.1765870328747639  0.8330896319693654  0.06217131631961344  1.0000
  O   O29       1.0  0.11442560823336115  0.9378626007996614  0.7708551870819278  1.0000
  O   O30       1.0  0.34340719819756066  0.22925247228983636  0.16691491582727017  1.0000
  O   O31       1.0  0.2503555786461503  0.7788865269022764  0.32619241419342865  1.0000
  O   O32       1.0  0.9241078985858876  0.6738483907824601  0.45264553849301586  1.0000
  O   O33       1.0  0.47138259161963  0.5473401235147789  0.2211614992911564  1.0000
  O   O34       1.0  0.7496416642475269  0.2211120166068028  0.6738023810191223  1.0000
  O   O35       1.0  0.0758897941633165  0.3261509819130097  0.5473551260560184  1.0000
  O   O36       1.0  0.5286154154815677  0.45265841988874184  0.7788362498409  1.0000
  O   O37       1.0  0.1503885499184179  0.5820436818081234  0.3280652925413321  1.0000
  O   O38       1.0  0.8224130408312219  0.6720487616282751  0.2540058007089667  1.0000
  O   O39       1.0  0.5685081384412669  0.7459082001278431  0.4180948072485433  1.0000
  O   O40       1.0  0.8496113652384453  0.4179556911064991  0.671933324510242  1.0000
  O   O41       1.0  0.17758837641010672  0.327950611276151  0.7459946332106425  1.0000
  O   O42       1.0  0.43149393383463064  0.2540895139917366  0.5819038868081066  1.0000
  O   O43       1.0  0.9353393699599977  0.8954988300021894  0.5671714004253233  1.0000
  O   O44       1.0  0.36813600639835903  0.43274873610123155  0.32827096379899245  1.0000
  O   O45       1.0  0.04014245609080554  0.6718495968519279  0.10460317365961198  1.0000
  O   O46       1.0  0.06465707415653552  0.10449805436383029  0.4328273381697301  1.0000
  O   O47       1.0  0.6318674801949199  0.5672547841082504  0.6717308618345753  1.0000
  O   O48       1.0  0.9598607819754009  0.32814894671687267  0.8953968435395439  1.0000
