data_image0
_chemical_formula_structural       Zn6H44C76O32
_chemical_formula_sum              "Zn6 H44 C76 O32"
_cell_length_a       18.32109843832422
_cell_length_b       18.552082616268294
_cell_length_c       18.893836000603223
_cell_angle_alpha    110.14817038559502
_cell_angle_beta     109.10813805542082
_cell_angle_gamma    108.54188271012494

_space_group_name_H-M_alt    "P 1"
_space_group_IT_number       1

loop_
  _space_group_symop_operation_xyz
  'x, y, z'

loop_
  _atom_site_type_symbol
  _atom_site_label
  _atom_site_symmetry_multiplicity
  _atom_site_fract_x
  _atom_site_fract_y
  _atom_site_fract_z
  _atom_site_occupancy
  Zn  Zn1       1.0  0.4327490102303528  0.9347074730531587  0.998936386648758  1.0000
  Zn  Zn2       1.0  0.5598964956350515  0.06685230031937546  0.007375432735820257  1.0000
  Zn  Zn3       1.0  0.013275471399232725  0.07170079997555232  0.5630215400997401  1.0000
  Zn  Zn4       1.0  0.9982725034108453  0.9391468030066574  0.43068994945181055  1.0000
  Zn  Zn5       1.0  0.44685419699744244  0.5106523564360971  0.44790088364143793  1.0000
  Zn  Zn6       1.0  0.5707680018786121  0.4976600931400482  0.5597891958294525  1.0000
  H   H1        1.0  0.41469322839751754  0.1494444252316711  0.854368624467341  1.0000
  H   H2        1.0  0.9784491406375867  0.943336129177105  0.6554392790744502  1.0000
  H   H3        1.0  0.09464207286381311  0.03627478589712041  0.1805714949983894  1.0000
  H   H4        1.0  0.015226613204021156  0.9598824302339537  0.7979195897650869  1.0000
  H   H5        1.0  0.33178891768753266  0.28608068932081926  0.34840719535241504  1.0000
  H   H6        1.0  0.780920630453558  0.7152974046524962  0.6863765895459794  1.0000
  H   H7        1.0  0.3988210267912109  0.3392262349542889  0.6364899137739358  1.0000
  H   H8        1.0  0.6403486886369761  0.6152816591370892  0.3811366668027815  1.0000
  H   H9        1.0  0.2986055209680602  0.8436950679071274  0.7702920874525391  1.0000
  H   H10       1.0  0.548897195199828  0.027947427751826102  0.2279141603204735  1.0000
  H   H11       1.0  0.15460428067148524  0.710479894935027  0.664515638402726  1.0000
  H   H12       1.0  0.791683494121763  0.0670466760877773  0.16972615860679238  1.0000
  H   H13       1.0  0.517981894671685  0.007358154125753899  0.3393462074909621  1.0000
  H   H14       1.0  0.027478817471383497  0.7213982478829949  0.5750560126114479  1.0000
  H   H15       1.0  0.6309336825608299  0.0079600447163131  0.4582586320327664  1.0000
  H   H16       1.0  0.0488444405444568  0.8620685478032684  0.5846302826903695  1.0000
  H   H17       1.0  0.7737433018947756  0.030913951732635798  0.4659495104684694  1.0000
  H   H18       1.0  0.3552366242222363  0.725614505188574  0.7550083499356575  1.0000
  H   H19       1.0  0.46502125753449525  0.11557072720623299  0.2508652600674779  1.0000
  H   H20       1.0  0.8026287393019159  0.952171538718879  0.9521400615153509  1.0000
  H   H21       1.0  0.33083673099714866  0.23856424538906398  0.956014138445873  1.0000
  H   H22       1.0  0.34048532834576406  0.5917203507006616  0.5606085566508908  1.0000
  H   H23       1.0  0.7913214903461354  0.8803184500368674  0.8060825396202277  1.0000
  H   H24       1.0  0.4820813512575556  0.19351214460102284  0.3777095435500186  1.0000
  H   H25       1.0  0.09416913711812211  0.0952754671410361  0.09082893403134311  1.0000
  H   H26       1.0  0.16083520941513296  0.0417535072233619  0.09300893810194572  1.0000
  H   H27       1.0  0.18094981379211822  0.12644744868458702  0.06490316953331643  1.0000
  H   H28       1.0  0.9794113509277057  0.9774005896287792  0.9097701627876447  1.0000
  H   H29       1.0  0.05071919499070541  0.9294101595692794  0.9095697274805019  1.0000
  H   H30       1.0  0.9829539220976288  0.9099729411657904  0.9584111204935934  1.0000
  H   H31       1.0  0.35701839948802677  0.2166464553190508  0.7938579426757357  1.0000
  H   H32       1.0  0.9344673395652238  0.030406376714921593  0.3100322368901375  1.0000
  H   H33       1.0  0.6971264363695654  0.8196316105892976  0.011791313999907545  1.0000
  H   H34       1.0  0.3776790612739803  0.38631896121158604  0.07563774379170954  1.0000
  H   H35       1.0  0.587080294116298  0.8042320360352734  0.9801543898885113  1.0000
  H   H36       1.0  0.6766952766427394  0.892341458403429  0.08454886836280912  1.0000
  H   H37       1.0  0.2360313877036972  0.037783740912253394  0.9859970168883906  1.0000
  H   H38       1.0  0.2422268881616248  0.9865594714392074  0.8899950110238422  1.0000
  H   H39       1.0  0.2106844720773253  0.07095931863823778  0.9057497560335577  1.0000
  H   H40       1.0  0.6505513840911875  0.7541026277235616  0.6822529022127028  1.0000
  H   H41       1.0  0.4297539532739236  0.4157169916535323  0.22518400274064734  1.0000
  H   H42       1.0  0.26798384764743594  0.2179453106120448  0.6148996338153125  1.0000
  H   H43       1.0  0.7491699159538074  0.7190174843585524  0.36305236138748154  1.0000
  H   H44       1.0  0.08905497510528448  0.02966294235763201  0.3057169653204639  1.0000
  C   C1        1.0  0.49181684613280663  0.8652092320073522  0.897892432056878  1.0000
  C   C2        1.0  0.3697575287309078  0.19192366263261823  0.043272382472487415  1.0000
  C   C3        1.0  0.7391306534431409  0.9017706438695257  0.8946009475546078  1.0000
  C   C4        1.0  0.3591364185380428  0.2540922886480885  0.02333567188934888  1.0000
  C   C5        1.0  0.7327480463778926  0.8598818967285453  0.8132358917012966  1.0000
  C   C6        1.0  0.3841851788950947  0.3361959985137232  0.0907338899979777  1.0000
  C   C7        1.0  0.6537327950990246  0.7895272430447234  0.7435543984644964  1.0000
  C   C8        1.0  0.4145445490565863  0.3534101613439659  0.1750573768259045  1.0000
  C   C9        1.0  0.5757130216408299  0.7643405384926467  0.7502411269355918  1.0000
  C   C10       1.0  0.42452768004599056  0.2900193870055928  0.19737045593690544  1.0000
  C   C11       1.0  0.579117407316659  0.8148862175407104  0.8294145746300857  1.0000
  C   C12       1.0  0.4384663741743537  0.08112543177218612  0.09338942892888724  1.0000
  C   C13       1.0  0.4066260842400454  0.20956788114072109  0.13020611779055707  1.0000
  C   C14       1.0  0.4969997971548852  0.8000902552291791  0.8285893096803177  1.0000
  C   C15       1.0  0.4258737291773117  0.148939836916071  0.15196963883774123  1.0000
  C   C16       1.0  0.4097181977327367  0.0166622895188553  0.8760490401355625  1.0000
  C   C17       1.0  0.6326481226785035  0.042926306422892004  0.13864251098866026  1.0000
  C   C18       1.0  0.4172508120549949  0.7345851001041694  0.7556932365232213  1.0000
  C   C19       1.0  0.4501568087726042  0.1620661081929669  0.23427503173429193  1.0000
  C   C20       1.0  0.4139973500947536  0.6802422977003317  0.6793953820171055  1.0000
  C   C21       1.0  0.4620692020085714  0.23817895238745726  0.2999551786748214  1.0000
  C   C22       1.0  0.492500918826572  0.6927298647132788  0.6776527529893741  1.0000
  C   C23       1.0  0.3516346372538308  0.0899523521196528  0.8056307225627038  1.0000
  C   C24       1.0  0.4531777679959816  0.3038896439931237  0.2836531391295837  1.0000
  C   C25       1.0  0.1270037837055469  0.08843242808569579  0.47080812455836  1.0000
  C   C26       1.0  0.8931352140629301  0.8692672824851184  0.48451488363593137  1.0000
  C   C27       1.0  0.1280401466058336  0.0252133356687594  0.6311013459398751  1.0000
  C   C28       1.0  0.8916382048120185  0.0427005400884326  0.41461652938306787  1.0000
  C   C29       1.0  0.650063067615662  0.6163754499102085  0.522581009192713  1.0000
  C   C30       1.0  0.41781495020566695  0.3766269200074817  0.5180782462910614  1.0000
  C   C31       1.0  0.489391048527274  0.6253121395110808  0.6044662183641378  1.0000
  C   C32       1.0  0.4701278731688205  0.38445946616902665  0.3558147651794457  1.0000
  C   C33       1.0  0.1425050151635219  0.08633534252552269  0.3160279555475185  1.0000
  C   C34       1.0  0.7780464009884012  0.06077007719331111  0.21991273160165986  1.0000
  C   C35       1.0  0.9348812252657627  0.8922655258580364  0.6606530903825459  1.0000
  C   C36       1.0  0.14611140827623362  0.08979082911000089  0.2454092652207933  1.0000
  C   C37       1.0  0.9553884078009957  0.902129364177483  0.7416082367614223  1.0000
  C   C38       1.0  0.21603620932166478  0.16280793405277186  0.25822871076481857  1.0000
  C   C39       1.0  0.8990913962543773  0.8370780659175023  0.7502433521971739  1.0000
  C   C40       1.0  0.2441468858252874  0.8484150848771602  0.7304287611251397  1.0000
  C   C41       1.0  0.5987217767849556  0.0299387577844783  0.2805263188342905  1.0000
  C   C42       1.0  0.28058923179730044  0.23022614211324566  0.3412420859225236  1.0000
  C   C43       1.0  0.8229006746246271  0.7643774759419133  0.6779292518973749  1.0000
  C   C44       1.0  0.27923788890891643  0.22767743755953523  0.41455422749420734  1.0000
  C   C45       1.0  0.282369821974676  0.0947902281711634  0.7500893966502106  1.0000
  C   C46       1.0  0.8004600137820577  0.752978112716825  0.5943526285763455  1.0000
  C   C47       1.0  0.20793629999338492  0.15374627100173655  0.4020504522730519  1.0000
  C   C48       1.0  0.8583465297217147  0.8181731901357095  0.5846621713635685  1.0000
  C   C49       1.0  0.2046642605688902  0.1539639736791614  0.47665500458581533  1.0000
  C   C50       1.0  0.837579490642014  0.803779797684882  0.4993106424078634  1.0000
  C   C51       1.0  0.2725495782660516  0.2195754910223329  0.5593268440089858  1.0000
  C   C52       1.0  0.7625608289771434  0.729398916515663  0.4273621717831589  1.0000
  C   C53       1.0  0.3453769314610611  0.2881634978566651  0.5713984898643005  1.0000
  C   C54       1.0  0.7022612288825345  0.6703812262414033  0.4374980938282178  1.0000
  C   C55       1.0  0.34739111816435303  0.29493047936414746  0.5013338732727064  1.0000
  C   C56       1.0  0.8383929809936319  0.0535135781300724  0.28267588449440956  1.0000
  C   C57       1.0  0.7200156311429355  0.6808823536484496  0.5185710627269486  1.0000
  C   C58       1.0  0.16331687402395537  0.7739627183723525  0.6715155027496138  1.0000
  C   C59       1.0  0.581478873656131  0.018200118093567096  0.342742733343023  1.0000
  C   C60       1.0  0.0920101762890013  0.7799267435300833  0.6204270707049631  1.0000
  C   C61       1.0  0.6450710622741697  0.018260354882983203  0.40969546332028983  1.0000
  C   C62       1.0  0.10375691156462344  0.8593792431215447  0.6264959678372435  1.0000
  C   C63       1.0  0.7249943394136905  0.030567308366911995  0.4137996699249981  1.0000
  C   C64       1.0  0.1866582296808232  0.9373381405511906  0.6852304723018321  1.0000
  C   C65       1.0  0.7447969974330704  0.0422546335945242  0.35049401344143405  1.0000
  C   C66       1.0  0.25782002265015086  0.9320497175629966  0.7406788246251637  1.0000
  C   C67       1.0  0.2001468351758575  0.020354694756718993  0.6918316604579502  1.0000
  C   C68       1.0  0.6796017811287387  0.0413430527507614  0.28171177976684453  1.0000
  C   C69       1.0  0.3396965824510546  0.011685396433499298  0.8032702496674845  1.0000
  C   C70       1.0  0.6994535985876738  0.051989028469620294  0.21728979168182855  1.0000
  C   C71       1.0  0.16101682357644617  0.10450369303399748  0.10573569005311609  1.0000
  C   C72       1.0  0.9864033266650909  0.9193042379744583  0.9051746531181807  1.0000
  C   C73       1.0  0.6576490357175192  0.8533603875723585  0.01661344631003199  1.0000
  C   C74       1.0  0.25252300535149164  0.048125467990139704  0.9379401169780407  1.0000
  C   C75       1.0  0.8244243056113164  0.04816053272668339  0.3497451929252193  1.0000
  C   C76       1.0  0.6646311090922978  0.8774772002041189  0.9036748416036035  1.0000
  O   O1        1.0  0.43530453037602274  0.8351610621985586  0.9210904514984507  1.0000
  O   O2        1.0  0.39133242282707675  0.9993575724799442  0.06750752652776267  1.0000
  O   O3        1.0  0.3844319170752896  0.9633113236938086  0.9016019992216543  1.0000
  O   O4        1.0  0.659648322713622  0.09444488936057377  0.11067281263098748  1.0000
  O   O5        1.0  0.4903168928075345  0.0767261644239028  0.9112715774497601  1.0000
  O   O6        1.0  0.5538397437265844  0.9818304663598809  0.10243513744404725  1.0000
  O   O7        1.0  0.10216598160006639  0.11876464078879677  0.5242719115609519  1.0000
  O   O8        1.0  0.9104480798982805  0.839930448960928  0.42269195027843404  1.0000
  O   O9        1.0  0.08982629649379699  0.006437077288545399  0.4135868747915197  1.0000
  O   O10       1.0  0.9194104400309943  0.949852380335841  0.5322870929822016  1.0000
  O   O11       1.0  0.10364788131518311  0.08097728454126947  0.6622577473426999  1.0000
  O   O12       1.0  0.5020513701385524  0.11198704465920879  0.08057069950029926  1.0000
  O   O13       1.0  0.9205516877165323  0.9917114924833114  0.3838756081876226  1.0000
  O   O14       1.0  0.09444815875454543  0.9724294442498544  0.5510981154371422  1.0000
  O   O15       1.0  0.9199569678471847  0.089087620891604  0.4957726852979363  1.0000
  O   O16       1.0  0.5709285757959252  0.5968361240661793  0.47605840131269167  1.0000
  O   O17       1.0  0.49907170964932857  0.404897116222017  0.5720417664528269  1.0000
  O   O18       1.0  0.3328430159936744  0.6171366066715861  0.6112457942247645  1.0000
  O   O19       1.0  0.48249308331294577  0.246795723252518  0.3795831081274983  1.0000
  O   O20       1.0  0.22511978217125522  0.1724624544306508  0.19249287294907452  1.0000
  O   O21       1.0  0.9148711808551441  0.8409837229131228  0.82790713447573  1.0000
  O   O22       1.0  0.29535386909910244  0.1728193578186392  0.7525322576106319  1.0000
  O   O23       1.0  0.6737487575095572  0.5847053325710619  0.5715658667657807  1.0000
  O   O24       1.0  0.9082468879978548  0.0520377916207337  0.27306417925692017  1.0000
  O   O25       1.0  0.6763121988423181  0.9147905215116482  0.9863159258833606  1.0000
  O   O26       1.0  0.3444634161136904  0.1102053373148806  0.9786005889609727  1.0000
  O   O27       1.0  0.3933142272887552  0.4150685853539642  0.47887509157534686  1.0000
  O   O28       1.0  0.4267692718728925  0.5937978443448417  0.5262932275837997  1.0000
  O   O29       1.0  0.5317091301545177  0.4144949741313723  0.43098086195249863  1.0000
  O   O30       1.0  0.544613422291839  0.5981879431774927  0.620925776932431  1.0000
  O   O31       1.0  0.4193763965377215  0.41847248551992766  0.33870010822592883  1.0000
  O   O32       1.0  0.5389354033847483  0.9455119550612566  0.9245016225426355  1.0000
