data_image0
_chemical_formula_structural       Y2H26C42N12O40
_chemical_formula_sum              "Y2 H26 C42 N12 O40"
_cell_length_a       9.218876646067013
_cell_length_b       11.55445409835649
_cell_length_c       13.7146
_cell_angle_alpha    107.68947521868863
_cell_angle_beta     90.5522095284694
_cell_angle_gamma    93.4242011446731

_space_group_name_H-M_alt    "P 1"
_space_group_IT_number       1

loop_
  _space_group_symop_operation_xyz
  'x, y, z'

loop_
  _atom_site_type_symbol
  _atom_site_label
  _atom_site_symmetry_multiplicity
  _atom_site_fract_x
  _atom_site_fract_y
  _atom_site_fract_z
  _atom_site_occupancy
  Y   Y1        1.0  0.2677641763747117  0.9885286779774987  0.0062415057106620184  1.0000
  Y   Y2        1.0  0.7322354631999699  0.011470923453430298  0.9937586086663401  1.0000
  H   H1        1.0  0.7679571438082746  0.23640116612322967  0.22210829247871547  1.0000
  H   H2        1.0  0.23204372354759062  0.7636002560892052  0.7778915668193493  1.0000
  H   H3        1.0  0.2580643624838856  0.3085696616788169  0.053949098457536614  1.0000
  H   H4        1.0  0.7419352770907962  0.691429939752112  0.9460502867695058  1.0000
  H   H5        1.0  0.22685222931080057  0.3431590478446651  0.26077082080604447  1.0000
  H   H6        1.0  0.7731485665450959  0.6568414639770168  0.7392288049703523  1.0000
  H   H7        1.0  0.9184588571984446  0.585425861571899  0.434104822915586  1.0000
  H   H8        1.0  0.0815420101574205  0.4145755606405359  0.5658972238323515  1.0000
  H   H9        1.0  0.7074512454675954  0.440462521624525  0.11723727774455033  1.0000
  H   H10       1.0  0.2925482511071564  0.559535259024905  0.8827616404391492  1.0000
  H   H11       1.0  0.3719094266581493  0.6962031184557915  0.1702662167383124  1.0000
  H   H12       1.0  0.6280923109790564  0.3037955725843915  0.8297329490224075  1.0000
  H   H13       1.0  0.7123153081678453  0.8742209257640496  0.6907720961729356  1.0000
  H   H14       1.0  0.2876843314068438  0.1257786756668793  0.3092272890541068  1.0000
  H   H15       1.0  0.26600893371615797  0.9513729002866285  0.6536087864457372  1.0000
  H   H16       1.0  0.7339907773584926  0.0486276115350464  0.34639083230297973  1.0000
  H   H17       1.0  0.5195443549752098  0.7988487651582475  0.38780061466408006  1.0000
  H   H18       1.0  0.4804541283182644  0.20114992588192848  0.6121992591635746  1.0000
  H   H19       1.0  0.0646865510098422  0.1241163021568852  0.9074904844648374  1.0000
  H   H20       1.0  0.9353152581273321  0.8758832992740437  0.09250891481755026  1.0000
  H   H21       1.0  0.138966961483483  0.7890101723200545  0.09653390807618932  1.0000
  H   H22       1.0  0.8610337628724452  0.2109894291108745  0.9034654841785255  1.0000
  H   H23       1.0  0.22490446472225759  0.1424597653841175  0.8713091538586539  1.0000
  H   H24       1.0  0.7750951748524314  0.8575398360468115  0.12869096051834822  1.0000
  H   H25       1.0  0.16754982749098696  0.910709387034963  0.1836516538211299  1.0000
  H   H26       1.0  0.8324497405837332  0.089289304005213  0.8163489561841574  1.0000
  C   C1        1.0  0.032834837944086794  0.1645676943637326  0.14837548048108573  1.0000
  C   C2        1.0  0.9671626320681098  0.8354319070671963  0.8516246198405713  1.0000
  C   C3        1.0  0.8569796195417395  0.3022843239389346  0.2580611936997386  1.0000
  C   C4        1.0  0.1430202345328482  0.6977180086642463  0.7419381629423685  1.0000
  C   C5        1.0  0.5349429135817373  0.2328242408654049  0.04891247500638231  1.0000
  C   C6        1.0  0.4650544849304907  0.767174450174771  0.951085933493687  1.0000
  C   C7        1.0  0.0006941000229474988  0.2779140739448991  0.2318714423390489  1.0000
  C   C8        1.0  0.9993056825516714  0.7220873482675358  0.7681291390813031  1.0000
  C   C9        1.0  0.4874579840850328  0.3609225921639805  0.084167116516177  1.0000
  C   C10       1.0  0.5125406422083714  0.6390779196577014  0.9158332243548203  1.0000
  C   C11       1.0  0.3403513291517015  0.383733342802806  0.08186564980071863  1.0000
  C   C12       1.0  0.6596472256417413  0.6162662586281229  0.9181344575486109  1.0000
  C   C13       1.0  0.8300625913690565  0.4111479394657565  0.3320268391292487  1.0000
  C   C14       1.0  0.16993711970560096  0.5888525723559255  0.6679742379193813  1.0000
  C   C15       1.0  0.08149271485516607  0.4719593104116981  0.3493699485640819  1.0000
  C   C16       1.0  0.9185069962194844  0.5280412014099767  0.6506303993345954  1.0000
  C   C17       1.0  0.1145079436128285  0.3621370534248456  0.2792101823655173  1.0000
  C   C18       1.0  0.8854918389617906  0.6378643687875893  0.7207896699048747  1.0000
  C   C19       1.0  0.9402048813269346  0.4989123389642671  0.3784925976071777  1.0000
  C   C20       1.0  0.0597957715290249  0.5010863520759159  0.6215109360256081  1.0000
  C   C21       1.0  0.5926677126281844  0.45776085627045393  0.1171151132757231  1.0000
  C   C22       1.0  0.4073306991653283  0.542236924378976  0.8828845270302637  1.0000
  C   C23       1.0  0.5488343718512566  0.5763729359511913  0.147625829054931  1.0000
  C   C24       1.0  0.4511662095047342  0.4236248446982387  0.8523738253064012  1.0000
  C   C25       1.0  0.30204860633084957  0.5042290209458571  0.11229284452109309  1.0000
  C   C26       1.0  0.6979521180250784  0.49577058048507183  0.8877065477336289  1.0000
  C   C27       1.0  0.4037057118968477  0.6028771418638712  0.14645696166466146  1.0000
  C   C28       1.0  0.5962960257403579  0.3971215491763118  0.8535422040960585  1.0000
  C   C29       1.0  0.48218447613172793  0.9643468788687599  0.799977437650128  1.0000
  C   C30       1.0  0.5178151634429611  0.035652722562169  0.2000234058768271  1.0000
  C   C31       1.0  0.4885260539742831  0.9185724319450655  0.6848675034415522  1.0000
  C   C32       1.0  0.5114747418816137  0.0814280798766092  0.3151328514847904  1.0000
  C   C33       1.0  0.619027903392471  0.8750011306370311  0.6417360863428669  1.0000
  C   C34       1.0  0.380970794400902  0.1250002915753967  0.3582644880498053  1.0000
  C   C35       1.0  0.3686125198635466  0.9182592575269767  0.6215237875445468  1.0000
  C   C36       1.0  0.6313871197111354  0.0817403439039524  0.3784763268324554  1.0000
  C   C37       1.0  0.3831985545968166  0.8765333182697432  0.515533803899281  1.0000
  C   C38       1.0  0.616801156477834  0.1234671935519387  0.484466543999396  1.0000
  C   C39       1.0  0.6271884146804254  0.8312677797754517  0.5357374439807572  1.0000
  C   C40       1.0  0.3728101401130175  0.1687318216554843  0.4642626633685722  1.0000
  C   C41       1.0  0.5109059877448557  0.8314562306607556  0.47040707032791573  1.0000
  C   C42       1.0  0.4890927100485241  0.1685451915516722  0.5295927749148035  1.0000
  N   N1        1.0  0.6787126411362223  0.43443300368546994  0.36274844721345545  1.0000
  N   N2        1.0  0.32128931100088204  0.5655684185269578  0.6372528774121946  1.0000
  N   N3        1.0  0.20018706410867537  0.5646225225374266  0.3935329896279144  1.0000
  N   N4        1.0  0.7998148165284604  0.4353779892842553  0.6064666431761552  1.0000
  N   N5        1.0  0.1475843794767968  0.5288969687152374  0.10661444712583548  1.0000
  N   N6        1.0  0.8524163448791313  0.4711026327156915  0.8933842159789267  1.0000
  N   N7        1.0  0.6617547756043861  0.6771759517750979  0.17501515024923722  1.0000
  N   N8        1.0  0.33824587725157323  0.3228227392650851  0.82498473763377  1.0000
  N   N9        1.0  0.2606251989840942  0.8837900429401628  0.4478684849083266  1.0000
  N   N10       1.0  0.7393745835905251  0.116211379272265  0.5521313673620654  1.0000
  N   N11       1.0  0.7646024694481497  0.7844227133294339  0.49090785374377083  1.0000
  N   N12       1.0  0.2353961568452547  0.215577798492248  0.5090924871272335  1.0000
  O   O1        1.0  0.929901845428425  0.1102109938372209  0.086727441579157  1.0000
  O   O2        1.0  0.07009569608374731  0.889789517984454  0.9132728922641747  1.0000
  O   O3        1.0  0.1624031512258881  0.1319829886299857  0.1428441427475917  1.0000
  O   O4        1.0  0.8375930910051395  0.8680147920194443  0.85715402520313  1.0000
  O   O5        1.0  0.3181453382050208  0.5534929956153434  0.3501613756407025  1.0000
  O   O6        1.0  0.6818565424321149  0.4465075162063386  0.6498389863133128  1.0000
  O   O7        1.0  0.581055035351575  0.3603281070040509  0.31388426598734054  1.0000
  O   O8        1.0  0.4189457605043144  0.6396724048176239  0.6861175472389222  1.0000
  O   O9        1.0  0.1741173163724028  0.6488873799918835  0.47107592903032014  1.0000
  O   O10       1.0  0.8258834794834937  0.3511131318297984  0.5289236967460766  1.0000
  O   O11       1.0  0.1687890632211477  0.1326020543401754  0.9290005649811022  1.0000
  O   O12       1.0  0.8312115896348189  0.8673966367000076  0.0709993229019048  1.0000
  O   O13       1.0  0.6697069813504868  0.2187987609667132  0.036712439928742006  1.0000
  O   O14       1.0  0.33028947538043946  0.7812017508549687  0.9632878868869171  1.0000
  O   O15       1.0  0.4384034659269034  0.1461331920614697  0.033537454932513804  1.0000
  O   O16       1.0  0.5615950888665394  0.8538664093694592  0.9664633815667757  1.0000
  O   O17       1.0  0.1232045117553326  0.8762547387001547  0.11504904461914124  1.0000
  O   O18       1.0  0.8767950563193877  0.1237439523400212  0.8849515653861459  1.0000
  O   O19       1.0  0.6585471995959792  0.5260301482426257  0.4353497639029983  1.0000
  O   O20       1.0  0.3414536677598861  0.4739712739698021  0.5646508245450265  1.0000
  O   O21       1.0  0.3613093082235395  0.9506983007406831  0.8398729780360342  1.0000
  O   O22       1.0  0.6386891750699348  0.04930039029950001  0.16012689579162037  1.0000
  O   O23       1.0  0.0570798764481708  0.4409805339614294  0.08195763787170311  1.0000
  O   O24       1.0  0.942920847907757  0.5590190674694995  0.9180417543830188  1.0000
  O   O25       1.0  0.7898693138241484  0.6518543434470203  0.1735795166488927  1.0000
  O   O26       1.0  0.2101323523130887  0.3481434372024097  0.826420144740112  1.0000
  O   O27       1.0  0.621089386894333  0.7828095009199528  0.19393420202186462  1.0000
  O   O28       1.0  0.3789134355241117  0.2171891901202301  0.8060649707665277  1.0000
  O   O29       1.0  0.1171083489525628  0.6369339494408095  0.12785318418787742  1.0000
  O   O30       1.0  0.882894616465819  0.3630665623808724  0.8721457264938978  1.0000
  O   O31       1.0  0.15261259103723998  0.9342065722994947  0.48867108116017743  1.0000
  O   O32       1.0  0.8473882048186566  0.0657939395221874  0.5113285446162124  1.0000
  O   O33       1.0  0.8603136453145551  0.7710090160149222  0.550000317583127  1.0000
  O   O34       1.0  0.13968498097885626  0.22899149580675981  0.4500000232878775  1.0000
  O   O35       1.0  0.27507040952471573  0.841362192414465  0.3537594994556558  1.0000
  O   O36       1.0  0.7249305293311109  0.1586401401887088  0.6462398642141238  1.0000
  O   O37       1.0  0.7759739803630055  0.7600961620914077  0.3970539985864861  1.0000
  O   O38       1.0  0.22402565921168355  0.2399034393395212  0.602946115790516  1.0000
  O   O39       1.0  0.6004684029662356  0.0116948795780019  0.8473554265945681  1.0000
  O   O40       1.0  0.39953022332717575  0.9883056322436801  0.15264637257634922  1.0000
