data_image0
_chemical_formula_structural       Cd4H32C48N8O16
_chemical_formula_sum              "Cd4 H32 C48 N8 O16"
_cell_length_a       10.081983036826276
_cell_length_b       10.212258903
_cell_length_c       12.7326
_cell_angle_alpha    90.0
_cell_angle_beta     105.1271252298799
_cell_angle_gamma    90.0

_space_group_name_H-M_alt    "P 1"
_space_group_IT_number       1

loop_
  _space_group_symop_operation_xyz
  'x, y, z'

loop_
  _atom_site_type_symbol
  _atom_site_label
  _atom_site_symmetry_multiplicity
  _atom_site_fract_x
  _atom_site_fract_y
  _atom_site_fract_z
  _atom_site_occupancy
  Cd  Cd1       1.0  0.4028200302462537  0.13106502809156237  0.06109463328606782  1.0000
  Cd  Cd2       1.0  0.9028193011014167  0.3689350256183985  0.5610948753114684  1.0000
  Cd  Cd3       1.0  0.5971815938772522  0.8689350793283523  0.938905702315864  1.0000
  Cd  Cd4       1.0  0.0971812955510316  0.6310650818015232  0.4389052479782406  1.0000
  H   H1        1.0  0.045259072853760095  0.146213488532041  0.4222136149151794  1.0000
  H   H2        1.0  0.5452593711799878  0.35378656517792  0.9222132838672576  1.0000
  H   H3        1.0  0.954741523798681  0.8537866188878809  0.5777865083745297  1.0000
  H   H4        1.0  0.45474122547246043  0.6462135422419948  0.07778683942245115  1.0000
  H   H5        1.0  0.1468965104049929  0.2952324288521808  0.7354323694956759  1.0000
  H   H6        1.0  0.6468968087312135  0.2047676248577801  0.23543203844775454  1.0000
  H   H7        1.0  0.8531051137185202  0.7047657201371675  0.2645687514918079  1.0000
  H   H8        1.0  0.3531058428633571  0.7952344409927078  0.7645685094664002  1.0000
  H   H9        1.0  0.5289523779392269  0.19626901540962646  0.44906688310964427  1.0000
  H   H10       1.0  0.028953107084071  0.30373397594618007  0.9490674264697887  1.0000
  H   H11       1.0  0.47104719124215677  0.8037301127950086  0.5509330278678348  1.0000
  H   H12       1.0  0.9710454346262479  0.6962661314737346  0.050932272195467455  1.0000
  H   H13       1.0  0.3823918505718352  0.9715127763834345  0.664924428849801  1.0000
  H   H14       1.0  0.882392148898056  0.5284864055311544  0.16492409780188672  1.0000
  H   H15       1.0  0.617608746080613  0.0284843933906274  0.335075694439908  1.0000
  H   H16       1.0  0.1176084477543853  0.4715156603193265  0.8350760254878224  1.0000
  H   H17       1.0  0.23508332427058318  0.9801337877420622  0.47014408502498367  1.0000
  H   H18       1.0  0.7350836225968109  0.5198663733878135  0.9701429685915242  1.0000
  H   H19       1.0  0.764917272381858  0.019866319677852597  0.529856038264725  1.0000
  H   H20       1.0  0.2649169740556374  0.4801337340321084  0.029856369312639696  1.0000
  H   H21       1.0  0.1886056707361163  0.4397763553253284  0.2858122775995042  1.0000
  H   H22       1.0  0.6886069965334016  0.060223698384625386  0.7858121588638127  1.0000
  H   H23       1.0  0.8113938984452673  0.5602237520945863  0.7141876333779819  1.0000
  H   H24       1.0  0.311392572647982  0.9397764090352894  0.21418696672812837  1.0000
  H   H25       1.0  0.3486959370609952  0.48376466430445925  0.6188109653461851  1.0000
  H   H26       1.0  0.8486962353872158  0.0162373478360678  0.11880984891271847  1.0000
  H   H27       1.0  0.6513026046493238  0.5162364223307421  0.38118873331907105  1.0000
  H   H28       1.0  0.15130333379416777  0.9837617803685674  0.8811892766792154  1.0000
  H   H29       1.0  0.5266457054028137  0.30942615439094817  0.6235317309404066  1.0000
  H   H30       1.0  0.026645407076586  0.1905738993190127  0.1235312766027832  1.0000
  H   H31       1.0  0.47335283630751224  0.6905739530289664  0.3764679677248494  1.0000
  H   H32       1.0  0.9733541621047976  0.8094271873161887  0.8764686343747028  1.0000
  C   C1        1.0  0.3419022983924833  0.13024640411430247  0.8336607107812738  1.0000
  C   C2        1.0  0.841902596718711  0.3697536495956584  0.33366195050444236  1.0000
  C   C3        1.0  0.6580972707889003  0.8697527240903327  0.16633920019621226  1.0000
  C   C4        1.0  0.1580979999337373  0.6302464578242564  0.6663389581708116  1.0000
  C   C5        1.0  0.2735117694975742  0.13269346310853078  0.7141732403959791  1.0000
  C   C6        1.0  0.773514122765924  0.3673065906014301  0.21417490474360074  1.0000
  C   C7        1.0  0.7264857447416873  0.8673046858808177  0.2858254605715089  1.0000
  C   C8        1.0  0.22648647388652418  0.6326954752490579  0.7858260039316534  1.0000
  C   C9        1.0  0.1142147108333234  0.14124592939729297  0.5038766666941257  1.0000
  C   C10       1.0  0.614215009159544  0.358754124312668  0.0038763356462042146  1.0000
  C   C11       1.0  0.8857858858191249  0.8587541780226218  0.49612345659559043  1.0000
  C   C12       1.0  0.3857855874929044  0.6412459831072468  0.996123787643505  1.0000
  C   C13       1.0  0.1692347587855139  0.22465940413300697  0.6783860596195836  1.0000
  C   C14       1.0  0.6692360845827992  0.2753416287922335  0.178385940883885  1.0000
  C   C15       1.0  0.8307648103958698  0.7753387448563416  0.32161463674344765  1.0000
  C   C16       1.0  0.3307655395407068  0.7246604370582546  0.821614394718047  1.0000
  C   C17       1.0  0.356037217806076  0.24651451005227185  0.24746536295964464  1.0000
  C   C18       1.0  0.856036488661239  0.2534835852271158  0.7474648195995001  1.0000
  C   C19       1.0  0.6439633788463723  0.7534855973676428  0.7525347603300643  1.0000
  C   C20       1.0  0.143962053049087  0.7465145637622328  0.25253409368021096  1.0000
  C   C21       1.0  0.3579688634045013  0.3089199000892222  0.35463060642020133  1.0000
  C   C22       1.0  0.8579671067885997  0.19108211205130488  0.8546306361333789  1.0000
  C   C23       1.0  0.6420307057768824  0.6910802073306996  0.6453685191717325  1.0000
  C   C24       1.0  0.1420314349217193  0.8089170161533232  0.145368277146332  1.0000
  C   C25       1.0  0.4537116994673411  0.2721278442307806  0.45097152336644086  1.0000
  C   C26       1.0  0.9537119977935687  0.227875147125026  0.9509719777040713  1.0000
  C   C27       1.0  0.5462878697140425  0.727872263189134  0.5490283876110382  1.0000
  C   C28       1.0  0.0462865439167572  0.7721249602948888  0.049027720961184684  1.0000
  C   C29       1.0  0.30029383022553446  0.0434330939132082  0.638935965180849  1.0000
  C   C30       1.0  0.8002951560228269  0.45656695979675277  0.1389358464451576  1.0000
  C   C31       1.0  0.6997057389558492  0.9565650550761404  0.36106394579663714  1.0000
  C   C32       1.0  0.1997054406296215  0.5434341268384485  0.8610642768445513  1.0000
  C   C33       1.0  0.21951713766624437  0.048825632481126  0.5315412236598361  1.0000
  C   C34       1.0  0.7195174359924721  0.4511734420135483  0.031540892611921806  1.0000
  C   C35       1.0  0.7804824315151393  0.9511725165082225  0.46845790193209774  1.0000
  C   C36       1.0  0.2804831606599762  0.5488276446216531  0.9684584452922421  1.0000
  C   C37       1.0  0.2638638162160731  0.407541567397729  0.3593632360321237  1.0000
  C   C38       1.0  0.7638651420133584  0.0924594655275186  0.8593631172964322  1.0000
  C   C39       1.0  0.7361357529653105  0.5924585400221929  0.6406366749453554  1.0000
  C   C40       1.0  0.2361344271680252  0.9075396626771166  0.140636793681054  1.0000
  C   C41       1.0  0.35401309981197926  0.4319622173605565  0.5451904564453685  1.0000
  C   C42       1.0  0.8540133981381999  0.0680388155646838  0.04518776924081179  1.0000
  C   C43       1.0  0.6459864693694044  0.5680378900593581  0.4548102399176626  1.0000
  C   C44       1.0  0.1459851435721191  0.9319612918552307  0.9548111440388993  1.0000
  C   C45       1.0  0.4520297293372266  0.3350698442432574  0.5477054755653653  1.0000
  C   C46       1.0  0.9520279727213179  0.1649341263278359  0.047706290664081066  1.0000
  C   C47       1.0  0.547969839844157  0.6649302631766645  0.4522944354121208  1.0000
  C   C48       1.0  0.0479715964600658  0.8350659810920789  0.9522936203133978  1.0000
  N   N1        1.0  0.0898646741114604  0.2283187316485922  0.5761859208829277  1.0000
  N   N2        1.0  0.589864972437681  0.27168132206136864  0.07618558983501339  1.0000
  N   N3        1.0  0.9101359225409879  0.771680396556043  0.42381498779232624  1.0000
  N   N4        1.0  0.4101366516858249  0.7283197645738325  0.9238155311524708  1.0000
  N   N5        1.0  0.2616321490672533  0.467518503530833  0.4527525250551676  1.0000
  N   N6        1.0  0.7616314199224092  0.0324844878249735  0.9527519816950231  1.0000
  N   N7        1.0  0.7383674201141304  0.5324816038890816  0.5472481713078635  1.0000
  N   N8        1.0  0.2383681492589744  0.9675156195949413  0.047247929282463005  1.0000
  O   O1        1.0  0.4303377602553269  0.1441757415264391  0.25054843084753736  1.0000
  O   O2        1.0  0.9303390860526122  0.35582333296823515  0.7505483121118458  1.0000
  O   O3        1.0  0.5696618089260568  0.8558253451087621  0.7494506947444037  1.0000
  O   O4        1.0  0.0696615105998362  0.6441748160211134  0.24945102579231807  1.0000
  O   O5        1.0  0.3048506643899103  0.21851678665769467  0.8913611631965563  1.0000
  O   O6        1.0  0.8048509627161309  0.2814832670522662  0.39136161753418713  1.0000
  O   O7        1.0  0.6951489047914734  0.7814823415469405  0.10863796239537747  1.0000
  O   O8        1.0  0.19514963393631038  0.718517819582935  0.6086385057555217  1.0000
  O   O9        1.0  0.2846588030599762  0.2972975938857303  0.1600026826758736  1.0000
  O   O10       1.0  0.7846591013862039  0.202701480608944  0.6600031370135041  1.0000
  O   O11       1.0  0.7153407661214074  0.7027025135341916  0.8399964429160603  1.0000
  O   O12       1.0  0.21533944032411506  0.7972976475956841  0.339995776266214  1.0000
  O   O13       1.0  0.4257203052982348  0.0394036230203483  0.8738744938537835  1.0000
  O   O14       1.0  0.9257206036244554  0.4605964306896126  0.3738749481914141  1.0000
  O   O15       1.0  0.5742802913542135  0.9605955051842868  0.1261256294359256  1.0000
  O   O16       1.0  0.0742799930279858  0.5394046559455886  0.6261259604838401  1.0000
