data_image0
_chemical_formula_structural       Cd3H30C28N20O4
_chemical_formula_sum              "Cd3 H30 C28 N20 O4"
_cell_length_a       6.962482603444346
_cell_length_b       12.075282200073874
_cell_length_c       12.766489987326576
_cell_angle_alpha    86.27891443823978
_cell_angle_beta     73.3153862266083
_cell_angle_gamma    82.47598533133163

_space_group_name_H-M_alt    "P 1"
_space_group_IT_number       1

loop_
  _space_group_symop_operation_xyz
  'x, y, z'

loop_
  _atom_site_type_symbol
  _atom_site_label
  _atom_site_symmetry_multiplicity
  _atom_site_fract_x
  _atom_site_fract_y
  _atom_site_fract_z
  _atom_site_occupancy
  Cd  Cd1       1.0  2.033755748694575e-06  6.000224320012943e-08  0.9999994594439415  1.0000
  Cd  Cd2       1.0  0.562867116611713  0.8765658850628951  0.9305802268458121  1.0000
  Cd  Cd3       1.0  0.437136855491012  0.12343431710035449  0.06942008540283237  1.0000
  H   H1        1.0  0.7251651477353604  0.0770035216547384  0.8782772332840735  1.0000
  H   H2        1.0  0.27483048252284453  0.923000860776007  0.12172019168087896  1.0000
  H   H3        1.0  0.28589047008956914  0.705306040246178  0.024207355282058505  1.0000
  H   H4        1.0  0.7141264538859602  0.2946900357521827  0.9757896642939627  1.0000
  H   H5        1.0  0.5152563634078292  0.6584475333562522  0.015165459966404176  1.0000
  H   H6        1.0  0.48475334869150544  0.3415535028011831  0.98483707743879  1.0000
  H   H7        1.0  0.2654432439998686  0.1932924534948981  0.2819761727936765  1.0000
  H   H8        1.0  0.7345599932129474  0.8067044065136668  0.7180236466686338  1.0000
  H   H9        1.0  0.07507762013351278  0.1444575144259019  0.2461692244087246  1.0000
  H   H10       1.0  0.9249304400978177  0.855544363318849  0.7538319493873045  1.0000
  H   H11       1.0  0.8278216840736761  0.22274594137519443  0.7834594575137928  1.0000
  H   H12       1.0  0.17217540156321576  0.7772526413684632  0.2165310106178708  1.0000
  H   H13       1.0  0.5733897911672443  0.24609676042639717  0.8194686400777795  1.0000
  H   H14       1.0  0.426599116112655  0.7539109496168876  0.18052883351750637  1.0000
  H   H15       1.0  0.20353650195399098  0.579927910769655  0.20660474092525755  1.0000
  H   H16       1.0  0.7964581407149183  0.42007394301276685  0.7933953189289937  1.0000
  H   H17       1.0  0.325960906183809  0.3880493552073503  0.2553937766023181  1.0000
  H   H18       1.0  0.6740360572394195  0.6119549770071588  0.7446112842571465  1.0000
  H   H19       1.0  0.8395199712308496  0.2644654534949993  0.16825355510960796  1.0000
  H   H20       1.0  0.1604810592124792  0.7355338585121557  0.8317535145520836  1.0000
  H   H21       1.0  0.7199194297740945  0.45489571795319966  0.11748757969554892  1.0000
  H   H22       1.0  0.28008047588683377  0.5451019176487294  0.8825197494640803  1.0000
  H   H23       1.0  0.013011140500914595  0.09219811186954982  0.42523828766923083  1.0000
  H   H24       1.0  0.986991886229511  0.9078129532231076  0.574762364959021  1.0000
  H   H25       1.0  0.018484470615710794  0.13623254194795462  0.6100889880171465  1.0000
  H   H26       1.0  0.9814975816787026  0.8637784514373124  0.38991482342789396  1.0000
  H   H27       1.0  0.36962537523874767  0.20730610171874278  0.705666048205991  1.0000
  H   H28       1.0  0.6303656589842388  0.7926790634255525  0.29432840310688135  1.0000
  H   H29       1.0  0.36521310972353405  0.16312554057302717  0.5194768067833095  1.0000
  H   H30       1.0  0.634782808913954  0.83685797418768  0.4805162153559834  1.0000
  C   C1        1.0  0.899591142018153  0.6425397854339822  0.11480101627304143  1.0000
  C   C2        1.0  0.10041294559085398  0.35746045546599703  0.885193792908602  1.0000
  C   C3        1.0  0.9554967684908746  0.5314683697319111  0.1559855868763762  1.0000
  C   C4        1.0  0.04449390674163562  0.46853095069209877  0.8440167729742853  1.0000
  C   C5        1.0  0.12386191888828078  0.5108016907929099  0.19749204667881767  1.0000
  C   C6        1.0  0.87613168150272  0.4891985142533812  0.8025043419112237  1.0000
  C   C7        1.0  0.19234891364141052  0.40315040547641695  0.22580424197536078  1.0000
  C   C8        1.0  0.8076501740468129  0.5968514470704206  0.7741974994468565  1.0000
  C   C9        1.0  0.09393851227898856  0.3124881149936201  0.21321066540046724  1.0000
  C   C10       1.0  0.9060636924494361  0.6875128900202226  0.7867937863060064  1.0000
  C   C11       1.0  0.919305002874964  0.3334564385555723  0.17725664935232285  1.0000
  C   C12       1.0  0.08068962847897149  0.6665445131793888  0.8227528612651511  1.0000
  C   C13       1.0  0.8514865952200877  0.44135762517453264  0.14881945625439394  1.0000
  C   C14       1.0  0.14852023142992718  0.5586367492206747  0.8511783904457602  1.0000
  C   C15       1.0  0.6901998503677689  0.0993797197581543  0.3484473866893153  1.0000
  C   C16       1.0  0.30980524190974995  0.9006154685552802  0.651553027163814  1.0000
  C   C17       1.0  0.6888280502227814  0.1252725607735172  0.458545511443205  1.0000
  C   C18       1.0  0.31116575855083534  0.8747259176513182  0.5414587725392863  1.0000
  C   C19       1.0  0.871739508857054  0.11891710038822367  0.485847099015885  1.0000
  C   C20       1.0  0.12826182321005314  0.8810890014827137  0.5141454587996748  1.0000
  C   C21       1.0  0.8755280827991001  0.14403809233589024  0.589595373119586  1.0000
  C   C22       1.0  0.12446385901652224  0.8559687425052971  0.4104087415220903  1.0000
  C   C23       1.0  0.6950713768349888  0.17661826569448646  0.6701000947381175  1.0000
  C   C24       1.0  0.3049313002904341  0.8233811012389863  0.3298996739219504  1.0000
  C   C25       1.0  0.5110082273875918  0.1828495417891602  0.64355107838972  1.0000
  C   C26       1.0  0.48898705845152773  0.8171422459687606  0.3564541272178445  1.0000
  C   C27       1.0  0.5084060883240012  0.1578308924923491  0.5393164469529665  1.0000
  C   C28       1.0  0.4915834034082067  0.8421533544148899  0.46068925305775094  1.0000
  N   N1        1.0  0.01753779458254454  0.7267206605433928  0.09785847100640407  1.0000
  N   N2        1.0  0.9824642729527755  0.2732811967135405  0.9021436053087085  1.0000
  N   N3        1.0  0.9203649438695934  0.8115296000919872  0.05337449761669425  1.0000
  N   N4        1.0  0.07963757956182597  0.18847061355076283  0.9466236818044321  1.0000
  N   N5        1.0  0.7517021418330643  0.7812650145209832  0.0441385152231177  1.0000
  N   N6        1.0  0.24830056829415523  0.2187343634801309  0.9558596811320896  1.0000
  N   N7        1.0  0.732217778317981  0.6757440475766856  0.08197910129764095  1.0000
  N   N8        1.0  0.2677860400907406  0.3242570012958339  0.9180196217120622  1.0000
  N   N9        1.0  0.17730000786966826  0.2026127620298936  0.22891434390470516  1.0000
  N   N10       1.0  0.8227047321247483  0.7973907933556745  0.7710848888254133  1.0000
  N   N11       1.0  0.8577754832804702  0.0561376484960689  0.27171503418299636  1.0000
  N   N12       1.0  0.14222821443603814  0.9438642581533613  0.7282805272829123  1.0000
  N   N13       1.0  0.7982496032514206  0.0489554141022523  0.18213935434263817  1.0000
  N   N14       1.0  0.20175331007249034  0.9510431337910462  0.8178580727942234  1.0000
  N   N15       1.0  0.6038175065500653  0.08537171954768749  0.20338954561895403  1.0000
  N   N16       1.0  0.3961865480571518  0.9146285102846577  0.7966068358675429  1.0000
  N   N17       1.0  0.5305566688715116  0.11795131324849713  0.30675138973309396  1.0000
  N   N18       1.0  0.46945152336700596  0.8820506087668035  0.6932434948435073  1.0000
  N   N19       1.0  0.6982314407107922  0.1977786736568987  0.7756376254642845  1.0000
  N   N20       1.0  0.3017581308478228  0.8022256661507469  0.22436384662946554  1.0000
  O   O1        1.0  0.7113944780900924  0.030640692335104802  0.9463643798011177  1.0000
  O   O2        1.0  0.2886035554269241  0.9693661961968232  0.05363411540690776  1.0000
  O   O3        1.0  0.4251940171017452  0.6968954008239336  0.973537077522522  1.0000
  O   O4        1.0  0.5748245633493879  0.30310652384214626  0.026460944560248802  1.0000
