data_image0
_chemical_formula_structural       Cu4H32C36S8Br4N16
_chemical_formula_sum              "Cu4 H32 C36 S8 Br4 N16"
_cell_length_a       7.451415159398046
_cell_length_b       8.393932319492416
_cell_length_c       19.978273994140828
_cell_angle_alpha    89.9997494432954
_cell_angle_beta     89.99979114678958
_cell_angle_gamma    110.23960219509877

_space_group_name_H-M_alt    "P 1"
_space_group_IT_number       1

loop_
  _space_group_symop_operation_xyz
  'x, y, z'

loop_
  _atom_site_type_symbol
  _atom_site_label
  _atom_site_symmetry_multiplicity
  _atom_site_fract_x
  _atom_site_fract_y
  _atom_site_fract_z
  _atom_site_occupancy
  Cu  Cu1       1.0  0.9543458389755843  0.4127353299832778  0.42788984378908185  1.0000
  Cu  Cu2       1.0  0.04562553294865521  0.08726398425570646  0.9278888639224194  1.0000
  Cu  Cu3       1.0  0.045649594724160754  0.5872577503383031  0.5721099702175965  1.0000
  Cu  Cu4       1.0  0.9543524219737382  0.912742171796012  0.07212546585360263  1.0000
  H   H1        1.0  0.9699668538956132  0.8096726408895238  0.3277587346979162  1.0000
  H   H2        1.0  0.03007991539070092  0.6903541871120711  0.8277505983090665  1.0000
  H   H3        1.0  0.030057833236938315  0.19034934791651645  0.6722435819842264  1.0000
  H   H4        1.0  0.9699165550957504  0.3096414322782409  0.17225071732605102  1.0000
  H   H5        1.0  0.7257974472247498  0.8019529372337787  0.3288866284395483  1.0000
  H   H6        1.0  0.27423967604760685  0.6980535818526192  0.8288771535991944  1.0000
  H   H7        1.0  0.27422094492073523  0.1980602095505404  0.6711151877103136  1.0000
  H   H8        1.0  0.7257586459191714  0.3019432846826291  0.17112616420862994  1.0000
  H   H9        1.0  0.2614344699163312  0.8246827119585022  0.40160290988183084  1.0000
  H   H10       1.0  0.7385669466208498  0.6752873927976283  0.9016058691544376  1.0000
  H   H11       1.0  0.7385600748805672  0.1753180527355127  0.5983979052065964  1.0000
  H   H12       1.0  0.2614241914601294  0.324708316092469  0.09839744865912083  1.0000
  H   H13       1.0  0.24483268865366628  0.0875130754651252  0.4602597457628976  1.0000
  H   H14       1.0  0.7551417068467144  0.4124549657806114  0.9602647953905862  1.0000
  H   H15       1.0  0.7551711877952273  0.9124875325463223  0.5397445731256385  1.0000
  H   H16       1.0  0.24484861654887885  0.5875420350415653  0.039737020791221815  1.0000
  H   H17       1.0  0.5542144834441063  0.33642892230992777  0.47064912167276435  1.0000
  H   H18       1.0  0.44574315161329997  0.16354433861312864  0.9706474841876872  1.0000
  H   H19       1.0  0.44579013351796715  0.6635767862553268  0.5293536955798575  1.0000
  H   H20       1.0  0.5542482827576621  0.8364488088084486  0.02935683471526571  1.0000
  H   H21       1.0  0.5195575417855879  0.9616616513205616  0.274058574409665  1.0000
  H   H22       1.0  0.48045167323576987  0.5383245281356112  0.774051590907597  1.0000
  H   H23       1.0  0.4804474462390544  0.038312095018106604  0.7259347325379368  1.0000
  H   H24       1.0  0.5195716803472055  0.46172049147072874  0.22594622086281657  1.0000
  H   H25       1.0  0.6229893738717892  0.018143668802785805  0.15182549941398094  1.0000
  H   H26       1.0  0.3770263802967122  0.4818263085344015  0.6518219279166362  1.0000
  H   H27       1.0  0.37701465107780785  0.981844154394196  0.8481658053477193  1.0000
  H   H28       1.0  0.6229731263900006  0.5181833205604179  0.3481793877049385  1.0000
  H   H29       1.0  0.3696054626071543  0.021536456702641305  0.06908228092713391  1.0000
  H   H30       1.0  0.6304074304466738  0.4784081170404946  0.5690758753815004  1.0000
  H   H31       1.0  0.6303801952173913  0.9784491182791799  0.9309165320047302  1.0000
  H   H32       1.0  0.3695847449309255  0.5215671225550765  0.43092644136072533  1.0000
  C   C1        1.0  0.8737575728012814  0.8793836728063412  0.3164879978915566  1.0000
  C   C2        1.0  0.12626346072802627  0.6206258813395567  0.8164823510415576  1.0000
  C   C3        1.0  0.12625978254926912  0.12062693490096174  0.6835133177173492  1.0000
  C   C4        1.0  0.873728492058916  0.3793685356391522  0.18351996568503645  1.0000
  C   C5        1.0  0.7120839089898611  0.0647794927614456  0.3947658080396722  1.0000
  C   C6        1.0  0.2879095589079839  0.4352238422776083  0.8947684382755559  1.0000
  C   C7        1.0  0.2879201896097002  0.9352249463004867  0.6052325043206752  1.0000
  C   C8        1.0  0.7120762467922078  0.5647719561371009  0.10523387845398705  1.0000
  C   C9        1.0  0.3889951662617294  0.9368545328931933  0.4089056659488721  1.0000
  C   C10       1.0  0.6109939098004133  0.5631348298664138  0.9089084788930182  1.0000
  C   C11       1.0  0.6110040441473431  0.0631576576825665  0.5910931469520906  1.0000
  C   C12       1.0  0.38899241431986553  0.43686223810956903  0.09109133511643823  1.0000
  C   C13       1.0  0.3785078631350132  0.08076594411125632  0.4409486849171459  1.0000
  C   C14       1.0  0.6214741814996216  0.4192137976542797  0.9409544017240211  1.0000
  C   C15       1.0  0.6214893478975229  0.919234775865988  0.5590471247321391  1.0000
  C   C16       1.0  0.3785169566142629  0.580781911268936  0.05904491173960482  1.0000
  C   C17       1.0  0.5481134776252006  0.21734943137622056  0.4471196635447115  1.0000
  C   C18       1.0  0.4518551346549274  0.28263043213728883  0.947121826316391  1.0000
  C   C19       1.0  0.4518847701775925  0.782653827653192  0.552879649907972  1.0000
  C   C20       1.0  0.5481333372356546  0.7173653215151109  0.05288099095515972  1.0000
  C   C21       1.0  0.11825444820257765  0.9529003027564968  0.20752357114249528  1.0000
  C   C22       1.0  0.8817857804235699  0.5471043703089793  0.7075225466241906  1.0000
  C   C23       1.0  0.8817643886636688  0.0470974976744643  0.7924747412135178  1.0000
  C   C24       1.0  0.11821194897559202  0.45289761917572247  0.2924772673736272  1.0000
  C   C25       1.0  0.4213079361611919  0.969982476055769  0.23482951828740545  1.0000
  C   C26       1.0  0.5787082184966366  0.5300131942739627  0.7348259216256994  1.0000
  C   C27       1.0  0.5787043836742498  0.030002651410612195  0.7651612859272563  1.0000
  C   C28       1.0  0.4212998788930167  0.4700141860222617  0.265173892344329  1.0000
  C   C29       1.0  0.4779582475691628  0.9994797811944666  0.16828617035896806  1.0000
  C   C30       1.0  0.5220469289955574  0.5005005752422491  0.668289204659594  1.0000
  C   C31       1.0  0.5220399266124574  0.0005068619989713968  0.8317026316888847  1.0000
  C   C32       1.0  0.47795813216915667  0.4995127953246268  0.33171361258643384  1.0000
  C   C33       1.0  0.33954238783289264  0.002745605698784499  0.12246680796640425  1.0000
  C   C34       1.0  0.6604780701710737  0.49722862108935584  0.6224663380161533  1.0000
  C   C35       1.0  0.6604628959965098  0.9972485875594617  0.8775269995079145  1.0000
  C   C36       1.0  0.339518696613581  0.5027644368407211  0.37753497762087573  1.0000
  S   S1        1.0  0.9378485515106546  0.06591480232886943  0.36926845938742764  1.0000
  S   S2        1.0  0.062154740834643014  0.4341054137704603  0.8692653851556574  1.0000
  S   S3        1.0  0.06215036257964373  0.9340999496864274  0.6307328562303244  1.0000
  S   S4        1.0  0.9378427664549703  0.5658927447051525  0.13073542993294046  1.0000
  S   S5        1.0  0.8790203755660356  0.9192513971198794  0.22731809633617678  1.0000
  S   S6        1.0  0.12098605248360168  0.5807432845998903  0.7273105199411776  1.0000
  S   S7        1.0  0.1209845376983623  0.08075174998928251  0.7726842203746147  1.0000
  S   S8        1.0  0.8790226379876813  0.41925596438775875  0.2726897945953511  1.0000
  Br  Br1       1.0  0.8667959537770714  0.6552110548456229  0.46888823920165396  1.0000
  Br  Br2       1.0  0.13322442673634066  0.8447972256222939  0.9688867190715134  1.0000
  Br  Br3       1.0  0.13320577491385427  0.3447908675018213  0.5311115747935633  1.0000
  Br  Br4       1.0  0.8667644156452283  0.15518957410468207  0.031116598750898616  1.0000
  N   N1        1.0  0.5551781207691917  0.9282144432594068  0.3863450550818258  1.0000
  N   N2        1.0  0.44483309978059543  0.5717825965821748  0.8863505774856225  1.0000
  N   N3        1.0  0.4448282735421287  0.07179890497806703  0.6136517556384364  1.0000
  N   N4        1.0  0.5551573720128786  0.4282016193220458  0.11365073816287466  1.0000
  N   N5        1.0  0.7160375237731884  0.21283185407988733  0.4237311487805756  1.0000
  N   N6        1.0  0.28394517384418094  0.2871622269700112  0.9237330268490072  1.0000
  N   N7        1.0  0.28396139083523764  0.7871598895804228  0.5762666630499214  1.0000
  N   N8        1.0  0.7160455937293762  0.7128424358289466  0.07627179258864913  1.0000
  N   N9        1.0  0.15736876112914908  0.9754724744832973  0.14076750948171932  1.0000
  N   N10       1.0  0.8426546421565108  0.5245157082291814  0.6407675752344419  1.0000
  N   N11       1.0  0.8426335602075382  0.024524324993358007  0.8592262979924289  1.0000
  N   N12       1.0  0.1573522710395566  0.4754759011607705  0.35922973604711234  1.0000
  N   N13       1.0  0.24261287602687545  0.9496375586558516  0.2548914469693742  1.0000
  N   N14       1.0  0.7573972461094769  0.5503668233252484  0.7548815726794731  1.0000
  N   N15       1.0  0.7573930745341286  0.05034511915877721  0.7451098686700919  1.0000
  N   N16       1.0  0.24260907396794107  0.4496529173360103  0.24511974292924785  1.0000
