data_image0
_chemical_formula_structural       H24Pb2C44N8O8
_chemical_formula_sum              "H24 Pb2 C44 N8 O8"
_cell_length_a       7.348358043595941
_cell_length_b       12.061562288884373
_cell_length_c       12.549724891461507
_cell_angle_alpha    113.60054438950395
_cell_angle_beta     100.1610682146025
_cell_angle_gamma    91.82013993208811

_space_group_name_H-M_alt    "P 1"
_space_group_IT_number       1

loop_
  _space_group_symop_operation_xyz
  'x, y, z'

loop_
  _atom_site_type_symbol
  _atom_site_label
  _atom_site_symmetry_multiplicity
  _atom_site_fract_x
  _atom_site_fract_y
  _atom_site_fract_z
  _atom_site_occupancy
  H   H1        1.0  0.748979468015527  0.17002583254223677  0.1820130593526841  1.0000
  H   H2        1.0  0.25110282500091324  0.8299630492025185  0.8179811332571914  1.0000
  H   H3        1.0  0.8018252022884341  0.045888426065069196  0.9760735823528818  1.0000
  H   H4        1.0  0.19840218640548102  0.9541205841337965  0.023934091772218544  1.0000
  H   H5        1.0  0.8204825742130311  0.15142709028792464  0.8402979774197378  1.0000
  H   H6        1.0  0.1795814933038216  0.8485642966020847  0.15968448001482463  1.0000
  H   H7        1.0  0.6468473951702974  0.7326973466894057  0.37571560842704327  1.0000
  H   H8        1.0  0.3529466713690823  0.26724566010361167  0.6242273167442107  1.0000
  H   H9        1.0  0.6651618220424353  0.8583917357187759  0.2581329687067964  1.0000
  H   H10       1.0  0.33497645764954603  0.14161137430813397  0.7418928810628742  1.0000
  H   H11       1.0  0.7213965884464174  0.7537796177193313  0.0489277879605082  1.0000
  H   H12       1.0  0.2787595638393086  0.24623644608507075  0.9511156692116813  1.0000
  H   H13       1.0  0.8211889877428504  0.33983420372976514  0.6234216226432991  1.0000
  H   H14       1.0  0.1788078012041581  0.6601685126176874  0.3765603118747832  1.0000
  H   H15       1.0  0.8040285462904748  0.5678580819846458  0.7070702612506922  1.0000
  H   H16       1.0  0.19582605150635146  0.4321298904337424  0.2928885316306377  1.0000
  H   H17       1.0  0.5579324093706289  0.09050168511168268  0.3867356225869756  1.0000
  H   H18       1.0  0.44214516395911113  0.9095885366817665  0.6134658911555844  1.0000
  H   H19       1.0  0.40818787945767804  0.8945158430778262  0.37472483763296777  1.0000
  H   H20       1.0  0.5919266723250373  0.1055724583486466  0.6254312078076865  1.0000
  H   H21       1.0  0.07203696749770927  0.8707258414117899  0.37310474172666347  1.0000
  H   H22       1.0  0.9279848864624825  0.12926317416182795  0.6268429706680223  1.0000
  H   H23       1.0  0.88426544783794  0.04397191343765169  0.3864136316989715  1.0000
  H   H24       1.0  0.11571754673467174  0.9560053784587547  0.6134601680225625  1.0000
  Pb  Pb1       1.0  0.714112991800768  0.44735374520890026  0.3886191983383753  1.0000
  Pb  Pb2       1.0  0.2858020565715477  0.5526665281971359  0.6113593907535773  1.0000
  C   C1        1.0  0.7578303570761593  0.21122670199606114  0.11953641351097842  1.0000
  C   C2        1.0  0.2422076724650069  0.7887572152269297  0.8804410072684445  1.0000
  C   C3        1.0  0.7874751074095484  0.14268648639607304  0.004936673454700658  1.0000
  C   C4        1.0  0.2126528851251521  0.8573045228579301  0.9950581796488293  1.0000
  C   C5        1.0  0.7974517190232789  0.20026829979407523  0.9299936102126337  1.0000
  C   C6        1.0  0.20257661620644277  0.7997237434029283  0.06998769399348942  1.0000
  C   C7        1.0  0.7756324991063012  0.3250194412053131  0.9699549939024834  1.0000
  C   C8        1.0  0.22433851039551908  0.6749594426205545  0.030016476016726194  1.0000
  C   C9        1.0  0.746988171792829  0.38751139681027513  0.08720509963137595  1.0000
  C   C10       1.0  0.2529290364863002  0.6124589076430026  0.9127593775857504  1.0000
  C   C11       1.0  0.7252003997591672  0.5173410170294018  0.1322915884458665  1.0000
  C   C12       1.0  0.2747217284186476  0.4826238983607424  0.8676752307099845  1.0000
  C   C13       1.0  0.6744072288759356  0.6926345486064702  0.286034376894264  1.0000
  C   C14       1.0  0.3254811643339793  0.30733646359723815  0.713929547177031  1.0000
  C   C15       1.0  0.6837289020763889  0.7620513870208395  0.2197644293044262  1.0000
  C   C16       1.0  0.3163159318927882  0.23794380220952144  0.7802569336261342  1.0000
  C   C17       1.0  0.7141040855923252  0.7054131173522862  0.10540462712744156  1.0000
  C   C18       1.0  0.2859845864724946  0.29458590418396097  0.8946051341186133  1.0000
  C   C19       1.0  0.7346450436420114  0.5803139869628068  0.05894191515819353  1.0000
  C   C20       1.0  0.2653178037101966  0.41966930840084143  0.9410209864471781  1.0000
  C   C21       1.0  0.7636396797633369  0.5157679172231437  0.9386981701823063  1.0000
  C   C22       1.0  0.23628811921186343  0.4842008038088037  0.061286523765843905  1.0000
  C   C23       1.0  0.7814947906361029  0.38967849323846326  0.8943061620938123  1.0000
  C   C24       1.0  0.21846450769405829  0.6103185813667479  0.10568243213277372  1.0000
  C   C25       1.0  0.8085787881234624  0.3902400560103699  0.7156430569548106  1.0000
  C   C26       1.0  0.19138817650107848  0.6097306122086436  0.28432493702887024  1.0000
  C   C27       1.0  0.7955345315374063  0.5167140686477437  0.7611078163936895  1.0000
  C   C28       1.0  0.20434900988883703  0.48328337714655567  0.23887775178175016  1.0000
  C   C29       1.0  0.40887600635080196  0.28826413266611434  0.4016403114173457  1.0000
  C   C30       1.0  0.5911534015260144  0.7117820747270612  0.5984247482223635  1.0000
  C   C31       1.0  0.3042452976340684  0.17427181692058008  0.391743878006487  1.0000
  C   C32       1.0  0.6957646619677077  0.8257631812538687  0.6082961350216962  1.0000
  C   C33       1.0  0.4097047664311546  0.07777610276326638  0.3855374397086777  1.0000
  C   C34       1.0  0.5903426334409475  0.9222606228223211  0.6145749424853121  1.0000
  C   C35       1.0  0.32648232237806246  0.9695161590704655  0.37963507300848676  1.0000
  C   C36       1.0  0.673573895657647  0.030529426027243293  0.6204431609950944  1.0000
  C   C37       1.0  0.13672395446347  0.956085058446092  0.37929258302288815  1.0000
  C   C38       1.0  0.8632751753739994  0.043914946802246384  0.6206885128940698  1.0000
  C   C39       1.0  0.0319123781911941  0.05157686323818918  0.3853459333638511  1.0000
  C   C40       1.0  0.968081769480179  0.9484037419398202  0.6145938513298786  1.0000
  C   C41       1.0  0.11341832310886699  0.16166836398322448  0.3920598316998181  1.0000
  C   C42       1.0  0.8865972558463184  0.8383390521653664  0.6079270684130262  1.0000
  C   C43       1.0  0.9946096863372844  0.2627496654368285  0.4006180519627378  1.0000
  C   C44       1.0  0.005387151976783934  0.7372512761820998  0.5993687902632487  1.0000
  N   N1        1.0  0.7396026409399711  0.32982423227304025  0.1596145459185792  1.0000
  N   N2        1.0  0.26038173784026947  0.6701455994968909  0.8403474142814175  1.0000
  N   N3        1.0  0.6953747142866857  0.5743648925976146  0.24401030708381907  1.0000
  N   N4        1.0  0.30443361268521585  0.42558094875877106  0.7559348968868065  1.0000
  N   N5        1.0  0.7730826126051582  0.5788605869504478  0.8714774655457731  1.0000
  N   N6        1.0  0.22680705597959872  0.4211212923160445  0.12848353860843528  1.0000
  N   N7        1.0  0.8034080352819118  0.3275071681769289  0.7814692050321383  1.0000
  N   N8        1.0  0.19657156298328715  0.6724716352482714  0.2184846169542779  1.0000
  O   O1        1.0  0.4305622899829373  0.2946776231612204  0.3059500407858806  1.0000
  O   O2        1.0  0.5693877939157659  0.7053989487573629  0.6941239415075201  1.0000
  O   O3        1.0  0.4858334508274069  0.3659596715642265  0.5059774414398959  1.0000
  O   O4        1.0  0.5142500298001806  0.6340279582903461  0.4940873327566634  1.0000
  O   O5        1.0  0.069917970956709  0.3640163776243951  0.40921535729840025  1.0000
  O   O6        1.0  0.9301000102846047  0.6360140072362979  0.5908076215579711  1.0000
  O   O7        1.0  0.8221036111707178  0.24297303520073396  0.3981453899525391  1.0000
  O   O8        1.0  0.1778801485820765  0.7570341443080364  0.6018387497803274  1.0000
