data_image0
_chemical_formula_structural       Co2H28C28N8Cl4
_chemical_formula_sum              "Co2 H28 C28 N8 Cl4"
_cell_length_a       7.597293848815551
_cell_length_b       8.905138989719632
_cell_length_c       10.969829117004261
_cell_angle_alpha    90.00004726915941
_cell_angle_beta     89.99990371327529
_cell_angle_gamma    97.06867865062307

_space_group_name_H-M_alt    "P 1"
_space_group_IT_number       1

loop_
  _space_group_symop_operation_xyz
  'x, y, z'

loop_
  _atom_site_type_symbol
  _atom_site_label
  _atom_site_symmetry_multiplicity
  _atom_site_fract_x
  _atom_site_fract_y
  _atom_site_fract_z
  _atom_site_occupancy
  Co  Co1       1.0  0.8094554551535823  0.1993166364232479  0.9942630255905557  1.0000
  Co  Co2       1.0  0.19054325680165357  0.8006832294313497  0.4942621883257631  1.0000
  H   H1        1.0  0.8421928355743447  0.8637756294897373  0.0265161605458317  1.0000
  H   H2        1.0  0.1578056245586268  0.13622387944204206  0.5265177261540614  1.0000
  H   H3        1.0  0.6477420078135906  0.6317024394541805  0.9012362947974709  1.0000
  H   H4        1.0  0.3522569158323989  0.3682973553879236  0.40123861895155954  1.0000
  H   H5        1.0  0.43938047239439015  0.783901852944169  0.745351634927559  1.0000
  H   H6        1.0  0.5606188059877013  0.21609782290033053  0.24535360916430454  1.0000
  H   H7        1.0  0.4872639416460629  0.18736068318595042  0.8321048065147282  1.0000
  H   H8        1.0  0.5127349759412495  0.8126379273344072  0.33210359607654993  1.0000
  H   H9        1.0  0.3752365445550011  0.04971878689541851  0.7322071897222957  1.0000
  H   H10       1.0  0.6247655595979751  0.9502820101825268  0.23220685175026295  1.0000
  H   H11       1.0  0.6531931795733854  0.9370782952646338  0.5891868670758456  1.0000
  H   H12       1.0  0.3468067809444193  0.06292352446308061  0.08918716716272002  1.0000
  H   H13       1.0  0.8548462461610241  0.037496691004122305  0.4224427328270012  1.0000
  H   H14       1.0  0.14515509832494183  0.962501988198781  0.9224430512298628  1.0000
  H   H15       1.0  0.946516494960065  0.311379983855801  0.40264027530707847  1.0000
  H   H16       1.0  0.05348621082601571  0.6886186800912457  0.9026414278315471  1.0000
  H   H17       1.0  0.628301434280054  0.39193035314453084  0.7162716298896045  1.0000
  H   H18       1.0  0.37170086951660863  0.6080715633163154  0.21627135905622913  1.0000
  H   H19       1.0  0.7686960907302803  0.6025041771155274  0.606831444967824  1.0000
  H   H20       1.0  0.23130498249018663  0.397496524395173  0.10683393208562113  1.0000
  H   H21       1.0  0.9902611397807493  0.5620962525390995  0.5903825480220917  1.0000
  H   H22       1.0  0.009737338394955898  0.43790443669432483  0.09038532478273  1.0000
  H   H23       1.0  0.6444899077208743  0.4641992823950146  0.34584746077901235  1.0000
  H   H24       1.0  0.35551161106504026  0.5357993383382863  0.8458499753028406  1.0000
  H   H25       1.0  0.7376834408395823  0.6463746679731914  0.1482637150906569  1.0000
  H   H26       1.0  0.2623150690038116  0.353627196991333  0.6482634814429389  1.0000
  H   H27       1.0  0.025252493185661286  0.8410635796529605  0.23189084725711248  1.0000
  H   H28       1.0  0.974744836877157  0.15894061238428492  0.7318896383156926  1.0000
  C   C1        1.0  0.7442761890129717  0.8686317295100282  0.9553948645787148  1.0000
  C   C2        1.0  0.2557237642459143  0.13136697498784147  0.4553971421091633  1.0000
  C   C3        1.0  0.6446980594058543  0.7525323904145296  0.8902297851259678  1.0000
  C   C4        1.0  0.35530072590766787  0.24746626447758763  0.39023111204835464  1.0000
  C   C5        1.0  0.5387285236775055  0.8258791894745487  0.8123498993140502  1.0000
  C   C6        1.0  0.4612679697673201  0.17412053779285236  0.3123501394405963  1.0000
  C   C7        1.0  0.5062894489185155  0.09791409227827332  0.7664155009742333  1.0000
  C   C8        1.0  0.4937110977705289  0.9020855995052914  0.26641528537203385  1.0000
  C   C9        1.0  0.6268832298784089  0.15854182665025013  0.6634694527767735  1.0000
  C   C10       1.0  0.3731163982209366  0.8414589182343877  0.1634684271348874  1.0000
  C   C11       1.0  0.6910211957603776  0.058859966385242005  0.5805355458005083  1.0000
  C   C12       1.0  0.3089801006829446  0.9411418465986328  0.08053557533119  1.0000
  C   C13       1.0  0.8051192918537708  0.11482974064485772  0.48729247690035765  1.0000
  C   C14       1.0  0.19488206843764994  0.8851701196101944  0.9872935955410685  1.0000
  C   C15       1.0  0.8570197182529498  0.26999912248068375  0.47630691297319333  1.0000
  C   C16       1.0  0.1429803508016505  0.7300007295272125  0.9763061644998673  1.0000
  C   C17       1.0  0.7929518423801768  0.3709777482524644  0.5580794531232344  1.0000
  C   C18       1.0  0.207048025544573  0.6290229161818034  0.05808121455103081  1.0000
  C   C19       1.0  0.6771121467432196  0.3142500100719944  0.6509542399403331  1.0000
  C   C20       1.0  0.322888826072102  0.685750725120002  0.1509549912038395  1.0000
  C   C21       1.0  0.8554030982068355  0.5380964701763631  0.5525606996061755  1.0000
  C   C22       1.0  0.14459661889728886  0.4619030584971213  0.052561509883212024  1.0000
  C   C23       1.0  0.7503233087377055  0.5562340698079781  0.3351116195028183  1.0000
  C   C24       1.0  0.24967823448100288  0.443764542729248  0.8351123736030532  1.0000
  C   C25       1.0  0.799922737900978  0.6509701755257994  0.23720307802078375  1.0000
  C   C26       1.0  0.2000777118832744  0.34902836241069934  0.7372038264975984  1.0000
  C   C27       1.0  0.9462867493865872  0.7487512971697045  0.2786056750206143  1.0000
  C   C28       1.0  0.05371294346497278  0.2512517987018512  0.7786056187306231  1.0000
  N   N1        1.0  0.7040487277238583  0.004962277444583702  0.9192153625139525  1.0000
  N   N2        1.0  0.29595147124796733  0.995037530982074  0.4192163556469737  1.0000
  N   N3        1.0  0.5768121712915573  0.9763812115804459  0.8320849663747653  1.0000
  N   N4        1.0  0.4231883893380086  0.023619661880864805  0.3320851493847172  1.0000
  N   N5        1.0  0.8636364047382871  0.5963123007221327  0.4278240403517374  1.0000
  N   N6        1.0  0.13636377464248992  0.40368751427642036  0.9278258129310333  1.0000
  N   N7        1.0  0.9854244346790677  0.7147583755263727  0.3946001545878204  1.0000
  N   N8        1.0  0.014574667449217295  0.2852425457973027  0.8946019908761259  1.0000
  Cl  Cl1       1.0  0.6113408259034829  0.36167270835152016  0.0181112555662324  1.0000
  Cl  Cl2       1.0  0.38865913297732374  0.6383279255711826  0.5181101541079514  1.0000
  Cl  Cl3       1.0  0.9107193924298612  0.13010133687866698  0.17316446343489392  1.0000
  Cl  Cl4       1.0  0.08928021360569717  0.8698994154073533  0.6731647850871028  1.0000
