data_image0
_chemical_formula_structural       Zn2H44C68N8O10
_chemical_formula_sum              "Zn2 H44 C68 N8 O10"
_cell_length_a       10.290241866479438
_cell_length_b       12.469360372249819
_cell_length_c       13.847472675095027
_cell_angle_alpha    101.57729286605198
_cell_angle_beta     106.95182260023198
_cell_angle_gamma    103.33047580703014

_space_group_name_H-M_alt    "P 1"
_space_group_IT_number       1

loop_
  _space_group_symop_operation_xyz
  'x, y, z'

loop_
  _atom_site_type_symbol
  _atom_site_label
  _atom_site_symmetry_multiplicity
  _atom_site_fract_x
  _atom_site_fract_y
  _atom_site_fract_z
  _atom_site_occupancy
  Zn  Zn1       1.0  0.245394880304346  0.5687909553648894  0.5032645577290396  1.0000
  Zn  Zn2       1.0  0.7546037214185971  0.4312082492111101  0.4967344308960404  1.0000
  H   H1        1.0  0.8061605450522507  0.7254220313472569  0.5363419271416275  1.0000
  H   H2        1.0  0.19383898719576814  0.27457975081373576  0.4636606198856655  1.0000
  H   H3        1.0  0.9900903346593708  0.6755768810914801  0.4892671899019517  1.0000
  H   H4        1.0  0.009907246039624286  0.3244249093071403  0.510731303554337  1.0000
  H   H5        1.0  0.5859619476107837  0.6876672453165754  0.5751295660235343  1.0000
  H   H6        1.0  0.41404061458247554  0.31233453129733135  0.4248743913701674  1.0000
  H   H7        1.0  0.8420872153837563  0.5209262565961408  0.26289420931367147  1.0000
  H   H8        1.0  0.15791242737994077  0.4790755328980011  0.7371033084935164  1.0000
  H   H9        1.0  0.5939834741078582  0.9118016974211399  0.89783317059414  1.0000
  H   H10       1.0  0.4060154746286742  0.08819836879424511  0.10216532775830699  1.0000
  H   H11       1.0  0.12847744050059617  0.6539529416202967  0.29862439270951313  1.0000
  H   H12       1.0  0.8715251964035744  0.3460436705383928  0.701377219910789  1.0000
  H   H13       1.0  0.48243480983413184  0.7399356600448075  0.7378120295312699  1.0000
  H   H14       1.0  0.5175631394459543  0.2600644087180015  0.26218551972569765  1.0000
  H   H15       1.0  0.12601672862174954  0.7865760826263751  0.18392344073851769  1.0000
  H   H16       1.0  0.8739832311303247  0.21341881239600013  0.8160765357760695  1.0000
  H   H17       1.0  0.726972482795695  0.4238240677195931  0.9159010864697593  1.0000
  H   H18       1.0  0.27302949588606407  0.5761759929486915  0.08409882224909641  1.0000
  H   H19       1.0  0.2172132706882124  0.3084418946891745  0.6833240344730527  1.0000
  H   H20       1.0  0.7827887237815078  0.6915581670267059  0.316675155785795  1.0000
  H   H21       1.0  0.6507126488032924  0.5213600512285552  0.7772598558812405  1.0000
  H   H22       1.0  0.3492896611041018  0.4786408700315262  0.22274028102500407  1.0000
  H   H23       1.0  0.1333178222184372  0.055795758673269795  0.6569240815640996  1.0000
  H   H24       1.0  0.86668182054526  0.9442060308208797  0.3430734362430883  1.0000
  H   H25       1.0  0.2913767722308834  0.213359048722026  0.8246492030149142  1.0000
  H   H26       1.0  0.70862349139977  0.7866418744901225  0.17535119108041647  1.0000
  H   H27       1.0  0.9463700793062488  0.1522732055597089  0.6167338325023907  1.0000
  H   H28       1.0  0.05362823277538102  0.8477277258900672  0.3832625080219358  1.0000
  H   H29       1.0  0.6904380727248097  0.0371538357604067  0.5332919326302203  1.0000
  H   H30       1.0  0.30956017620500365  0.9628470914990073  0.4667072817341591  1.0000
  H   H31       1.0  0.9777285888799485  0.23726205019559637  0.14711220694406538  1.0000
  H   H32       1.0  0.022271690538651922  0.7627388740641476  0.85288746869125  1.0000
  H   H33       1.0  0.2207769683238396  0.024442705251416896  0.8124878699309263  1.0000
  H   H34       1.0  0.779220586578802  0.9755564987292332  0.18751232497871942  1.0000
  H   H35       1.0  0.347564280408065  0.9371785652404157  0.20914613343019536  1.0000
  H   H36       1.0  0.6524342955185247  0.0628180529176063  0.7908545566482489  1.0000
  H   H37       1.0  0.5773537362422873  0.9603945147728793  0.3453028300123364  1.0000
  H   H38       1.0  0.4226445026791197  0.039603827116153005  0.6546973673453849  1.0000
  H   H39       1.0  0.6191534648477416  0.44927597737903807  0.1025719418715738  1.0000
  H   H40       1.0  0.38084583090236623  0.5507249504757254  0.8974260662082472  1.0000
  H   H41       1.0  0.751395940736174  0.16190786185322992  0.9861142001433905  1.0000
  H   H42       1.0  0.24860161416646767  0.8380913421274199  0.013885994766255268  1.0000
  H   H43       1.0  0.46465790754606934  0.05133105265373671  0.9327312269117414  1.0000
  H   H44       1.0  0.5353406626009657  0.9486681498270783  0.06726919863337602  1.0000
  C   C1        1.0  0.7343411876739765  0.8748014620115827  0.5275422198163184  1.0000
  C   C2        1.0  0.2656590285928146  0.1251994580577929  0.4724603296590573  1.0000
  C   C3        1.0  0.8371031371213248  0.8189456871439162  0.553610437416161  1.0000
  C   C4        1.0  0.1628971107213673  0.1810552350206437  0.44639067513918473  1.0000
  C   C5        1.0  0.38781934944921653  0.4864526553953893  0.6456852228346291  1.0000
  C   C6        1.0  0.612183644476943  0.5135474037730674  0.3543149165196978  1.0000
  C   C7        1.0  0.9240237047614887  0.384335707659858  0.21327003460179847  1.0000
  C   C8        1.0  0.07597762147741344  0.6156652171952429  0.7867284347489516  1.0000
  C   C9        1.0  0.08242842222873037  0.7278798469540178  0.5587816853122831  1.0000
  C   C10       1.0  0.917568827244637  0.27212108285282  0.44121657995661684  1.0000
  C   C11       1.0  0.2913525570139156  0.7895134625177745  0.6843448430565431  1.0000
  C   C12       1.0  0.7086453606902622  0.21048660414984974  0.31565414312045453  1.0000
  C   C13       1.0  0.3543778974684031  0.7345079980279792  0.3865909077224714  1.0000
  C   C14       1.0  0.6456230559605629  0.26548947876975854  0.6134097533542686  1.0000
  C   C15       1.0  0.5271476199146221  0.7168702497132456  0.5120948554310657  1.0000
  C   C16       1.0  0.4728532961588883  0.2831298093121006  0.4879069780323775  1.0000
  C   C17       1.0  0.055933642303799  0.4258842603797603  0.3105130236907598  1.0000
  C   C18       1.0  0.944065953096036  0.5741175259716087  0.689486649496473  1.0000
  C   C19       1.0  0.8233212859852445  0.44427261114211086  0.20054745760990048  1.0000
  C   C20       1.0  0.17667967167257356  0.5557300353488017  0.7994519559401709  1.0000
  C   C21       1.0  0.4802048996506231  0.8211759656419133  0.40037348870563955  1.0000
  C   C22       1.0  0.5197953539716238  0.17882237219985342  0.5996278883830327  1.0000
  C   C23       1.0  0.4879866743154226  0.8987439581306234  0.8419103950998165  1.0000
  C   C24       1.0  0.5120109279510814  0.10125524899280688  0.15808764442978432  1.0000
  C   C25       1.0  0.4294977956421988  0.4219826715086655  0.7229651952446403  1.0000
  C   C26       1.0  0.5705045300531495  0.5780182507990046  0.27703422320158927  1.0000
  C   C27       1.0  0.5125864806125976  0.3139344022084742  0.8784382921097489  1.0000
  C   C28       1.0  0.4874093965943872  0.686063082088431  0.12156121578966154  1.0000
  C   C29       1.0  0.2189961091550217  0.8704289820308873  0.7045919527931375  1.0000
  C   C30       1.0  0.7810017927612024  0.12957108358914837  0.29540775184387513  1.0000
  C   C31       1.0  0.2245350319947548  0.720968190523969  0.3087549201879298  1.0000
  C   C32       1.0  0.7754662742273413  0.27902756359035413  0.6912455151495109  1.0000
  C   C33       1.0  0.9803945799954759  0.8853501118415891  0.6018619805930071  1.0000
  C   C34       1.0  0.01960501540435899  0.11465167450977277  0.39813769259422566  1.0000
  C   C35       1.0  0.4281187373347279  0.803354194312611  0.7531522778902797  1.0000
  C   C36       1.0  0.5718795273830395  0.19664673399439175  0.2468462180140918  1.0000
  C   C37       1.0  0.6752489601355123  0.3023189046700879  0.03611040098622451  1.0000
  C   C38       1.0  0.3247496200199294  0.6976828831811163  0.9638890415655438  1.0000
  C   C39       1.0  0.22510494634442316  0.7950387208535898  0.24575441157351455  1.0000
  C   C40       1.0  0.7748956600709533  0.20495789430476918  0.7542467397758514  1.0000
  C   C41       1.0  0.615251985634579  0.4002360873077251  0.866047220411879  1.0000
  C   C42       1.0  0.3847490093786945  0.599763976955586  0.13395102075148196  1.0000
  C   C43       1.0  0.328516175761024  0.3335066615317643  0.7349009250742924  1.0000
  C   C44       1.0  0.6714854559071526  0.6664925374971488  0.2650994739172035  1.0000
  C   C45       1.0  0.5729859866565619  0.4539893958992208  0.7888282593788176  1.0000
  C   C46       1.0  0.4270152979980395  0.5460089414903067  0.2111726298853043  1.0000
  C   C47       1.0  0.02086423337517832  0.0054136688377611  0.6242593045642763  1.0000
  C   C48       1.0  0.9791353778126108  0.9945881185611968  0.3757396501629415  1.0000
  C   C49       1.0  0.3689904189852554  0.28028583052363126  0.8127891973631164  1.0000
  C   C50       1.0  0.6310105702484705  0.7197168180624729  0.18720877926692478  1.0000
  C   C51       1.0  0.9160877553127025  0.0589598315090143  0.5988749905614058  1.0000
  C   C52       1.0  0.0839118558750868  0.9410419558899504  0.40112396416581214  1.0000
  C   C53       1.0  0.7722422925654155  0.994688333229497  0.5502908041659608  1.0000
  C   C54       1.0  0.2277579868531845  0.005312591030246899  0.4497088714693547  1.0000
  C   C55       1.0  0.8985566695555747  0.2829609861742454  0.13562577304927  1.0000
  C   C56       1.0  0.10144191059986701  0.7170408016769585  0.8643736695024912  1.0000
  C   C57       1.0  0.27839584522197214  0.9647303125460098  0.7946962390014818  1.0000
  C   C58       1.0  0.7216017412565705  0.0352688935298247  0.20530251898813387  1.0000
  C   C59       1.0  0.3506377113420314  0.8805517718971244  0.2596975605918955  1.0000
  C   C60       1.0  0.6493618956169058  0.11944484580865829  0.7403026416619979  1.0000
  C   C61       1.0  0.48072767194096844  0.8952618251253666  0.33694608370478096  1.0000
  C   C62       1.0  0.5192729286948605  0.10473737435578562  0.6630548031112582  1.0000
  C   C63       1.0  0.6989347591578507  0.4040883738626633  0.11203946661623829  1.0000
  C   C64       1.0  0.30106552026074956  0.5959125503970809  0.8879602090190772  1.0000
  C   C65       1.0  0.7740042017385418  0.2413511004777362  0.04678854430219554  1.0000
  C   C66       1.0  0.22599336895205369  0.7586481045505095  0.953210932147435  1.0000
  C   C67       1.0  0.4144021694615174  0.9776704746062986  0.862684834877946  1.0000
  C   C68       1.0  0.5855954012290782  0.0223287304219397  0.13731464157168466  1.0000
  N   N1        1.0  0.20229956173318442  0.702039675804123  0.5926799164555944  1.0000
  N   N2        1.0  0.7976987029845759  0.29796125250287986  0.40731857944877703  1.0000
  N   N3        1.0  0.3883276185442952  0.6719397775563039  0.4582019645136767  1.0000
  N   N4        1.0  0.6116739657600262  0.3280594183298291  0.5418005898578642  1.0000
  N   N5        1.0  0.08655789789333568  0.8292865844755467  0.6225348814344116  1.0000
  N   N6        1.0  0.9134406822620991  0.17071520337565724  0.37746456111735693  1.0000
  N   N7        1.0  0.5881453612751526  0.8073941268619717  0.4811777073359663  1.0000
  N   N8        1.0  0.41185588602397877  0.19260679275516418  0.5188243543148587  1.0000
  O   O1        1.0  0.06493514751172569  0.5173531358223401  0.38045380025016573  1.0000
  O   O2        1.0  0.9350640850865731  0.48264778784205475  0.6195470816697152  1.0000
  O   O3        1.0  0.546123781360869  0.2547180620062548  0.9511698558399289  1.0000
  O   O4        1.0  0.4538761510441487  0.7452820006141109  0.048830310068012646  1.0000
  O   O5        1.0  0.2568997369760169  0.4485264276476071  0.5786897859251923  1.0000
  O   O6        1.0  0.7431046507840335  0.5514744937555845  0.42130865687193614  1.0000
  O   O7        1.0  0.476557411848809  0.5756592544121871  0.647674315358806  1.0000
  O   O8        1.0  0.5234445352570489  0.42434080416091996  0.3523270302800867  1.0000
  O   O9        1.0  0.14756355220472267  0.37417783393944853  0.32104225412352594  1.0000
  O   O10       1.0  0.8524371058033678  0.6258239540548587  0.6789554943191334  1.0000
