data_image0
_chemical_formula_structural       Hf6H4C24O32
_chemical_formula_sum              "Hf6 H4 C24 O32"
_cell_length_a       12.999534692538136
_cell_length_b       12.999382522870125
_cell_length_c       12.999982752072812
_cell_angle_alpha    90.01120563058262
_cell_angle_beta     119.99316325129247
_cell_angle_gamma    119.99137166595128

_space_group_name_H-M_alt    "P 1"
_space_group_IT_number       1

loop_
  _space_group_symop_operation_xyz
  'x, y, z'

loop_
  _atom_site_type_symbol
  _atom_site_label
  _atom_site_symmetry_multiplicity
  _atom_site_fract_x
  _atom_site_fract_y
  _atom_site_fract_z
  _atom_site_occupancy
  Hf  Hf1       1.0  0.0022695485673266693  0.864076973727407  0.8637287909073093  1.0000
  Hf  Hf2       1.0  0.0022864887498883673  0.8640876849692348  0.1336411234803521  1.0000
  Hf  Hf3       1.0  0.0022600772820947296  0.134008608538707  0.8637310696112617  1.0000
  Hf  Hf4       1.0  0.2721760913815529  0.1340235578838076  0.1336452641933192  1.0000
  Hf  Hf5       1.0  0.7323759157731328  0.8641274832090174  0.8637477044938817  1.0000
  Hf  Hf6       1.0  0.0022708609089078457  0.13402209278528687  0.13369539978472028  1.0000
  H   H1        1.0  0.21548944378026383  0.8924657986507043  0.10530893363247865  1.0000
  H   H2        1.0  0.7890653235537217  0.8924590762722886  0.6788490887916298  1.0000
  H   H3        1.0  0.21551710081428865  0.3189488933559872  0.1053482488032458  1.0000
  H   H4        1.0  0.7890224746708228  0.8924600572210795  0.10535736806676262  1.0000
  C   C1        1.0  0.011805196474504951  0.0037438792760723376  0.6613577047624232  1.0000
  C   C2        1.0  0.9929599580929319  0.6522906354185595  0.9940426672834092  1.0000
  C   C3        1.0  0.3442497771657923  0.0036607899315654387  0.993969029151614  1.0000
  C   C4        1.0  0.6602769363608941  0.6522809337192969  0.6613400892730467  1.0000
  C   C5        1.0  0.011819533808441786  0.0037539377902362585  0.3455251730031249  1.0000
  C   C6        1.0  0.9927959040782709  0.33636790496034763  0.9940602215642753  1.0000
  C   C7        1.0  0.3443608712670211  0.0037132282855765046  0.34548593434830366  1.0000
  C   C8        1.0  0.6601732682995375  0.6521785133049675  0.9938544715955757  1.0000
  C   C9        1.0  0.6602000242564044  0.00379098254811797  0.661360207136262  1.0000
  C   C10       1.0  0.3442341713734365  0.3363714026274707  0.9937629651216253  1.0000
  C   C11       1.0  0.3444121740104434  0.3364068532511196  0.34553131689625616  1.0000
  C   C12       1.0  0.6601340361020431  0.003784475383078154  0.9939512673770776  1.0000
  C   C13       1.0  0.9891483895947671  0.5391496717066958  0.9921475375156489  1.0000
  C   C14       1.0  0.9890543815280707  0.44573508401253287  0.9922031465343578  1.0000
  C   C15       1.0  0.015677599173564243  0.005617652481440366  0.5520543582939864  1.0000
  C   C16       1.0  0.015634060961161697  0.005619941289552204  0.45867132506830177  1.0000
  C   C17       1.0  0.4554870916638476  0.005561784169237991  0.9920805480135612  1.0000
  C   C18       1.0  0.5488751115727266  0.00564828496236904  0.9920435691483431  1.0000
  C   C19       1.0  0.5490258437832123  0.5391139457381583  0.5520228275336974  1.0000
  C   C20       1.0  0.45564026660337476  0.4457438832316357  0.4586642133028461  1.0000
  C   C21       1.0  0.5488788298418256  0.5389931388251626  0.9918594476926044  1.0000
  C   C22       1.0  0.4554691095721635  0.44559075714356305  0.9917646159722435  1.0000
  C   C23       1.0  0.45558135256072757  0.005616626478676808  0.4586588160702688  1.0000
  C   C24       1.0  0.5489367617197302  0.0056448358473773635  0.5520434741977454  1.0000
  O   O1        1.0  0.008943747291482286  0.09014132459877534  0.703615104899029  1.0000
  O   O2        1.0  0.995781512697569  0.697415770572896  0.08326572105450955  1.0000
  O   O3        1.0  0.21277721053898063  0.9144309224335812  0.9075715622193454  1.0000
  O   O4        1.0  0.7917649593634338  0.6973290488251537  0.7036572101222802  1.0000
  O   O5        1.0  0.6161338730181285  0.6974394470652926  0.7035650057728303  1.0000
  O   O6        1.0  0.3883883252548016  0.09009929694087049  0.08319747470834221  1.0000
  O   O7        1.0  0.9957680670598633  0.6973782549346197  0.9076271851701421  1.0000
  O   O8        1.0  0.008944856163096867  0.9144938479676268  0.7036275716831351  1.0000
  O   O9        1.0  0.8901190019723517  0.8308312413628158  0.9426147871213075  1.0000
  O   O10       1.0  0.11442740614937436  0.05514931670580117  0.9426097161406515  1.0000
  O   O11       1.0  0.15459267617957564  0.9229067787760742  0.07484906495550801  1.0000
  O   O12       1.0  0.8499544769938865  0.9228980598115869  0.7701837294106966  1.0000
  O   O13       1.0  0.00901610243632701  0.914539509201717  0.3004053992684916  1.0000
  O   O14       1.0  0.9955041923321699  0.2940374548540206  0.9075916785707675  1.0000
  O   O15       1.0  0.3884891764533334  0.09015588187348557  0.30041348129653034  1.0000
  O   O16       1.0  0.6160846724382695  0.6973440909681302  0.9074844498260575  1.0000
  O   O17       1.0  0.6160750808211902  0.9145563316980017  0.7036485497838  1.0000
  O   O18       1.0  0.388352806291678  0.2940756220613708  0.0829885517680964  1.0000
  O   O19       1.0  0.21291871075842275  0.29412814044682983  0.3004709245655589  1.0000
  O   O20       1.0  0.7916177612304197  0.09018438868908885  0.08318817732421746  1.0000
  O   O21       1.0  0.38853825973637157  0.2941229894365307  0.3004060894799707  1.0000
  O   O22       1.0  0.6160343364490329  0.9145532353992041  0.9075364142910657  1.0000
  O   O23       1.0  0.2128822854075096  0.91445807502663  0.30035762380055075  1.0000
  O   O24       1.0  0.21273748917877783  0.29419293407065067  0.9074776024993836  1.0000
  O   O25       1.0  0.7916750606941105  0.09017044094204608  0.703598411455168  1.0000
  O   O26       1.0  0.7916492142705562  0.6972690350703274  0.08308841307644603  1.0000
  O   O27       1.0  0.008945764529045127  0.09016024703785054  0.30044618414260066  1.0000
  O   O28       1.0  0.9956637770488685  0.2941341584611977  0.08332478326474327  1.0000
  O   O29       1.0  0.8901382121030819  0.05516307904812121  0.9426597098409957  1.0000
  O   O30       1.0  0.11444136399149576  0.05515697247322751  0.16694966449282586  1.0000
  O   O31       1.0  0.15463837549600606  0.22761207958316726  0.0749083812325182  1.0000
  O   O32       1.0  0.8499157391638761  0.9228944724088849  0.07491156806605657  1.0000
