data_image0
_chemical_formula_structural       Zn5H42C68N4O18
_chemical_formula_sum              "Zn5 H42 C68 N4 O18"
_cell_length_a       7.26141094500972
_cell_length_b       13.704733093508189
_cell_length_c       15.5737
_cell_angle_alpha    84.16808130498006
_cell_angle_beta     88.52920903831556
_cell_angle_gamma    84.53065226540322

_space_group_name_H-M_alt    "P 1"
_space_group_IT_number       1

loop_
  _space_group_symop_operation_xyz
  'x, y, z'

loop_
  _atom_site_type_symbol
  _atom_site_label
  _atom_site_symmetry_multiplicity
  _atom_site_fract_x
  _atom_site_fract_y
  _atom_site_fract_z
  _atom_site_occupancy
  Zn  Zn1       1.0  0.49999858985641776  7.366788921e-07  0.9999992767913496  1.0000
  Zn  Zn2       1.0  0.8357888586539346  0.9785077362273144  0.8638428107123275  1.0000
  Zn  Zn3       1.0  0.1642090476317222  0.0214911333389267  0.13615564594270785  1.0000
  Zn  Zn4       1.0  0.8614068254350897  0.831675846034976  0.0655351068437042  1.0000
  Zn  Zn5       1.0  0.13859220048993853  0.1683244968890421  0.9344638467775893  1.0000
  H   H1        1.0  0.033291094436286486  0.6570048604846762  0.8515295876435403  1.0000
  H   H2        1.0  0.966706682870715  0.342994745760457  0.1484720152246979  1.0000
  H   H3        1.0  0.06535691807619058  0.49484931264372994  0.7900658659263087  1.0000
  H   H4        1.0  0.934642881720798  0.5051466102069355  0.2099373263098272  1.0000
  H   H5        1.0  0.26231351966370653  0.3650914291492384  0.7236073315709746  1.0000
  H   H6        1.0  0.7376870128366733  0.6349081770958948  0.2763948804321714  1.0000
  H   H7        1.0  0.5941870120258274  0.3865516219746681  0.6876499677076708  1.0000
  H   H8        1.0  0.40580912972716016  0.6134494576282492  0.3123508808837556  1.0000
  H   H9        1.0  0.7326719075360373  0.5349290644840465  0.7243802746360615  1.0000
  H   H10       1.0  0.2673269894103356  0.4650720151188708  0.2756211830902728  1.0000
  H   H11       1.0  0.7006837773903953  0.6940679122590794  0.7915501811393142  1.0000
  H   H12       1.0  0.2993141288952615  0.3059309573071616  0.20845084394839122  1.0000
  H   H13       1.0  0.019935915440221712  0.7436788156141176  0.3433800643299278  1.0000
  H   H14       1.0  0.9800688788288953  0.2563200539521233  0.6566221625409625  1.0000
  H   H15       1.0  0.022152200001109172  0.7137807027508458  0.5042699873568495  1.0000
  H   H16       1.0  0.9778554784400414  0.286217430136503  0.4957290603275696  1.0000
  H   H17       1.0  0.19268658897802746  0.7073583361636295  0.6415038537166282  1.0000
  H   H18       1.0  0.8073183342697449  0.2926397967237122  0.3584952269410522  1.0000
  H   H19       1.0  0.5167091627529955  0.7505350860691706  0.6400740574241652  1.0000
  H   H20       1.0  0.4832972670701282  0.249462310139279  0.3599257131826903  1.0000
  H   H21       1.0  0.6762100171693177  0.7991065355065032  0.5012961268229787  1.0000
  H   H22       1.0  0.3237960257178187  0.20089307073862986  0.4987047350173057  1.0000
  H   H23       1.0  0.6644924326748338  0.8359839441999242  0.3408802002305009  1.0000
  H   H24       1.0  0.3355133522549849  0.1640171354029931  0.6591173224136568  1.0000
  H   H25       1.0  0.1650429761447683  0.0096622803576381  0.744283886607711  1.0000
  H   H26       1.0  0.8349564367162402  0.9903358525297108  0.255712691563815  1.0000
  H   H27       1.0  0.2524004387800645  0.021386524936147604  0.5888276809911943  1.0000
  H   H28       1.0  0.7475983291876461  0.9786152913456618  0.4111698597584876  1.0000
  H   H29       1.0  0.6928110101436786  0.9611965189259948  0.537343969941027  1.0000
  H   H30       1.0  0.3071874998667141  0.03880677071359881  0.4626515158288669  1.0000
  H   H31       1.0  0.6369919777797435  0.944422340537507  0.6951518386758195  1.0000
  H   H32       1.0  0.36301221276463025  0.055572108955374205  0.3048450116740042  1.0000
  H   H33       1.0  0.4636714327155644  0.7664856574555401  0.08612626959795477  1.0000
  H   H34       1.0  0.5363297035095442  0.2335183688629527  0.9138748978445648  1.0000
  H   H35       1.0  0.3020936976899975  0.6258359765313699  0.0616372932952345  1.0000
  H   H36       1.0  0.6979035637023686  0.3741665764293316  0.9383666206951348  1.0000
  H   H37       1.0  0.8223437838044774  0.4895761651292432  0.9674440821616487  1.0000
  H   H38       1.0  0.1776514962664564  0.5104219677580986  0.03256025076780839  1.0000
  H   H39       1.0  0.9650178299600328  0.6381746113064537  0.001981041610697799  1.0000
  H   H40       1.0  0.0349786987289349  0.3618242582597802  0.9980199999636453  1.0000
  H   H41       1.0  0.8309843967614229  0.0131313012637122  0.0315232969190973  1.0000
  H   H42       1.0  0.1690121319275448  0.9868675683025288  0.9684745341143994  1.0000
  C   C1        1.0  0.1353384780782463  0.8176494799165468  0.9112549865546954  1.0000
  C   C2        1.0  0.8646589122927679  0.1823523363652697  0.08874578122245678  1.0000
  C   C3        1.0  0.25731522553657277  0.7456531150467498  0.8628820263557486  1.0000
  C   C4        1.0  0.7426835424311378  0.2543487012350596  0.1371180828266105  1.0000
  C   C5        1.0  0.17950428422198428  0.6650980148007051  0.8376188636600048  1.0000
  C   C6        1.0  0.8204948706816992  0.334901591444428  0.1623820806134404  1.0000
  C   C7        1.0  0.28553652319777006  0.5909232904449766  0.7958310577304815  1.0000
  C   C8        1.0  0.7144626317059206  0.4090763158001565  0.2041698865429566  1.0000
  C   C9        1.0  0.2103025420724619  0.5047767974027622  0.7743580007683947  1.0000
  C   C10       1.0  0.7896954931918572  0.4952213354845796  0.2256450149714624  1.0000
  C   C11       1.0  0.32021557394055117  0.43252922503053537  0.7367055671705033  1.0000
  C   C12       1.0  0.6797835809631395  0.5674703812145907  0.2632973034274499  1.0000
  C   C13       1.0  0.509009224140037  0.4440589863813571  0.7173682702636555  1.0000
  C   C14       1.0  0.4909871755702683  0.5559406198637689  0.2826333490912134  1.0000
  C   C15       1.0  0.5863096767353541  0.5266406902614307  0.7377869200074657  1.0000
  C   C16       1.0  0.41368947816833673  0.4733589159836953  0.2622153084823111  1.0000
  C   C17       1.0  0.4780437795365345  0.6014953692351882  0.7780008831154178  1.0000
  C   C18       1.0  0.5219524911951154  0.3985049736888371  0.22200195612815318  1.0000
  C   C19       1.0  0.5538704442402604  0.6854841298004644  0.8030578202481776  1.0000
  C   C20       1.0  0.44612733306674096  0.31451547644466876  0.1969431405118911  1.0000
  C   C21       1.0  0.44853741761345844  0.7559327323165377  0.84529885645955  1.0000
  C   C22       1.0  0.5514617372902251  0.24406687392859544  0.1547008035975566  1.0000
  C   C23       1.0  0.5408216834118916  0.836454682012409  0.8801697945036225  1.0000
  C   C24       1.0  0.4591758359377849  0.1635463975905083  0.1198291112766654  1.0000
  C   C25       1.0  0.12306637034834014  0.7992796550463055  0.1880227485820072  1.0000
  C   C26       1.0  0.8769330425126753  0.2007184778410362  0.811978324346704  1.0000
  C   C27       1.0  0.2393587395314754  0.8024517943585963  0.26660381571446123  1.0000
  C   C28       1.0  0.7606430415869312  0.1975485485654289  0.7333957470417403  1.0000
  C   C29       1.0  0.1587484064410631  0.7679428083054489  0.3440619374501495  1.0000
  C   C30       1.0  0.8412563878280466  0.232056061260792  0.6559402894207409  1.0000
  C   C31       1.0  0.2501085227603994  0.7631787059058723  0.4237107323502869  1.0000
  C   C32       1.0  0.7499002753201226  0.2368209003392607  0.5762900965167289  1.0000
  C   C33       1.0  0.1643690865781195  0.7336364089478096  0.503933105952747  1.0000
  C   C34       1.0  0.8356384628843685  0.2663624606184314  0.4960658774040354  1.0000
  C   C35       1.0  0.2588561105911467  0.7300775132168127  0.5800553721087098  1.0000
  C   C36       1.0  0.7411474350599292  0.2699206196705362  0.41994436714377065  1.0000
  C   C37       1.0  0.4441754286898174  0.7546295473552149  0.5792630226859146  1.0000
  C   C38       1.0  0.5558308721546439  0.2453685855321268  0.42073796780965006  1.0000
  C   C39       1.0  0.532202596104625  0.7820185319096994  0.5023258154078504  1.0000
  C   C40       1.0  0.46780194020716687  0.2179818110143259  0.49767371437508956  1.0000
  C   C41       1.0  0.4377582018831844  0.78803277839031  0.4229476028940624  1.0000
  C   C42       1.0  0.5622477120252968  0.2119675645337153  0.5770525525104162  1.0000
  C   C43       1.0  0.5205054504409149  0.8190388563083175  0.34306293363064094  1.0000
  C   C44       1.0  0.4794990858708772  0.1809614866157077  0.656936596152299  1.0000
  C   C45       1.0  0.4237730893514565  0.8308271919505046  0.2665822826829114  1.0000
  C   C46       1.0  0.5762284338096322  0.1691746243313048  0.7334165093098406  1.0000
  C   C47       1.0  0.5238021445273944  0.8719684980753046  0.18727648923175616  1.0000
  C   C48       1.0  0.4761981300156677  0.1280325815276129  0.8127230256834395  1.0000
  C   C49       1.0  0.06619975629656949  0.9983214517273924  0.6955883365690879  1.0000
  C   C50       1.0  0.9337992696284587  0.001678891196633  0.30440804861952836  1.0000
  C   C51       1.0  0.1123158386168299  0.005718101565719301  0.6081697828992391  1.0000
  C   C52       1.0  0.8876801741575023  0.9942837147160901  0.3918265066073587  1.0000
  C   C53       1.0  0.9792796379043834  0.9942977116150544  0.5469610031647463  1.0000
  C   C54       1.0  0.020720249702698403  0.0057055780245392  0.45303446611851683  1.0000
  C   C55       1.0  0.8045664079047511  0.9718466856788411  0.5796428507945848  1.0000
  C   C56       1.0  0.19543111144492542  0.028154393924076305  0.42035348655301874  1.0000
  C   C57       1.0  0.77053818631979  0.9633579347974006  0.6681949085306087  1.0000
  C   C58       1.0  0.2294597199658668  0.0366409347688403  0.3318009796917494  1.0000
  C   C59       1.0  0.5412096579309349  0.7027982938173524  0.06252596060546271  1.0000
  C   C60       1.0  0.45879173625149877  0.2972042591433492  0.9374759776004993  1.0000
  C   C61       1.0  0.44946586003157313  0.6223603255152598  0.04659993091216561  1.0000
  C   C62       1.0  0.5505316593181036  0.3776407540876576  0.9534041117334766  1.0000
  C   C63       1.0  0.5464481704931715  0.5427120769862128  0.010590383421316588  1.0000
  C   C64       1.0  0.45354921987784275  0.4572897392955966  0.9894135948966892  1.0000
  C   C65       1.0  0.7366866462715862  0.5484287051941479  0.9950072208214281  1.0000
  C   C66       1.0  0.2633110020567528  0.4515716377298773  0.004994317719173597  1.0000
  C   C67       1.0  0.8186605108087619  0.6306450163434008  0.014015017051249891  1.0000
  C   C68       1.0  0.1813373954768949  0.3693538532228331  0.9859866501446319  1.0000
  N   N1        1.0  0.897470443502165  0.9779272332598056  0.7255155089818004  1.0000
  N   N2        1.0  0.1025274627834918  0.0220716363064284  0.2744810213487199  1.0000
  N   N3        1.0  0.7227745545958939  0.7082644512017424  0.046302319650507705  1.0000
  N   N4        1.0  0.2772243423504719  0.2917366284011749  0.9536984959676573  1.0000
  O   O1        1.0  0.1025154224551059  0.906257217139519  0.877584589185986  1.0000
  O   O2        1.0  0.897480848276544  0.0937431257845063  0.12241439740856921  1.0000
  O   O3        1.0  0.06754327547540842  0.7807050334438799  0.9814427095665438  1.0000
  O   O4        1.0  0.9324503690415185  0.2192945728012532  0.01855573222074011  1.0000
  O   O5        1.0  0.4598186441374992  0.8738706029764529  0.9439647869462746  1.0000
  O   O6        1.0  0.5401773686368259  0.1261312133053565  0.0560334288848381  1.0000
  O   O7        1.0  0.69431819602557  0.8581366151845631  0.8453950202915408  1.0000
  O   O8        1.0  0.30567932332410663  0.1418644644183544  0.15460324338057765  1.0000
  O   O9        1.0  0.06504238052175988  0.8808484254488179  0.14241549955754354  1.0000
  O   O10       1.0  0.9349572902965663  0.1191482340807468  0.8575863441346171  1.0000
  O   O11       1.0  0.07333686257035052  0.718107954567003  0.17295592958800649  1.0000
  O   O12       1.0  0.9266643148233271  0.2818879682836624  0.8270478882696679  1.0000
  O   O13       1.0  0.43103140751350827  0.9312284215679085  0.1317321158699585  1.0000
  O   O14       1.0  0.5689701156475806  0.0687733947139009  0.8682679603391392  1.0000
  O   O15       1.0  0.69458362758737  0.8456521179887064  0.1807331706827568  1.0000
  O   O16       1.0  0.30541414971962416  0.1543474882564269  0.8192665058609734  1.0000
  O   O17       1.0  0.7821155172380047  0.9632083889821672  0.9992909521659284  1.0000
  O   O18       1.0  0.2178810114509702  0.0367904805840737  0.0007081630839068011  1.0000
