data_image0
_chemical_formula_structural       Yb4H72C80N16Cl12
_chemical_formula_sum              "Yb4 H72 C80 N16 Cl12"
_cell_length_a       12.634671090000147
_cell_length_b       14.199986784000021
_cell_length_c       14.702513185000162
_cell_angle_alpha    89.999996653694
_cell_angle_beta     90.0000166667714
_cell_angle_gamma    89.9999947425815

_space_group_name_H-M_alt    "P 1"
_space_group_IT_number       1

loop_
  _space_group_symop_operation_xyz
  'x, y, z'

loop_
  _atom_site_type_symbol
  _atom_site_label
  _atom_site_symmetry_multiplicity
  _atom_site_fract_x
  _atom_site_fract_y
  _atom_site_fract_z
  _atom_site_occupancy
  Yb  Yb1       1.0  0.33388690698895107  0.16755012306123268  0.636094688470827  1.0000
  Yb  Yb2       1.0  0.1661127333610182  0.8324500596312631  0.13609441696605978  1.0000
  Yb  Yb3       1.0  0.8338872050476738  0.3324502642999221  0.36390522677282183  1.0000
  Yb  Yb4       1.0  0.6661132176035449  0.6675498637120966  0.8639054281033722  1.0000
  H   H1        1.0  0.18888356153766483  0.13700150331256108  0.8247835004619547  1.0000
  H   H2        1.0  0.3111161426710253  0.8629979637528606  0.3247832634871628  1.0000
  H   H3        1.0  0.6888837925946517  0.362998191688348  0.1752170586830317  1.0000
  H   H4        1.0  0.8111165661979951  0.6370019477247268  0.6752166178367817  1.0000
  H   H5        1.0  0.17802053012282212  0.17552056505141428  0.4487641106890621  1.0000
  H   H6        1.0  0.3219792160451077  0.824480302974777  0.9487643421309713  1.0000
  H   H7        1.0  0.6780208924006242  0.3244798350644515  0.5512357655840674  1.0000
  H   H8        1.0  0.8219786329597979  0.6755203118398967  0.0512362220646949  1.0000
  H   H9        1.0  0.3359755377144893  0.0641866592806437  0.2128296401786614  1.0000
  H   H10       1.0  0.16402492007818376  0.9358135187752836  0.7128298258428103  1.0000
  H   H11       1.0  0.8359751769122707  0.43581372790961836  0.7871702755871155  1.0000
  H   H12       1.0  0.6640244282963579  0.5641864047389478  0.2871706988603222  1.0000
  H   H13       1.0  0.17524639160560437  0.13669940726084212  0.2836766893450431  1.0000
  H   H14       1.0  0.324754090164113  0.8633007665143213  0.7836769192890998  1.0000
  H   H15       1.0  0.6752460142872889  0.3633009930820635  0.7163231862343835  1.0000
  H   H16       1.0  0.8247535669441816  0.636699143847288  0.2163229654445544  1.0000
  H   H17       1.0  0.466842453679817  0.3112411007292906  0.4936387838982482  1.0000
  H   H18       1.0  0.03315730767524629  0.6887590603594518  0.9936389507892257  1.0000
  H   H19       1.0  0.9668428147350452  0.188758571525959  0.5063611645876804  1.0000
  H   H20       1.0  0.5331574869110796  0.8112415780898132  0.006360861037933301  1.0000
  H   H21       1.0  0.4157465072725301  0.6005625029344587  0.3585455390230053  1.0000
  H   H22       1.0  0.0842532083624121  0.3994376663169704  0.8585457350222897  1.0000
  H   H23       1.0  0.9157461008979197  0.899437399981146  0.6414543684610763  1.0000
  H   H24       1.0  0.5842526635224913  0.10056274147201093  0.1414541178065178  1.0000
  H   H25       1.0  0.5118852378491993  0.10810216851444922  0.7887359630334316  1.0000
  H   H26       1.0  0.9881151593622802  0.8918972598134758  0.2887364488371489  1.0000
  H   H27       1.0  0.011885564402831499  0.39189754097043317  0.2112638717016893  1.0000
  H   H28       1.0  0.48811489285986903  0.6081019329541137  0.7112634767409602  1.0000
  H   H29       1.0  0.3721299928401434  0.7302696709364725  0.2511387226423381  1.0000
  H   H30       1.0  0.1278696864446189  0.2697298005787658  0.7511382567133964  1.0000
  H   H31       1.0  0.8721304276344592  0.7697295313222483  0.7488618540924605  1.0000
  H   H32       1.0  0.6278699560821507  0.23026989941499212  0.248861607020757  1.0000
  H   H33       1.0  0.4858955901906297  0.08122961878663662  0.4765852457465982  1.0000
  H   H34       1.0  0.014104165392822695  0.918770543332542  0.976584714733157  1.0000
  H   H35       1.0  0.9858959333510952  0.41877075613548703  0.523414707503072  1.0000
  H   H36       1.0  0.514104374066605  0.5812300966758597  0.023415092330239397  1.0000
  H   H37       1.0  0.15439032859341487  0.32912986001639416  0.5777311701952071  1.0000
  H   H38       1.0  0.3456100834772968  0.6708703262025467  0.0777309526908709  1.0000
  H   H39       1.0  0.6543906630294883  0.17087054203315696  0.4222687001697665  1.0000
  H   H40       1.0  0.8456097793737882  0.8291295824524099  0.9222682571015142  1.0000
  H   H41       1.0  0.11873444872618676  0.46240463662262254  0.4711276187395583  1.0000
  H   H42       1.0  0.3812653050103164  0.5375962300523086  0.9711278811999406  1.0000
  H   H43       1.0  0.6187348329533433  0.03759576834468701  0.5288722427105483  1.0000
  H   H44       1.0  0.8812646848383848  0.9624043799109432  0.0288720176629198  1.0000
  H   H45       1.0  0.4440226810831262  0.4389869985686232  0.3822857060701921  1.0000
  H   H46       1.0  0.055977834059206096  0.5610131692483264  0.8822858858784173  1.0000
  H   H47       1.0  0.9440223014949395  0.06101267555404632  0.6177135565542926  1.0000
  H   H48       1.0  0.555977246363838  0.938986763107536  0.11771393165437868  1.0000
  H   H49       1.0  0.5368768166389302  0.05281267458008191  0.9487405853234278  1.0000
  H   H50       1.0  0.963122843250417  0.9471881525320144  0.4487403816014108  1.0000
  H   H51       1.0  0.0368770833528487  0.44718773708570586  0.0512599358160131  1.0000
  H   H52       1.0  0.46312252828615624  0.5528124507327307  0.5512595377279368  1.0000
  H   H53       1.0  0.4981966364478083  0.0400985990781422  0.3113781189269885  1.0000
  H   H54       1.0  0.0018038546969946995  0.9599015730232311  0.8113782626719228  1.0000
  H   H55       1.0  0.9981962398150016  0.45990177483739825  0.6886218373981663  1.0000
  H   H56       1.0  0.501803332041497  0.5400983637657292  0.18862222147183877  1.0000
  H   H57       1.0  0.06283108258941889  0.6383576270550082  0.223423016815687  1.0000
  H   H58       1.0  0.4371693787884253  0.3616425503608411  0.7234233031864932  1.0000
  H   H59       1.0  0.562830725833578  0.8616430089660484  0.7765768024305969  1.0000
  H   H60       1.0  0.9371688757897658  0.1383571243226243  0.2765766378803108  1.0000
  H   H61       1.0  0.09261185845236498  0.5029258065427485  0.3262306179327084  1.0000
  H   H62       1.0  0.40738784624601  0.4970743646612449  0.8262302090561278  1.0000
  H   H63       1.0  0.5926114529682919  0.9970748270412957  0.673769888915345  1.0000
  H   H64       1.0  0.9073881138617138  0.0029253124592401006  0.1737697245646359  1.0000
  H   H65       1.0  0.37632084353639766  0.04132959898918641  0.05110287371090291  1.0000
  H   H66       1.0  0.12367955952246486  0.9586705888386934  0.5511030479973512  1.0000
  H   H67       1.0  0.8763205351163066  0.4586707848995602  0.9488977322980574  1.0000
  H   H68       1.0  0.6236791248262461  0.5413293379770393  0.4488974666184262  1.0000
  H   H69       1.0  0.20039952275372025  0.08700215558993557  0.9883711818095123  1.0000
  H   H70       1.0  0.2996010282915761  0.9129980058170448  0.48837161928874206  1.0000
  H   H71       1.0  0.7003989018294516  0.4129975384686801  0.011628019902993  1.0000
  H   H72       1.0  0.7996006101263685  0.5870019066028648  0.5116282591560335  1.0000
  C   C1        1.0  0.2649172050289862  0.12002894825769066  0.8557727701915923  1.0000
  C   C2        1.0  0.23508250966747815  0.8799712211612913  0.35577251324829023  1.0000
  C   C3        1.0  0.7649174238516848  0.3799714447473336  0.14422712780788058  1.0000
  C   C4        1.0  0.7350829244529958  0.6200294007642171  0.6442273490653037  1.0000
  C   C5        1.0  0.24769547006302156  0.14558250715869292  0.41597652849495154  1.0000
  C   C6        1.0  0.25230505648143253  0.8544176586225732  0.9159767408263947  1.0000
  C   C7        1.0  0.7476950488839619  0.35441788725562884  0.5840233651985757  1.0000
  C   C8        1.0  0.7523052790456929  0.6455822576675916  0.0840231257932729  1.0000
  C   C9        1.0  0.3367044952601147  0.08517963438101361  0.2841453383476988  1.0000
  C   C10       1.0  0.16329519519516816  0.9148205393658843  0.784144844858787  1.0000
  C   C11       1.0  0.8367049039551658  0.4148207527495699  0.7158545776004317  1.0000
  C   C12       1.0  0.6632954685905829  0.585180088434079  0.2158543193503206  1.0000
  C   C13       1.0  0.24652407558890832  0.1243148845728683  0.3234971015957342  1.0000
  C   C14       1.0  0.2534756281844962  0.8756845825702654  0.8234973130193524  1.0000
  C   C15       1.0  0.7465236835196761  0.375684805711316  0.676502111649107  1.0000
  C   C16       1.0  0.75347588423503  0.6243146293981214  0.1765018737371804  1.0000
  C   C17       1.0  0.39055633350418617  0.3463650804049437  0.4869405987953925  1.0000
  C   C18       1.0  0.10944421705682567  0.6536343768624989  0.986940106586971  1.0000
  C   C19       1.0  0.8905559089674566  0.1536345980928928  0.5130600107728043  1.0000
  C   C20       1.0  0.6094443949457896  0.8463655511181188  0.0130597243138695  1.0000
  C   C21       1.0  0.3366308691646367  0.604927299852676  0.3292042868304179  1.0000
  C   C22       1.0  0.1633688365401227  0.39507287117164225  0.8292038227011888  1.0000
  C   C23       1.0  0.836631264642186  0.8950733137629924  0.6707962810286574  1.0000
  C   C24       1.0  0.6633690926543565  0.10492682591718251  0.1707960499086454  1.0000
  C   C25       1.0  0.27798670551602095  0.46294477307627363  0.4174470202195906  1.0000
  C   C26       1.0  0.22201382152609736  0.5370553926161391  0.9174472428934876  1.0000
  C   C27       1.0  0.7779863164931766  0.0370556188592843  0.5825528810475119  1.0000
  C   C28       1.0  0.7220132194660065  0.9629445261528035  0.08255329630831912  1.0000
  C   C29       1.0  0.44504852396611466  0.10223878410378263  0.8352933012907968  1.0000
  C   C30       1.0  0.05495118379950979  0.8977613865525956  0.3352936784616317  1.0000
  C   C31       1.0  0.9450479564164309  0.3977608899349222  0.1647066417459797  1.0000
  C   C32       1.0  0.5549516073463251  0.602239250113229  0.6647068189704014  1.0000
  C   C33       1.0  0.3125035949923002  0.6784104695987453  0.2704102518267035  1.0000
  C   C34       1.0  0.18749767376040438  0.3215897049780025  0.7704097978784432  1.0000
  C   C35       1.0  0.8125024349827326  0.8215894417653475  0.7295903099997716  1.0000
  C   C36       1.0  0.6874963592658643  0.17841069436241247  0.2295900807639981  1.0000
  C   C37       1.0  0.41982975435179515  0.09341554971167201  0.4306597554586489  1.0000
  C   C38       1.0  0.08016998568903229  0.906584615182425  0.9306599218070916  1.0000
  C   C39       1.0  0.9198301143088655  0.4065841263906762  0.5693401812729136  1.0000
  C   C40       1.0  0.580170208651495  0.593416019419749  0.0693399017744341  1.0000
  C   C41       1.0  0.2168739408062236  0.35701227909121513  0.5342080059120349  1.0000
  C   C42       1.0  0.2831256650618598  0.6429879097575366  0.0342077743591531  1.0000
  C   C43       1.0  0.716874292840906  0.14298741361922404  0.465791880075443  1.0000
  C   C44       1.0  0.7831253728192847  0.8570127082365674  0.9657920999663574  1.0000
  C   C45       1.0  0.19696284269885203  0.4305278430913689  0.4744127820585717  1.0000
  C   C46       1.0  0.30303770362229426  0.56947231915904  0.97441234300463  1.0000
  C   C47       1.0  0.6969624310614718  0.06947185124844418  0.5255870989505311  1.0000
  C   C48       1.0  0.8030378770915189  0.9305275929796227  0.0255875362994757  1.0000
  C   C49       1.0  0.3771519339399063  0.41942148884306363  0.4251225923417081  1.0000
  C   C50       1.0  0.12284780422696427  0.5805786763855992  0.9251227877646785  1.0000
  C   C51       1.0  0.877152329314171  0.08057819075165179  0.5748773337193286  1.0000
  C   C52       1.0  0.6228479955202956  0.9194212504981678  0.0748777266432228  1.0000
  C   C53       1.0  0.4582748445811262  0.07251692221009881  0.9248079318906335  1.0000
  C   C54       1.0  0.041725684952091086  0.9274832430375639  0.42480762392094823  1.0000
  C   C55       1.0  0.9582742436784951  0.42748345497229695  0.0751920144530303  1.0000
  C   C56       1.0  0.5417252897894826  0.5725166904845623  0.5751921900484689  1.0000
  C   C57       1.0  0.42559957756225214  0.07045355904924121  0.33879178956259187  1.0000
  C   C58       1.0  0.07440092286014989  0.9295466113957505  0.8387912730164331  1.0000
  C   C59       1.0  0.9255991747751577  0.4295461165809725  0.6612088287673004  1.0000
  C   C60       1.0  0.5744011792766627  0.5704540236785077  0.16120854912268362  1.0000
  C   C61       1.0  0.14027987936253786  0.6271407111018589  0.2544116064039414  1.0000
  C   C62       1.0  0.3597198010299749  0.3728594644416034  0.7544118727772684  1.0000
  C   C63       1.0  0.6402803024379435  0.8728592143554367  0.7455882322066145  1.0000
  C   C64       1.0  0.8597200801707314  0.1271409208056156  0.2455880489252564  1.0000
  C   C65       1.0  0.2577590171775483  0.5397145656302486  0.3523547426616034  1.0000
  C   C66       1.0  0.24224227930810113  0.460284899769171  0.8523549747269357  1.0000
  C   C67       1.0  0.7577586066373667  0.9602853502136385  0.6476451253216099  1.0000
  C   C68       1.0  0.7422417428240491  0.0397147908653892  0.1476449176031593  1.0000
  C   C69       1.0  0.15772474766001918  0.5513378211861878  0.31235136492026083  1.0000
  C   C70       1.0  0.3422757438141771  0.448662350856381  0.8123516226527343  1.0000
  C   C71       1.0  0.6577235603814625  0.9486621028436276  0.6876491582075843  1.0000
  C   C72       1.0  0.8422760111456423  0.05133803581831131  0.1876482946883371  1.0000
  C   C73       1.0  0.3699013628020607  0.0671894543665559  0.9814873464434228  1.0000
  C   C74       1.0  0.1300983944405019  0.9328100032304153  0.48148706026851323  1.0000
  C   C75       1.0  0.8699007421690793  0.4328102258215268  0.018512577804656902  1.0000
  C   C76       1.0  0.6300987721166605  0.5671899230600491  0.5185127757964167  1.0000
  C   C77       1.0  0.27133369273902014  0.09217891933838018  0.9463559246899678  1.0000
  C   C78       1.0  0.22866605261395986  0.9078212446073056  0.4463563447259986  1.0000
  C   C79       1.0  0.7713346695127397  0.40782076891553504  0.05364397491390349  1.0000
  C   C80       1.0  0.7286664396084175  0.5921786736172623  0.5536435159833388  1.0000
  N   N1        1.0  0.3119187609767308  0.3144847706350405  0.540765401312953  1.0000
  N   N2        1.0  0.18808243005646116  0.6855147135914309  0.040765143595884  1.0000
  N   N3        1.0  0.81191831494354  0.1855149142978121  0.45923450843802976  1.0000
  N   N4        1.0  0.6880813484974052  0.814485207954192  0.959234706966335  1.0000
  N   N5        1.0  0.3324464000434304  0.12992685369670912  0.46962383030957977  1.0000
  N   N6        1.0  0.1675533531840472  0.8700733088430966  0.9696233404114167  1.0000
  N   N7        1.0  0.8324467505703976  0.3700735337823177  0.5303760845739092  1.0000
  N   N8        1.0  0.6675535592033128  0.6299266143823914  0.0303765050181752  1.0000
  N   N9        1.0  0.3498074147114777  0.12551486705523024  0.8004244201504066  1.0000
  N   N10       1.0  0.15019307272618926  0.8744846014819957  0.30042414229222203  1.0000
  N   N11       1.0  0.8498068613575069  0.374484814777155  0.19957549907368843  1.0000
  N   N12       1.0  0.6501927142060564  0.6255153231641232  0.6995756987967853  1.0000
  N   N13       1.0  0.21561543085908838  0.6910414723381778  0.2338681874488628  1.0000
  N   N14       1.0  0.2843842425807495  0.3089580002205922  0.7338677584379738  1.0000
  N   N15       1.0  0.7156150759890136  0.808958446954364  0.7661316699973922  1.0000
  N   N16       1.0  0.7843837306264233  0.19104168696546253  0.2661314642728527  1.0000
  Cl  Cl1       1.0  0.13356432173093677  0.137572638513781  0.6379100001737967  1.0000
  Cl  Cl2       1.0  0.36643611070632415  0.862427544068993  0.1379097770625251  1.0000
  Cl  Cl3       1.0  0.633563824617937  0.36242776524001397  0.3620898649840428  1.0000
  Cl  Cl4       1.0  0.8664358059459898  0.6375723628817269  0.8620901180927234  1.0000
  Cl  Cl5       1.0  0.3857623735230006  0.9913417328177446  0.6327095361570585  1.0000
  Cl  Cl6       1.0  0.11423805715424609  0.0086584500792597  0.1327092981876703  1.0000
  Cl  Cl7       1.0  0.885761914569869  0.5086581725514919  0.3672903638302216  1.0000
  Cl  Cl8       1.0  0.6142377177540722  0.49134195525602575  0.8672905621381375  1.0000
  Cl  Cl9       1.0  0.527688546845738  0.21661776631732013  0.639923988614001  1.0000
  Cl  Cl10      1.0  0.9723110085296653  0.7833823752282715  0.1399237964365696  1.0000
  Cl  Cl11      1.0  0.02768893492770269  0.2833819418743603  0.36007585007234877  1.0000
  Cl  Cl12      1.0  0.4723107812251682  0.7166182272845986  0.8600761251900622  1.0000
