data_image0
_chemical_formula_structural       Cu4H40C48I4N12
_chemical_formula_sum              "Cu4 H40 C48 I4 N12"
_cell_length_a       7.290240545777938
_cell_length_b       10.380277950315309
_cell_length_c       16.332353575249645
_cell_angle_alpha    90.00044244153868
_cell_angle_beta     89.999445133819
_cell_angle_gamma    103.14186070381241

_space_group_name_H-M_alt    "P 1"
_space_group_IT_number       1

loop_
  _space_group_symop_operation_xyz
  'x, y, z'

loop_
  _atom_site_type_symbol
  _atom_site_label
  _atom_site_symmetry_multiplicity
  _atom_site_fract_x
  _atom_site_fract_y
  _atom_site_fract_z
  _atom_site_occupancy
  Cu  Cu1       1.0  0.5030922649084744  0.9457711288956291  0.06771225432292033  1.0000
  Cu  Cu2       1.0  0.9969016645594311  0.5542406322910625  0.5677128422523554  1.0000
  Cu  Cu3       1.0  0.49690856694805063  0.0542313701300117  0.9322780301803278  1.0000
  Cu  Cu4       1.0  0.003095528393778623  0.4457549445985905  0.4322921370006442  1.0000
  H   H1        1.0  0.9309062653189952  0.0514093445621313  0.1160242312750484  1.0000
  H   H2        1.0  0.5690862280570528  0.4485809780929344  0.6160274351899844  1.0000
  H   H3        1.0  0.06909651044157519  0.9485990901122819  0.8839715637733577  1.0000
  H   H4        1.0  0.4309139310191624  0.5514027141199307  0.3839848914064064  1.0000
  H   H5        1.0  0.11371920286344309  0.06671426968684101  0.2454207610510224  1.0000
  H   H6        1.0  0.38627952162052276  0.43324761025674974  0.7454255596082079  1.0000
  H   H7        1.0  0.8862652539109559  0.9332843019167283  0.7545793199843447  1.0000
  H   H8        1.0  0.6137379095576491  0.5667469370176192  0.2545886038222562  1.0000
  H   H9        1.0  0.9426837188183157  0.9732798515855378  0.37537981493120043  1.0000
  H   H10       1.0  0.5573041541078397  0.5267000367074746  0.8753809681248728  1.0000
  H   H11       1.0  0.057295503829081405  0.0267236798278105  0.6246190415647419  1.0000
  H   H12       1.0  0.44270273397181364  0.47330838995871727  0.12463013395515082  1.0000
  H   H13       1.0  0.6020835305207584  0.8656866125243428  0.3674145094138765  1.0000
  H   H14       1.0  0.8978953172346423  0.6343070806889983  0.8674159303563798  1.0000
  H   H15       1.0  0.397902795420606  0.1343218544478475  0.6325788365441696  1.0000
  H   H16       1.0  0.1021101252425254  0.36570530841152055  0.1325878243571736  1.0000
  H   H17       1.0  0.25169092573297996  0.7677978001616239  0.3468533919338342  1.0000
  H   H18       1.0  0.2482823670622878  0.732192854798491  0.8468565687921272  1.0000
  H   H19       1.0  0.7483033759869927  0.232205701610475  0.6531399539943552  1.0000
  H   H20       1.0  0.7517149253894005  0.26781559065932475  0.15314228767645946  1.0000
  H   H21       1.0  0.9427410776815961  0.68959162465994  0.24957176544769774  1.0000
  H   H22       1.0  0.5572439844335049  0.8104049581368999  0.7495829046039262  1.0000
  H   H23       1.0  0.05725337372178529  0.3104039575703723  0.7504234173053064  1.0000
  H   H24       1.0  0.4427671658578731  0.18959554087719252  0.2504226869123656  1.0000
  H   H25       1.0  0.07756292125238669  0.8369033063799309  0.04046148512677661  1.0000
  H   H26       1.0  0.4224342753947781  0.6630984098471302  0.5404690648151131  1.0000
  H   H27       1.0  0.9224207882138559  0.16308041802862053  0.9595257379590907  1.0000
  H   H28       1.0  0.5775968138508887  0.336916898588342  0.45953162844137563  1.0000
  H   H29       1.0  0.8768774344222621  0.7625388594183208  0.09897407832339411  1.0000
  H   H30       1.0  0.6231100107863058  0.7374593364761992  0.5989815038301174  1.0000
  H   H31       1.0  0.1230932147143307  0.2374468705107446  0.9010253904286145  1.0000
  H   H32       1.0  0.3768994446471936  0.2625401759817123  0.4010289859404424  1.0000
  H   H33       1.0  0.7155078100345024  0.5470113794726785  0.0655708708899283  1.0000
  H   H34       1.0  0.7844961290397806  0.9529805446627582  0.5655651928252681  1.0000
  H   H35       1.0  0.2844674252497584  0.452967412102538  0.9344292101163634  1.0000
  H   H36       1.0  0.2155407674224321  0.047035742301361004  0.4344416232371843  1.0000
  H   H37       1.0  0.3029244419664394  0.6693958831196343  0.0026772869616352  1.0000
  H   H38       1.0  0.19707813817900904  0.8306114228145847  0.5026915875427208  1.0000
  H   H39       1.0  0.6970459580335131  0.3305848977609784  0.9973215694969612  1.0000
  H   H40       1.0  0.8029660112662355  0.1694018801638393  0.49731094252502567  1.0000
  C   C1        1.0  0.8623677390423694  0.0115549422959234  0.17302157873779583  1.0000
  C   C2        1.0  0.6376244242859032  0.4884339128648848  0.6730252930968988  1.0000
  C   C3        1.0  0.13762890547523202  0.988451524595746  0.8269717671926459  1.0000
  C   C4        1.0  0.3623680081992404  0.5115596935716981  0.3269821352881266  1.0000
  C   C5        1.0  0.9637005996556313  0.0206871066950498  0.24584615596478443  1.0000
  C   C6        1.0  0.5362909166501524  0.47928359526487435  0.7458521058156791  1.0000
  C   C7        1.0  0.036284031461775446  0.9793203737044107  0.7541484145577684  1.0000
  C   C8        1.0  0.4637152239799677  0.5207099842752856  0.25416144535549284  1.0000
  C   C9        1.0  0.8692136887576467  0.969222725693527  0.317092591921579  1.0000
  C   C10       1.0  0.6307753356815766  0.5307526774819068  0.8170983415117237  1.0000
  C   C11       1.0  0.1307785941176078  0.03077880024896731  0.6829050399774915  1.0000
  C   C12       1.0  0.3692382321897512  0.4692468269098383  0.18291459737631047  1.0000
  C   C13       1.0  0.6786340015099483  0.908179230529669  0.31290423892824754  1.0000
  C   C14       1.0  0.8213630258289655  0.5918119578352403  0.8129088450410578  1.0000
  C   C15       1.0  0.3213560134744142  0.09181537049063591  0.6870872701422857  1.0000
  C   C16       1.0  0.17864959475276984  0.4082014070684111  0.18709368509594534  1.0000
  C   C17       1.0  0.5866434381320218  0.9011609643892556  0.23731580723326576  1.0000
  C   C18       1.0  0.9133451652585622  0.5988414408214453  0.7373157591486645  1.0000
  C   C19       1.0  0.4133550508759782  0.0988385695416412  0.7626799878023577  1.0000
  C   C20       1.0  0.08665526764217898  0.40116402876375196  0.262686770995373  1.0000
  C   C21       1.0  0.38868815934169737  0.8374829320438412  0.2259331547381009  1.0000
  C   C22       1.0  0.11130222160459619  0.6625184827321962  0.7259371971381088  1.0000
  C   C23       1.0  0.611300733959169  0.16251662071730524  0.77405896662885  1.0000
  C   C24       1.0  0.8887071590691991  0.3374849894565983  0.2740634961364705  1.0000
  C   C25       1.0  0.24466167786780346  0.778704247522562  0.281055814162734  1.0000
  C   C26       1.0  0.25532751054127084  0.7212887552711607  0.7810595181097142  1.0000
  C   C27       1.0  0.7553292342325406  0.22129728109025862  0.718936919486346  1.0000
  C   C28       1.0  0.744677682838841  0.2787186847615929  0.2189393383390481  1.0000
  C   C29       1.0  0.08587992290325262  0.7374506862759134  0.23289521126547902  1.0000
  C   C30       1.0  0.41410798664146853  0.7625478261310478  0.7328990370611805  1.0000
  C   C31       1.0  0.9141090452477983  0.262544906710204  0.7670969100914463  1.0000
  C   C32       1.0  0.5859061544721059  0.2374576165246155  0.2671022684895021  1.0000
  C   C33       1.0  0.018302248994977743  0.7532668193361333  0.0810569029716603  1.0000
  C   C34       1.0  0.48169080813600124  0.7467332896331486  0.5810640274009203  1.0000
  C   C35       1.0  0.9816707430014519  0.24672187568214812  0.9189358306847168  1.0000
  C   C36       1.0  0.5183314830087156  0.25327609666245365  0.4189415641130979  1.0000
  C   C37       1.0  0.009700806929352233  0.6224405863008826  0.039011216603533704  1.0000
  C   C38       1.0  0.4902978621822952  0.8775571543849168  0.539018342982196  1.0000
  C   C39       1.0  0.9902763723381368  0.3775441408844813  0.9609858030051586  1.0000
  C   C40       1.0  0.5097330527542924  0.12244924523810849  0.4609841870973527  1.0000
  C   C41       1.0  0.840719047696453  0.5260297436495308  0.036871679809969714  1.0000
  C   C42       1.0  0.6592925996025515  0.9739628976243468  0.5368672674429862  1.0000
  C   C43       1.0  0.15925990121690597  0.4739520103473326  0.9631271766323125  1.0000
  C   C44       1.0  0.3407471882568984  0.0260454643773116  0.46313342577713  1.0000
  C   C45       1.0  0.16971669488753346  0.5953283620186127  0.0016634559994344004  1.0000
  C   C46       1.0  0.3302871005610727  0.9046700232414228  0.5016726434823866  1.0000
  C   C47       1.0  0.8302616060408428  0.4046514134369373  0.9983354004393447  1.0000
  C   C48       1.0  0.6697417207032217  0.0953383603159992  0.498331723451571  1.0000
  I   I1        1.0  0.3490713796481657  0.1518513884690194  0.0540365281605801  1.0000
  I   I2        1.0  0.1509404747616188  0.3481631925347984  0.5540486693317848  1.0000
  I   I3        1.0  0.6509188096452831  0.8481521213637251  0.9459531440868859  1.0000
  I   I4        1.0  0.8490685819027134  0.6518392903916138  0.44595386078591304  1.0000
  N   N1        1.0  0.6780231130523262  0.9544539738774137  0.1682344530256188  1.0000
  N   N2        1.0  0.8219695829038116  0.5455438435305455  0.6682369890379718  1.0000
  N   N3        1.0  0.3219670761789147  0.0455495359856855  0.8317619543197383  1.0000
  N   N4        1.0  0.1780280088524862  0.45444876287405145  0.33177227617812843  1.0000
  N   N5        1.0  0.32001959689721815  0.8317849237913252  0.14867620778568383  1.0000
  N   N6        1.0  0.1799728591809924  0.6682177731697082  0.64867752843967  1.0000
  N   N7        1.0  0.6799720380156701  0.1682146235988142  0.8513189749833787  1.0000
  N   N8        1.0  0.8200347518299651  0.33178867221585767  0.3513231648461925  1.0000
  N   N9        1.0  0.1362212423311533  0.77198038558835  0.1542200594582681  1.0000
  N   N10       1.0  0.3637691673319665  0.7280164257427303  0.6542269952531045  1.0000
  N   N11       1.0  0.8637715891550216  0.2280102502665927  0.8457702250329576  1.0000
  N   N12       1.0  0.6362365745629218  0.27198012424937457  0.34577492257545134  1.0000
