data_image0
_chemical_formula_structural       Zn2H26C42N2O10
_chemical_formula_sum              "Zn2 H26 C42 N2 O10"
_cell_length_a       8.94628646872723
_cell_length_b       18.369588157487744
_cell_length_c       19.686684509127137
_cell_angle_alpha    88.62992628157447
_cell_angle_beta     87.24013110652322
_cell_angle_gamma    82.9645724442232

_space_group_name_H-M_alt    "P 1"
_space_group_IT_number       1

loop_
  _space_group_symop_operation_xyz
  'x, y, z'

loop_
  _atom_site_type_symbol
  _atom_site_label
  _atom_site_symmetry_multiplicity
  _atom_site_fract_x
  _atom_site_fract_y
  _atom_site_fract_z
  _atom_site_occupancy
  Zn  Zn1       1.0  0.4962608449959376  0.5767190566428086  0.49800421619496404  1.0000
  Zn  Zn2       1.0  0.5037927477441572  0.42327435837870553  0.5019942292661099  1.0000
  H   H1        1.0  0.02150952199516348  0.41567198650154324  0.49438107182903224  1.0000
  H   H2        1.0  0.9785538097922098  0.5843395006254539  0.5056489099454993  1.0000
  H   H3        1.0  0.6973895117044294  0.8229049668264566  0.4258316590277004  1.0000
  H   H4        1.0  0.3027426611460697  0.17707775828843358  0.5742226034147607  1.0000
  H   H5        1.0  0.7445307619548486  0.9199104537667326  0.49062177564342596  1.0000
  H   H6        1.0  0.25547471545846895  0.08008376734341031  0.5093693015248775  1.0000
  H   H7        1.0  0.7414874485160965  0.05422870664067151  0.49131935127579857  1.0000
  H   H8        1.0  0.258522909832152  0.945765609388943  0.5086564056887966  1.0000
  H   H9        1.0  0.5090687415319621  0.38684257552010604  0.7178493969081856  1.0000
  H   H10       1.0  0.49092810909763784  0.613148198974983  0.2821642304651348  1.0000
  H   H11       1.0  0.5106568928962147  0.3842625440252761  0.8443828832290946  1.0000
  H   H12       1.0  0.4892706649231399  0.6157360066089411  0.15563121635073432  1.0000
  H   H13       1.0  0.48350804876261594  0.620140022651846  0.8428784919310388  1.0000
  H   H14       1.0  0.5164174888938076  0.3798629583094454  0.15712387975286654  1.0000
  H   H15       1.0  0.47880827414510224  0.6215635202618089  0.7162859247477371  1.0000
  H   H16       1.0  0.5211785627572709  0.378428337064598  0.28371514490955724  1.0000
  H   H17       1.0  0.33540983606069835  0.5972559911935708  0.9403751207157071  1.0000
  H   H18       1.0  0.6644875679518307  0.40275828660676893  0.0596407168209225  1.0000
  H   H19       1.0  0.3374830216755527  0.5955251940217325  0.0656194477359691  1.0000
  H   H20       1.0  0.6623812635571085  0.40447568191689953  0.9343941051333928  1.0000
  H   H21       1.0  0.3250034158119704  0.6995051552170966  0.5616703447428577  1.0000
  H   H22       1.0  0.6749665086197609  0.3004890208152631  0.43827304457116867  1.0000
  H   H23       1.0  0.3135909184404185  0.8353752614142851  0.5701867093819217  1.0000
  H   H24       1.0  0.6863103793114647  0.1646229554415086  0.4297307896122717  1.0000
  H   H25       1.0  0.7107973480189147  0.6202419010939411  0.40667848990928224  1.0000
  H   H26       1.0  0.2893231147408954  0.3797601962601221  0.5933222868318851  1.0000
  C   C1        1.0  0.5087625744076193  0.4943078986623348  0.366558216922833  1.0000
  C   C2        1.0  0.4912604223417106  0.5056825487851244  0.6334438196189396  1.0000
  C   C3        1.0  0.409841739632661  0.5551073140538991  0.9663047320915156  1.0000
  C   C4        1.0  0.5900568831104636  0.44490314765440103  0.033705563546512  1.0000
  C   C5        1.0  0.411007461867591  0.5541331791848735  0.03697230243823671  1.0000
  C   C6        1.0  0.5888787077314604  0.4458777456505061  0.9630386934578964  1.0000
  C   C7        1.0  0.5011547266720271  0.4989956960919529  0.0722222395257646  1.0000
  C   C8        1.0  0.4987257586041024  0.5010074961706865  0.927788980956457  1.0000
  C   C9        1.0  0.40468816254607276  0.7297729547183139  0.5324610018898213  1.0000
  C   C10       1.0  0.5952947611996393  0.27022508839965553  0.46749887589993483  1.0000
  C   C11       1.0  0.39891378587601173  0.8056023056882468  0.5364893087377496  1.0000
  C   C12       1.0  0.6010649049704497  0.19439517153981717  0.4634675988414543  1.0000
  C   C13       1.0  0.5043580805149616  0.8424290998708062  0.49835043839033233  1.0000
  C   C14       1.0  0.495650030084775  0.157565198865811  0.5016258630163009  1.0000
  C   C15       1.0  0.6123870514274046  0.7993191656338683  0.4579847527126404  1.0000
  C   C16       1.0  0.3876956571712712  0.20067159573583382  0.5420386704547155  1.0000
  C   C17       1.0  0.610837455576231  0.7236989221113179  0.45599441239521343  1.0000
  C   C18       1.0  0.3892601900321396  0.2762902855663185  0.5440303213724961  1.0000
  C   C19       1.0  0.636863137147614  0.9549210211520107  0.49387234837009697  1.0000
  C   C20       1.0  0.3631424059420496  0.045074927465492506  0.5060993938742868  1.0000
  C   C21       1.0  0.6350100438252895  0.03072800525256271  0.49407117390916966  1.0000
  C   C22       1.0  0.3650015691707937  0.969266339893835  0.5058994823509622  1.0000
  C   C23       1.0  0.7946477732613317  0.47795848997949275  0.4997275190103068  1.0000
  C   C24       1.0  0.2054117460768907  0.5220475126670721  0.5002934744773881  1.0000
  C   C25       1.0  0.49812011374732634  0.07716650245593118  0.5002455281967642  1.0000
  C   C26       1.0  0.5018895310154932  0.922825579514786  0.4997378987662131  1.0000
  C   C27       1.0  0.9618854344322899  0.47093632249733036  0.49831163314764376  1.0000
  C   C28       1.0  0.03816666832128852  0.5290679729201813  0.5017115410079995  1.0000
  C   C29       1.0  0.503433993981581  0.4376049471570128  0.7459085314747114  1.0000
  C   C30       1.0  0.4965373680005384  0.5623889520700376  0.2541054519051613  1.0000
  C   C31       1.0  0.5056631291980551  0.43650357301471143  0.816522360339654  1.0000
  C   C32       1.0  0.494278957895915  0.563498916917233  0.18349296178313074  1.0000
  C   C33       1.0  0.49712820247044226  0.5020741695632652  0.8528221693706685  1.0000
  C   C34       1.0  0.5027833647963007  0.49792977671225475  0.14719006237043433  1.0000
  C   C35       1.0  0.48679991418026  0.5688251905568366  0.8157281170263743  1.0000
  C   C36       1.0  0.5131338860685304  0.4311761956072645  0.1842746572769158  1.0000
  C   C37       1.0  0.48515248378942744  0.5699788341063582  0.7451126707602498  1.0000
  C   C38       1.0  0.514822302324262  0.4300118321018474  0.2548911531909468  1.0000
  C   C39       1.0  0.49303803221332754  0.5043876260468354  0.7094327535606482  1.0000
  C   C40       1.0  0.5069622922307175  0.49560376279299606  0.29057064731672  1.0000
  C   C41       1.0  0.7247642267609892  0.6790106284022103  0.4103718328408732  1.0000
  C   C42       1.0  0.2754418505344206  0.3209797316852914  0.5896836498104179  1.0000
  N   N1        1.0  0.5080516956545011  0.6892364503371696  0.4927889492324696  1.0000
  N   N2        1.0  0.49200858526855734  0.310757007944247  0.507209895948165  1.0000
  O   O1        1.0  0.5018846208044749  0.5562296408318517  0.39555917814630703  1.0000
  O   O2        1.0  0.49819653475798026  0.4437567999941977  0.6044430082861894  1.0000
  O   O3        1.0  0.5170467578292486  0.43205120035813144  0.3969696494758921  1.0000
  O   O4        1.0  0.48296047609861853  0.5679396939733722  0.603031616810668  1.0000
  O   O5        1.0  0.7233198061680498  0.5424890905513778  0.5015881460664318  1.0000
  O   O6        1.0  0.2767284744276282  0.4575168256302365  0.4984355696314253  1.0000
  O   O7        1.0  0.7353022086272603  0.4183166607342771  0.49896732850587705  1.0000
  O   O8        1.0  0.2647712409809487  0.5816868203672669  0.5010209722413492  1.0000
  O   O9        1.0  0.8254094152487214  0.7069359120890227  0.3790857761960353  1.0000
  O   O10       1.0  0.17488771326927122  0.2930410081415076  0.621046706406247  1.0000
