data_image0
_chemical_formula_structural       Zn2H34C41N4O12
_chemical_formula_sum              "Zn2 H34 C41 N4 O12"
_cell_length_a       14.692824626405434
_cell_length_b       16.087448789395395
_cell_length_c       16.08918569240661
_cell_angle_alpha    89.70909881810591
_cell_angle_beta     89.48455202059907
_cell_angle_gamma    89.33712581919507

_space_group_name_H-M_alt    "P 1"
_space_group_IT_number       1

loop_
  _space_group_symop_operation_xyz
  'x, y, z'

loop_
  _atom_site_type_symbol
  _atom_site_label
  _atom_site_symmetry_multiplicity
  _atom_site_fract_x
  _atom_site_fract_y
  _atom_site_fract_z
  _atom_site_occupancy
  Zn  Zn1       1.0  0.5957543913581701  0.49891517114588874  0.49938894281709156  1.0000
  Zn  Zn2       1.0  0.4034175655281587  0.5005157911354204  0.5003255051876678  1.0000
  H   H1        1.0  0.5010348983934776  0.05343318282764641  0.3601963946246514  1.0000
  H   H2        1.0  0.6358576855777685  0.9470525653587673  0.42978624283011857  1.0000
  H   H3        1.0  0.363816941496161  0.9517002752671715  0.4308414203093562  1.0000
  H   H4        1.0  0.3637513213834254  0.05209476614871279  0.5758819724587949  1.0000
  H   H5        1.0  0.6360906041037923  0.047410075272111406  0.5748226920125745  1.0000
  H   H6        1.0  0.6449495456474637  0.5390591637753345  0.9252588622125513  1.0000
  H   H7        1.0  0.6460392599118449  0.5385360410115254  0.0704846998154807  1.0000
  H   H8        1.0  0.38903354035354454  0.5916697134514808  0.07113686486187018  1.0000
  H   H9        1.0  0.3879712228657652  0.5915690191270359  0.9308779881244077  1.0000
  H   H10       1.0  0.468018198106293  0.37692252967687523  0.07377465748695759  1.0000
  H   H11       1.0  0.37257296246456667  0.44433744588761204  0.0749292010623748  1.0000
  H   H12       1.0  0.4672452473533397  0.37701902422568884  0.9279624167002112  1.0000
  H   H13       1.0  0.6238921725025578  0.4307724099828577  0.07120735216875568  1.0000
  H   H14       1.0  0.6232635407304701  0.43121839776889453  0.9256555556740408  1.0000
  H   H15       1.0  0.37173185945756876  0.4443332298288071  0.9286995885330709  1.0000
  H   H16       1.0  0.9216080427540447  0.5243610654780184  0.3668727563630796  1.0000
  H   H17       1.0  0.08050125745687352  0.5253949832971686  0.3676772953492247  1.0000
  H   H18       1.0  0.0757306677070844  0.6030994482636487  0.5876043123094945  1.0000
  H   H19       1.0  0.0768731214847946  0.6344051706303873  0.4822624610171998  1.0000
  H   H20       1.0  0.9179512025758427  0.6335641544848373  0.4813331170234675  1.0000
  H   H21       1.0  0.9168169616434128  0.6024324172325634  0.5867252136936683  1.0000
  H   H22       1.0  0.0806978658688706  0.3734618722745752  0.5459816861997735  1.0000
  H   H23       1.0  0.0780143331249761  0.44904945079480296  0.6252153678800241  1.0000
  H   H24       1.0  0.921801517140942  0.37264368267630493  0.545165172164495  1.0000
  H   H25       1.0  0.0821975960975863  0.4186166287959027  0.3937061035886983  1.0000
  H   H26       1.0  0.9233390060418429  0.41764456083945595  0.3931142428049839  1.0000
  H   H27       1.0  0.9191364951825066  0.44815779064173716  0.6244735674129983  1.0000
  H   H28       1.0  0.4373957191261368  0.9291578992960013  0.8360622647625531  1.0000
  H   H29       1.0  0.5577085433852959  0.9272731045271031  0.8357277325138666  1.0000
  H   H30       1.0  0.4979013869618072  0.016774466650801408  0.8719022106693683  1.0000
  H   H31       1.0  0.5590205070208755  0.042806368609682004  0.7279265662869037  1.0000
  H   H32       1.0  0.4392060616034145  0.04497466166613152  0.7283182154001224  1.0000
  H   H33       1.0  0.4381413365115634  0.8965325309122746  0.6780759498545875  1.0000
  H   H34       1.0  0.5579067427849439  0.8943077340674108  0.677673094887524  1.0000
  C   C1        1.0  0.49904102856142873  0.502022754095087  0.3375399791194268  1.0000
  C   C2        1.0  0.501879777242813  0.3382518498073707  0.5003655524651831  1.0000
  C   C3        1.0  0.4974928537193577  0.5003897390766596  0.6622557281976426  1.0000
  C   C4        1.0  0.49951683488383486  0.6609863530978541  0.5009503837180773  1.0000
  C   C5        1.0  0.5756219521121864  0.9712274345542157  0.4623997164792541  1.0000
  C   C6        1.0  0.500506493061863  0.028480869880887404  0.4235364796768336  1.0000
  C   C7        1.0  0.5016336101095646  0.24855044027381729  0.5019160506576339  1.0000
  C   C8        1.0  0.49910395691983217  0.7505821214804415  0.5017934735979565  1.0000
  C   C9        1.0  0.5756975263725793  0.025309684958706703  0.5427301491105894  1.0000
  C   C10       1.0  0.5005673718429193  0.08489728044991549  0.504220817273122  1.0000
  C   C11       1.0  0.4992346465125976  0.9703402368724027  0.5828727827090248  1.0000
  C   C12       1.0  0.4992194706219024  0.9141202670611792  0.5012003421480458  1.0000
  C   C13       1.0  0.4240931614534063  0.027925338916205102  0.5433011962112246  1.0000
  C   C14       1.0  0.4241095623434745  0.9737752243688931  0.46297836659510944  1.0000
  C   C15       1.0  0.5012170610196236  0.1727938951719921  0.5034321755908592  1.0000
  C   C16       1.0  0.498867413666396  0.8263435775588732  0.5013173890437628  1.0000
  C   C17       1.0  0.6006265413271948  0.49109002317477046  0.04654770813608879  1.0000
  C   C18       1.0  0.45942605710425966  0.5879325293976124  0.0485233029205148  1.0000
  C   C19       1.0  0.4587281587639397  0.5879266613220085  0.9514237378332806  1.0000
  C   C20       1.0  0.4980526688330116  0.5034259785743915  0.752436526396579  1.0000
  C   C21       1.0  0.5034984945823453  0.5062432040431163  0.08165067400931747  1.0000
  C   C22       1.0  0.6000501646941956  0.4913193223677085  0.950634045059189  1.0000
  C   C23       1.0  0.5024762426054608  0.5063490744989495  0.9179444958914259  1.0000
  C   C24       1.0  0.4409544957860945  0.4360663840093366  0.9529153086071033  1.0000
  C   C25       1.0  0.44149863670638473  0.4360333255185723  0.049005627212871196  1.0000
  C   C26       1.0  0.5001109751611424  0.505859052259126  0.8277865129923754  1.0000
  C   C27       1.0  0.5020301920283146  0.506096826692506  0.17187328297283946  1.0000
  C   C28       1.0  0.5001308444302666  0.5044453705399548  0.24730186836328008  1.0000
  C   C29       1.0  0.05391635230479611  0.4793625472462395  0.4119794809632323  1.0000
  C   C30       1.0  0.05021340457148679  0.5876130304687026  0.525719084991792  1.0000
  C   C31       1.0  0.9448994841895129  0.5871063470351743  0.5251521318847097  1.0000
  C   C32       1.0  0.08722526771001779  0.500682506599297  0.5004197220927864  1.0000
  C   C33       1.0  0.9486547542447354  0.47874129753572  0.4115119883378284  1.0000
  C   C34       1.0  0.9118850059621622  0.4997937154162457  0.49960329216803245  1.0000
  C   C35       1.0  0.9471819908920196  0.43399896837577506  0.5626023984761304  1.0000
  C   C36       1.0  0.0524429903067372  0.43455241805819605  0.5631018495200164  1.0000
  C   C37       1.0  0.8132825617104091  0.49922074195774263  0.4992104408807876  1.0000
  C   C38       1.0  0.18582871442962562  0.5009304626642861  0.5007348542243404  1.0000
  C   C39       1.0  0.49846246234656644  0.9361135938282387  0.6697400667768747  1.0000
  C   C40       1.0  0.4986995459082238  0.0034956443528458  0.736794707979385  1.0000
  C   C41       1.0  0.49786761898720755  0.9674078504024736  0.8248935028786162  1.0000
  N   N1        1.0  0.7344884224890366  0.4985922414911883  0.49895278517586666  1.0000
  N   N2        1.0  0.2646299422244809  0.5008206245074335  0.5008566312710698  1.0000
  N   N3        1.0  0.5005857877298183  0.6665745834114034  0.0851449074510455  1.0000
  N   N4        1.0  0.49895267311222113  0.6668737205001206  0.9129452256943933  1.0000
  O   O1        1.0  0.5764401176591178  0.49999116457465226  0.3722257549584284  1.0000
  O   O2        1.0  0.42098629685518313  0.5020046985796541  0.37233063376880426  1.0000
  O   O3        1.0  0.5795611168496819  0.3727352086236095  0.4993684167605962  1.0000
  O   O4        1.0  0.4242339658678773  0.37460342423862164  0.5002118403336908  1.0000
  O   O5        1.0  0.5751619996249603  0.4979448243210813  0.6268434523736417  1.0000
  O   O6        1.0  0.41971420901277406  0.5004104391938995  0.6282555356960273  1.0000
  O   O7        1.0  0.5773283188525867  0.6249886871634022  0.5003487635443874  1.0000
  O   O8        1.0  0.4220220027369733  0.6260542569596835  0.5007829652783614  1.0000
  O   O9        1.0  0.5840958263558492  0.6712819438686637  0.09000619333509967  1.0000
  O   O10       1.0  0.4451100333479304  0.7204498517629219  0.1076012780487261  1.0000
  O   O11       1.0  0.4429367938101124  0.7214047726278565  0.8935852399267219  1.0000
  O   O12       1.0  0.5821546842744638  0.6712678650750733  0.9037292450051808  1.0000
