data_image0
_chemical_formula_structural       Cu2H18C28S2N12
_chemical_formula_sum              "Cu2 H18 C28 S2 N12"
_cell_length_a       5.650347712372873
_cell_length_b       8.341188382391172
_cell_length_c       14.106911112300278
_cell_angle_alpha    85.90737899548564
_cell_angle_beta     82.78443182777504
_cell_angle_gamma    86.3157585828517

_space_group_name_H-M_alt    "P 1"
_space_group_IT_number       1

loop_
  _space_group_symop_operation_xyz
  'x, y, z'

loop_
  _atom_site_type_symbol
  _atom_site_label
  _atom_site_symmetry_multiplicity
  _atom_site_fract_x
  _atom_site_fract_y
  _atom_site_fract_z
  _atom_site_occupancy
  Cu  Cu1       1.0  0.4026810349326412  0.6541653654916146  0.4953732265988935  1.0000
  Cu  Cu2       1.0  0.5972869268349894  0.3458398564034796  0.5046243985296288  1.0000
  H   H1        1.0  0.3415244087991026  0.9929347988298505  0.4185127229693963  1.0000
  H   H2        1.0  0.658458742230458  0.007080057016345612  0.5814815316329318  1.0000
  H   H3        1.0  0.5875101845978251  0.186605867750302  0.31204715228138724  1.0000
  H   H4        1.0  0.41250439582289994  0.8133961158446043  0.6879519949694742  1.0000
  H   H5        1.0  0.1454468379847853  0.8099759440344344  0.2785573545508627  1.0000
  H   H6        1.0  0.8545372989803254  0.19000789723283162  0.7214463481261578  1.0000
  H   H7        1.0  0.8765164846305638  0.629802896282392  0.38417820164895755  1.0000
  H   H8        1.0  0.12345079506470567  0.37019033324895645  0.6158215291735732  1.0000
  H   H9        1.0  0.5588574576453454  0.1358624708097267  0.09803542871966904  1.0000
  H   H10       1.0  0.4411500724498936  0.8641362806055284  0.9019755728557048  1.0000
  H   H11       1.0  0.3150620914769746  0.6159540380147349  0.039962889232775516  1.0000
  H   H12       1.0  0.6849638693241429  0.38405999386466055  0.9600336443658366  1.0000
  H   H13       1.0  0.14441407427205627  0.8979071290715055  0.009781006099018389  1.0000
  H   H14       1.0  0.8555877170786912  0.10209834783072581  0.990217135698089  1.0000
  H   H15       1.0  0.49445324512139877  0.7932935617323054  0.16265177451695226  1.0000
  H   H16       1.0  0.5055639116190278  0.20670000668729935  0.8373477110368132  1.0000
  H   H17       1.0  0.6366399540807278  0.5066502468804616  0.20024252137432808  1.0000
  H   H18       1.0  0.363398000393964  0.4933495028272218  0.799757062948814  1.0000
  C   C1        1.0  0.8880351346731884  0.6246652261377507  0.5822987920595682  1.0000
  C   C2        1.0  0.11195193643391828  0.3753267985158929  0.4176972343254307  1.0000
  C   C3        1.0  0.5207206862632248  0.9569221711848003  0.38619199058325665  1.0000
  C   C4        1.0  0.47926374400111627  0.0430783725438744  0.6138065311028316  1.0000
  C   C5        1.0  0.6576622164516904  0.064258055217465  0.3268378370971306  1.0000
  C   C6        1.0  0.3423418923091078  0.9357414654580084  0.6731619389584227  1.0000
  C   C7        1.0  0.8867167859489766  0.013865781343390903  0.2862415049018666  1.0000
  C   C8        1.0  0.1132826536021199  0.9861264903756324  0.7137588876721852  1.0000
  C   C9        1.0  0.9690878786008527  0.8554305305872989  0.3084807483264812  1.0000
  C   C10       1.0  0.03089540016415531  0.14456286074995717  0.6915203457616956  1.0000
  C   C11       1.0  0.8199509235052812  0.7546485442872496  0.3675114689997231  1.0000
  C   C12       1.0  0.1800236343895989  0.2453424454005528  0.6324915860354424  1.0000
  C   C13       1.0  0.03361104383321128  0.12486441041230731  0.2208365280732495  1.0000
  C   C14       1.0  0.9663927088246709  0.875138746736141  0.7791637751136168  1.0000
  C   C15       1.0  0.08372605324986888  0.3732600913422176  0.14567586248960407  1.0000
  C   C16       1.0  0.9162905046087602  0.6267395465239858  0.8543247377500055  1.0000
  C   C17       1.0  0.37968335555394356  0.17776844467153555  0.12804554876499455  1.0000
  C   C18       1.0  0.6203223100187714  0.8222324706479257  0.8719590410146201  1.0000
  C   C19       1.0  0.9892092766130742  0.5398632520860575  0.12415572610294137  1.0000
  C   C20       1.0  0.010807248984022492  0.4601364377300072  0.8758462909386682  1.0000
  C   C21       1.0  0.1330398212381425  0.6514665823327022  0.06916634191161822  1.0000
  C   C22       1.0  0.8669711446876107  0.34853546054675644  0.9308350998616466  1.0000
  C   C23       1.0  0.03723962587546478  0.8074261499007066  0.05201131716518859  1.0000
  C   C24       1.0  0.962764320760307  0.19257567387374053  0.9479855044399063  1.0000
  C   C25       1.0  0.6752026691767695  0.7487717444602425  0.1365008950017527  1.0000
  C   C26       1.0  0.3248122834776551  0.2512265766867685  0.8634970167167996  1.0000
  C   C27       1.0  0.7542897444051488  0.5901496028437024  0.15794121272764985  1.0000
  C   C28       1.0  0.24572999119170186  0.4098537420855735  0.8420611621258589  1.0000
  S   S1        1.0  0.6247543884494533  0.5558598350869416  0.6200731735060859  1.0000
  S   S2        1.0  0.3752454870410488  0.44413071363413076  0.3799131114712041  1.0000
  N   N1        1.0  0.0789847165389403  0.6707482371037727  0.5530983995621812  1.0000
  N   N2        1.0  0.9210176439687884  0.3292694139867081  0.44690259534791493  1.0000
  N   N3        1.0  0.5981603935397927  0.8030831602545375  0.4066148022953089  1.0000
  N   N4        1.0  0.4018096267282587  0.19691856436235608  0.5933857530472013  1.0000
  N   N5        1.0  0.9406024330247575  0.2745797791039735  0.2026618974731776  1.0000
  N   N6        1.0  0.05940336159410008  0.7254209284160424  0.7973370250984434  1.0000
  N   N7        1.0  0.30816130840266  0.33076016709992473  0.10734508934378084  1.0000
  N   N8        1.0  0.6918586865125036  0.6692396972059599  0.8926610087844156  1.0000
  N   N9        1.0  0.2523013091049222  0.06936254155186108  0.18364485767951075  1.0000
  N   N10       1.0  0.747695181892787  0.930641807790373  0.8163564321239467  1.0000
  N   N11       1.0  0.8123847538007707  0.8570701994679129  0.084711358976655  1.0000
  N   N12       1.0  0.1876089962154879  0.14292667646361681  0.9152840870766004  1.0000
