data_image0
_chemical_formula_structural       Cd2H22C32N6O14
_chemical_formula_sum              "Cd2 H22 C32 N6 O14"
_cell_length_a       8.491852254249563
_cell_length_b       10.273251552072935
_cell_length_c       10.53243580768057
_cell_angle_alpha    108.47848400389383
_cell_angle_beta     93.74383755001196
_cell_angle_gamma    102.35330757232019

_space_group_name_H-M_alt    "P 1"
_space_group_IT_number       1

loop_
  _space_group_symop_operation_xyz
  'x, y, z'

loop_
  _atom_site_type_symbol
  _atom_site_label
  _atom_site_symmetry_multiplicity
  _atom_site_fract_x
  _atom_site_fract_y
  _atom_site_fract_z
  _atom_site_occupancy
  Cd  Cd1       1.0  0.4645224246583623  0.4029591231913871  0.6268524558431282  1.0000
  Cd  Cd2       1.0  0.5354801882901793  0.5970392437887  0.37314678123125594  1.0000
  H   H1        1.0  0.2622853329650566  0.17521491105397052  0.9414907976995792  1.0000
  H   H2        1.0  0.7377092877324997  0.8247801987998928  0.058504208063965266  1.0000
  H   H3        1.0  0.48314576649922697  0.9226585954000158  0.6297782338502458  1.0000
  H   H4        1.0  0.5168520925854166  0.07733971230796753  0.37021790456838494  1.0000
  H   H5        1.0  0.31034109372325247  0.765022173555984  0.9423914432559072  1.0000
  H   H6        1.0  0.6896552990420944  0.23497507138517906  0.05760524916508563  1.0000
  H   H7        1.0  0.7575655359740026  0.29550526254586645  0.523305701119483  1.0000
  H   H8        1.0  0.24243796446515375  0.7044962953991885  0.47669645065315086  1.0000
  H   H9        1.0  0.741147265687928  0.6157418417729872  0.8739407929173667  1.0000
  H   H10       1.0  0.25885534273535166  0.38426076555062144  0.12606163507576437  1.0000
  H   H11       1.0  0.032071817757646726  0.6414301509176144  0.9627842553429744  1.0000
  H   H12       1.0  0.9679261157140785  0.3585682217815248  0.0372214012785932  1.0000
  H   H13       1.0  0.19039703535990063  0.4820165889336963  0.8203147918865028  1.0000
  H   H14       1.0  0.8096029804533555  0.5179807508296862  0.17969160113357674  1.0000
  H   H15       1.0  0.17867481496006118  0.12213327045054001  0.3794764696210819  1.0000
  H   H16       1.0  0.821322756166964  0.8778682247778421  0.6205234745173698  1.0000
  H   H17       1.0  0.9791200130613475  0.012531633268920907  0.31361651991954187  1.0000
  H   H18       1.0  0.02088022214933732  0.9874709476682003  0.6863848346558541  1.0000
  H   H19       1.0  0.7671534302405333  0.025050351630326907  0.48870120099069686  1.0000
  H   H20       1.0  0.23284856668578155  0.9749501110523299  0.5112967456828201  1.0000
  H   H21       1.0  0.8474891529400493  0.1367910163870505  0.6570457572712841  1.0000
  H   H22       1.0  0.15250841818697583  0.8632104788413247  0.3429541868671677  1.0000
  C   C1        1.0  0.44660515418102875  0.691424111263224  0.7164420351351025  1.0000
  C   C2        1.0  0.5533962758805726  0.30857424577316567  0.2835571411405695  1.0000
  C   C3        1.0  0.406821903915599  0.17892874085065816  0.7224278518266516  1.0000
  C   C4        1.0  0.5931747945982266  0.8210695764109774  0.2775710812541448  1.0000
  C   C5        1.0  0.37931059059283695  0.062043252966312024  0.78191664962727  1.0000
  C   C6        1.0  0.6206852129916669  0.9379518668312419  0.21807841693499344  1.0000
  C   C7        1.0  0.30161154845981025  0.07878877351058833  0.8967767307147342  1.0000
  C   C8        1.0  0.6983824710929339  0.9212084450440726  0.1032188882885307  1.0000
  C   C9        1.0  0.4270384306908284  0.9364284789624621  0.7219871723625104  1.0000
  C   C10       1.0  0.5729611781454764  0.0635719443354716  0.2780077972526982  1.0000
  C   C11       1.0  0.4019513745439908  0.8293726799606349  0.7796648921475722  1.0000
  C   C12       1.0  0.5980482834498202  0.17062354198846216  0.22033259747065162  1.0000
  C   C13       1.0  0.3275773054381119  0.8470707835815292  0.8965167426367131  1.0000
  C   C14       1.0  0.6724176061305158  0.1529253855945782  0.10347860014605463  1.0000
  C   C15       1.0  0.27588213427659264  0.9702622706548215  0.9513277199231425  1.0000
  C   C16       1.0  0.7241092286312066  0.02973386869022221  0.048667440463468416  1.0000
  C   C17       1.0  0.8237549825284277  0.3697556577766363  0.6202655787682616  1.0000
  C   C18       1.0  0.17624585382706925  0.6302448144596724  0.379735162567421  1.0000
  C   C19       1.0  0.8150032277529322  0.5498487615591899  0.8165575785374203  1.0000
  C   C20       1.0  0.18499614228326777  0.45015064791029874  0.18344371680061763  1.0000
  C   C21       1.0  0.9764131098887602  0.5626786948104228  0.864774848115232  1.0000
  C   C22       1.0  0.02358806197005243  0.43732287574282963  0.13523194116142895  1.0000
  C   C23       1.0  0.9852768632918082  0.3751317613968369  0.6612928801766883  1.0000
  C   C24       1.0  0.014726950334541295  0.6248708753678117  0.3387124640760391  1.0000
  C   C25       1.0  0.06370953769167194  0.47460707171054406  0.7862852262881433  1.0000
  C   C26       1.0  0.9362942953373544  0.5253913377088042  0.21371883068643166  1.0000
  C   C27       1.0  0.0730784185870448  0.2855815050332354  0.564748403865913  1.0000
  C   C28       1.0  0.9269262573003443  0.7144200563563887  0.4352528568851426  1.0000
  C   C29       1.0  0.07388938669419078  0.05531459878888972  0.4027488183959634  1.0000
  C   C30       1.0  0.9261137811551021  0.9446901076818721  0.5972514281747294  1.0000
  C   C31       1.0  0.876883388488565  0.06626377703750562  0.5647234622281516  1.0000
  C   C32       1.0  0.1231189216249362  0.9337377644647378  0.435277676925466  1.0000
  N   N1        1.0  0.7409187347456481  0.45497181648203633  0.6961340308972552  1.0000
  N   N2        1.0  0.2590841719874034  0.5450318566629377  0.303869685935382  1.0000
  N   N3        1.0  0.009971454398161899  0.14420721338348844  0.5151360738394501  1.0000
  N   N4        1.0  0.990030843751377  0.8557985619631694  0.4848673044126173  1.0000
  N   N5        1.0  0.1901792382488664  0.9859410562193957  0.06946245794766515  1.0000
  N   N6        1.0  0.8098168710841163  0.014055135898630108  0.9305348492744019  1.0000
  O   O1        1.0  0.4773231784298914  0.16242378924847153  0.6174033878890057  1.0000
  O   O2        1.0  0.5226782441929955  0.837574561288804  0.38259483656636917  1.0000
  O   O3        1.0  0.3562083399667912  0.28836975014449723  0.7797923420586415  1.0000
  O   O4        1.0  0.6437919072078631  0.7116285969482095  0.22020677341831169  1.0000
  O   O5        1.0  0.44636608902911945  0.61208186233106  0.7879059534734554  1.0000
  O   O6        1.0  0.5536344490166057  0.3879175440838908  0.21209349902272123  1.0000
  O   O7        1.0  0.47594399631967815  0.6580546989713556  0.5951512389171967  1.0000
  O   O8        1.0  0.5240583406352144  0.3419426216847086  0.4048495647785586  1.0000
  O   O9        1.0  0.16253982842978593  0.8856817828240158  0.11381814555553407  1.0000
  O   O10       1.0  0.837457146077689  0.11431758076163595  0.8861792209038981  1.0000
  O   O11       1.0  0.1486459242013609  0.09815801140873501  0.11889695658297231  1.0000
  O   O12       1.0  0.8513522480704763  0.9018413751188352  0.8811023743157592  1.0000
  O   O13       1.0  0.19626260759626038  0.34582964756034335  0.5256753676480983  1.0000
  O   O14       1.0  0.8037382242339743  0.6541750650194944  0.47432856460633127  1.0000
