data_image0
_chemical_formula_structural       Zn2H24C48I4N12O12
_chemical_formula_sum              "Zn2 H24 C48 I4 N12 O12"
_cell_length_a       9.741559262302843
_cell_length_b       12.590367661124278
_cell_length_c       12.723281730743775
_cell_angle_alpha    101.64311725434591
_cell_angle_beta     94.37949423290286
_cell_angle_gamma    107.2154931109819

_space_group_name_H-M_alt    "P 1"
_space_group_IT_number       1

loop_
  _space_group_symop_operation_xyz
  'x, y, z'

loop_
  _atom_site_type_symbol
  _atom_site_label
  _atom_site_symmetry_multiplicity
  _atom_site_fract_x
  _atom_site_fract_y
  _atom_site_fract_z
  _atom_site_occupancy
  Zn  Zn1       1.0  0.9100771320332373  0.665989517428649  0.05175128277993222  1.0000
  Zn  Zn2       1.0  0.08992265896691982  0.33401074345155024  0.9482520031382293  1.0000
  H   H1        1.0  0.03708481232757784  0.8651560775660769  0.2514996069107056  1.0000
  H   H2        1.0  0.9629229258134728  0.13485360398395585  0.7485029161204153  1.0000
  H   H3        1.0  0.6531660741988077  0.7497546942949711  0.031631916567469893  1.0000
  H   H4        1.0  0.3468490785702869  0.2502481535614436  0.9683632698112348  1.0000
  H   H5        1.0  0.599058090160227  0.31954915648798027  0.7639466822223682  1.0000
  H   H6        1.0  0.4009471913891788  0.6804519401037936  0.23605706139162663  1.0000
  H   H7        1.0  0.20258874437706714  0.16437498618121543  0.5582709003422225  1.0000
  H   H8        1.0  0.7974148497685789  0.8356321468971544  0.4417300898208225  1.0000
  H   H9        1.0  0.053748676738685254  0.5890425274423309  0.23239481245450833  1.0000
  H   H10       1.0  0.9462449401846912  0.4109577635900692  0.7676073757887352  1.0000
  H   H11       1.0  0.6388509206299275  0.4778704009882945  0.05186044757103762  1.0000
  H   H12       1.0  0.36113776443659873  0.522120520684304  0.9481348094402051  1.0000
  H   H13       1.0  0.8303415478208648  0.08070678399329273  0.5296510557490565  1.0000
  H   H14       1.0  0.16966026992329847  0.9192960902042134  0.4703465934354227  1.0000
  H   H15       1.0  0.8426038199990488  0.41979151051376107  0.5026249842672357  1.0000
  H   H16       1.0  0.15739494829233544  0.5802113439861429  0.49737643381889274  1.0000
  H   H17       1.0  0.04508294096866902  0.22655466174447275  0.2815954815754083  1.0000
  H   H18       1.0  0.9549165023478141  0.7734499291847287  0.718403190676078  1.0000
  H   H19       1.0  0.41034689990942047  0.9279504346045683  0.28797213976513797  1.0000
  H   H20       1.0  0.5896631834966329  0.07204977391446481  0.7120332372923742  1.0000
  H   H21       1.0  0.3949626014204171  0.2685391597696808  0.2920456550174677  1.0000
  H   H22       1.0  0.6050418974326064  0.731457705582045  0.7079508745058192  1.0000
  H   H23       1.0  0.6223908526037789  0.11211968280613861  0.0618668033799281  1.0000
  H   H24       1.0  0.37760224380554075  0.8878669371884133  0.9381277804146181  1.0000
  C   C1        1.0  0.8903561579521766  0.9681516185868517  0.2765399854848098  1.0000
  C   C2        1.0  0.1096467150008209  0.03185122634906891  0.7234608559788072  1.0000
  C   C3        1.0  0.9339467615651316  0.8763177947898768  0.22596533536451346  1.0000
  C   C4        1.0  0.06605819963559159  0.12368760656094219  0.7740369347567082  1.0000
  C   C5        1.0  0.72099130640094  0.8121248934338113  0.102801747770414  1.0000
  C   C6        1.0  0.2790135624646909  0.18787540449069703  0.8971947332826674  1.0000
  C   C7        1.0  0.6829557374764263  0.9056558941261911  0.1569503540033637  1.0000
  C   C8        1.0  0.3170457649251119  0.09434349691861144  0.8430536239991184  1.0000
  C   C9        1.0  0.538693444965638  0.2712671987667434  0.6843346684579216  1.0000
  C   C10       1.0  0.4613080557672121  0.7287347882486445  0.3156667087743017  1.0000
  C   C11       1.0  0.610086968324737  0.23865268217954147  0.5974144771644632  1.0000
  C   C12       1.0  0.3899145255743691  0.761349311158327  0.4025861150242918  1.0000
  C   C13       1.0  0.39567412495178184  0.1554784944896781  0.4863561588672169  1.0000
  C   C14       1.0  0.6043263205722412  0.8445235217872809  0.5136420260858685  1.0000
  C   C15       1.0  0.32053727730004056  0.18589084151830088  0.5709884931498408  1.0000
  C   C16       1.0  0.6794645797779212  0.8141145907148442  0.4290112655252257  1.0000
  C   C17       1.0  0.9439880167395885  0.5286278164526337  0.2145134577790984  1.0000
  C   C18       1.0  0.05600697923767237  0.4713733261778118  0.7854889797390143  1.0000
  C   C19       1.0  0.8990564758641995  0.4359725850679511  0.2631607248114918  1.0000
  C   C20       1.0  0.1009391899731042  0.564027704343701  0.7368407825987545  1.0000
  C   C21       1.0  0.6763160761534053  0.37372679485226  0.16257179031269692  1.0000
  C   C22       1.0  0.32367952468379724  0.6262683658431244  0.8374270682033114  1.0000
  C   C23       1.0  0.713245538099784  0.4666559363059334  0.11383069840536558  1.0000
  C   C24       1.0  0.28674453285437823  0.53333583064223  0.8861655929242147  1.0000
  C   C25       1.0  0.9413382594058746  0.1444460031907013  0.4027154443069705  1.0000
  C   C26       1.0  0.05866046104927163  0.8555568955666293  0.5972804784748292  1.0000
  C   C27       1.0  0.8649979968403799  0.15175478414789006  0.49072897564336415  1.0000
  C   C28       1.0  0.1350041994188232  0.8482489203293184  0.5092720108846437  1.0000
  C   C29       1.0  0.8302600317953408  0.25184498862803656  0.5247884343961218  1.0000
  C   C30       1.0  0.16974146210376526  0.7481570047098387  0.47521215779263304  1.0000
  C   C31       1.0  0.8706501852782368  0.3424753334083874  0.4744608368588175  1.0000
  C   C32       1.0  0.1293472364593029  0.657529233851605  0.5255416563995681  1.0000
  C   C33       1.0  0.9481704645558581  0.33136829004049423  0.3876497853829406  1.0000
  C   C34       1.0  0.051828615581769176  0.6686328619934373  0.6123497203822268  1.0000
  C   C35       1.0  0.9856456909718077  0.23345225841223544  0.35049368711184314  1.0000
  C   C36       1.0  0.014353779679666539  0.7665523072270092  0.6495081253135453  1.0000
  C   C37       1.0  0.5178967464163621  0.010859252965723  0.16978022821343333  1.0000
  C   C38       1.0  0.4821002214759175  0.9891341760021103  0.8302199102607517  1.0000
  C   C39       1.0  0.43826296131825865  0.004060418722623601  0.2558360795633021  1.0000
  C   C40       1.0  0.5617419553836032  0.9959398349444656  0.744165896794108  1.0000
  C   C41       1.0  0.3969242753136371  0.0982290747605532  0.2993329111254042  1.0000
  C   C42       1.0  0.6030781882929546  0.9017677795669458  0.7006658693178309  1.0000
  C   C43       1.0  0.42978372142211896  0.19587079928345474  0.25821009703206244  1.0000
  C   C44       1.0  0.5702142590078196  0.8041252343283177  0.7417859226901555  1.0000
  C   C45       1.0  0.5108566926746648  0.19838415731480552  0.1730959546512452  1.0000
  C   C46       1.0  0.4891409040751712  0.8016084563691664  0.8268985434542202  1.0000
  C   C47       1.0  0.556909145019354  0.10708446270528782  0.1274233200102088  1.0000
  C   C48       1.0  0.44308710517665173  0.8929098637387656  0.8725722532675136  1.0000
  I   I1        1.0  0.18485117951252056  0.7437700933106657  0.07391993018986652  1.0000
  I   I2        1.0  0.815148241475036  0.25622673499675125  0.9260834041985005  1.0000
  I   I3        1.0  0.7510379547160895  0.5895246218400204  0.866138958274135  1.0000
  I   I4        1.0  0.2489587988300954  0.4104782026681876  0.1338670658623755  1.0000
  N   N1        1.0  0.8470891832590156  0.8006752781013375  0.13874473735878465  1.0000
  N   N2        1.0  0.1529212821584451  0.19933094631607418  0.8612595605452142  1.0000
  N   N3        1.0  0.7673058586239777  0.9834409334911172  0.2415018486102127  1.0000
  N   N4        1.0  0.2326904309058264  0.0165559509885824  0.7584958341581043  1.0000
  N   N5        1.0  0.5394617116472062  0.18179895272593427  0.4993460893829678  1.0000
  N   N6        1.0  0.46053875437806374  0.8182030445835622  0.5006544507005373  1.0000
  N   N7        1.0  0.39386522433611054  0.24387054986832626  0.6692006680557796  1.0000
  N   N8        1.0  0.6061393720170684  0.7561340085578079  0.33079983480886443  1.0000
  N   N9        1.0  0.7671604468713866  0.3595979862203009  0.23759046190335198  1.0000
  N   N10       1.0  0.23283488828711543  0.6404014286542151  0.7624132034676947  1.0000
  N   N11       1.0  0.8476380469790286  0.5416932173381143  0.14089081118398641  1.0000
  N   N12       1.0  0.15235173096143484  0.4583028290791376  0.8591071468267302  1.0000
  O   O1        1.0  0.9772746961226703  0.044194907474121685  0.3660469510786514  1.0000
  O   O2        1.0  0.022727844482830085  0.9558096588952407  0.6339534475755073  1.0000
  O   O3        1.0  0.5539476372086015  0.9145644647350865  0.11983591905551803  1.0000
  O   O4        1.0  0.4460486676573795  0.08542981112905318  0.8801659345700088  1.0000
  O   O5        1.0  0.7581503016866905  0.26505760324863553  0.6155800381001981  1.0000
  O   O6        1.0  0.2418508410323669  0.734943534519566  0.38442035691893034  1.0000
  O   O7        1.0  0.3176840433160137  0.0952422493131735  0.386930074897279  1.0000
  O   O8        1.0  0.6823181067756395  0.9047589034508834  0.6130680170966585  1.0000
  O   O9        1.0  0.9961299145000028  0.4238242801759853  0.3389941362874538  1.0000
  O   O10       1.0  0.003866128183659611  0.5761794354859546  0.6610081076960624  1.0000
  O   O11       1.0  0.5426729210581982  0.2951336915349431  0.12936361605861182  1.0000
  O   O12       1.0  0.4573264007605146  0.70485803966865  0.8706331442181394  1.0000
