data_image0
_chemical_formula_structural       Gd2CuH20C32N4O28
_chemical_formula_sum              "Gd2 Cu1 H20 C32 N4 O28"
_cell_length_a       10.350515328209369
_cell_length_b       10.65944011316297
_cell_length_c       11.397527381693445
_cell_angle_alpha    83.93022449521557
_cell_angle_beta     74.46589240628748
_cell_angle_gamma    68.75889078942686

_space_group_name_H-M_alt    "P 1"
_space_group_IT_number       1

loop_
  _space_group_symop_operation_xyz
  'x, y, z'

loop_
  _atom_site_type_symbol
  _atom_site_label
  _atom_site_symmetry_multiplicity
  _atom_site_fract_x
  _atom_site_fract_y
  _atom_site_fract_z
  _atom_site_occupancy
  Gd  Gd1       1.0  0.5873559736925031  0.6097745174503331  0.624786532577062  1.0000
  Gd  Gd2       1.0  0.4126424246023035  0.390222496889912  0.375211347293643  1.0000
  Cu  Cu1       1.0  1.9255010102470347e-06  0.4999979712696214  0.5000000019073952  1.0000
  H   H1        1.0  0.36567799039932675  0.9798505573696729  0.4514655096932076  1.0000
  H   H2        1.0  0.6343282372246151  0.020141425270445296  0.5485406397433081  1.0000
  H   H3        1.0  0.9626539099105786  0.18045383636120246  0.35861296928827363  1.0000
  H   H4        1.0  0.03735512932260585  0.819547116184715  0.641390666775969  1.0000
  H   H5        1.0  0.16490808363145246  0.7491112578740838  0.3237021320212605  1.0000
  H   H6        1.0  0.8350939110253465  0.25088973714005647  0.6762970798924215  1.0000
  H   H7        1.0  0.6698067216009705  0.4781687851666731  0.9468630701419161  1.0000
  H   H8        1.0  0.33018729170663624  0.5218292598855426  0.053132263097815255  1.0000
  H   H9        1.0  0.9229299352632339  0.3158158231243747  0.20934132632427094  1.0000
  H   H10       1.0  0.07706320820658867  0.684190298272661  0.7906595073110766  1.0000
  H   H11       1.0  0.13149882051831702  0.33912014820317876  0.8307940344116815  1.0000
  H   H12       1.0  0.8684973446373051  0.6608859402238777  0.16920694140336684  1.0000
  H   H13       1.0  0.4605537066817505  0.8498425903231135  0.804778174413471  1.0000
  H   H14       1.0  0.5394595345691968  0.1501661793088118  0.19520693693906566  1.0000
  H   H15       1.0  0.34683542226654407  0.8766530417268328  0.7285689120557635  1.0000
  H   H16       1.0  0.6531649861827376  0.12334397524894308  0.27143198574278665  1.0000
  H   H17       1.0  0.8095222177473219  0.5589256853411798  0.3771846113837968  1.0000
  H   H18       1.0  0.19048359109292082  0.4410702431631319  0.6228133264703289  1.0000
  H   H19       1.0  0.7156515233548502  0.46795040267100063  0.3799426367456463  1.0000
  H   H20       1.0  0.28434673574945885  0.5320526086633207  0.6200528881288037  1.0000
  C   C1        1.0  0.2758572722893931  0.8514357963648039  0.39098626258162034  1.0000
  C   C2        1.0  0.7241491808222948  0.1485611472863582  0.6090140426339091  1.0000
  C   C3        1.0  0.27815830135832453  0.976300129877515  0.41752864070091533  1.0000
  C   C4        1.0  0.7218471389312313  0.0236968567638129  0.5824754172051811  1.0000
  C   C5        1.0  0.16649328073993536  0.09491507728303358  0.4044779896418049  1.0000
  C   C6        1.0  0.8335101403594367  0.9050819584153585  0.5955291889333482  1.0000
  C   C7        1.0  0.05297000619451351  0.0894917583710608  0.36357194825603767  1.0000
  C   C8        1.0  0.9470385331209739  0.9105021524953046  0.6364281676733939  1.0000
  C   C9        1.0  0.056285999679168586  0.9659817163205702  0.33157048880363504  1.0000
  C   C10       1.0  0.9437190127909787  0.034019267877560794  0.6684314961169875  1.0000
  C   C11       1.0  0.16611211512562118  0.8457336989826414  0.3446568836561354  1.0000
  C   C12       1.0  0.8338909542036675  0.1542642988522189  0.6553450147195932  1.0000
  C   C13       1.0  0.3849660516051614  0.7233194492697165  0.422738845658195  1.0000
  C   C14       1.0  0.6150333582209555  0.27667752946500457  0.5772561584643583  1.0000
  C   C15       1.0  0.1611941256621776  0.23013871984748843  0.4359584340403729  1.0000
  C   C16       1.0  0.8388123197046155  0.7698582681116123  0.56404713282965  1.0000
  C   C17       1.0  0.8994568476549176  0.41767627439593014  0.8758220385604432  1.0000
  C   C18       1.0  0.10053975435581453  0.5823257647817215  0.12417487164317015  1.0000
  C   C19       1.0  0.7740290498653764  0.435526919278267  0.9682624353558539  1.0000
  C   C20       1.0  0.2259665470681184  0.564475118581619  0.03173296588383324  1.0000
  C   C21       1.0  0.7824787058446249  0.39772055259002304  0.088452726422922  1.0000
  C   C22       1.0  0.2175154504473299  0.602285525816839  0.9115443545218583  1.0000
  C   C23       1.0  0.9158091562624908  0.34327433801620794  0.11614874117628898  1.0000
  C   C24       1.0  0.08418398849814679  0.656731775996171  0.8838512155166428  1.0000
  C   C25       1.0  0.03908639031622131  0.3224181266987571  0.021895867571778586  1.0000
  C   C26       1.0  0.960907326538987  0.677592015726816  0.9781070328692678  1.0000
  C   C27       1.0  0.033307371653712906  0.358187403126891  0.902204308326894  1.0000
  C   C28       1.0  0.9666892277753902  0.6418146508200805  0.09779435576155047  1.0000
  C   C29       1.0  0.8921948007337266  0.46002164213523133  0.7476314467501481  1.0000
  C   C30       1.0  0.10780669271456841  0.5399723185840201  0.2523651219711383  1.0000
  C   C31       1.0  0.6499958456077125  0.40863948099248404  0.18724487762867167  1.0000
  C   C32       1.0  0.3499996791489082  0.5913655701337601  0.8127510999977191  1.0000
  N   N1        1.0  0.9363821193214645  0.9639917208646834  0.2876410663872663  1.0000
  N   N2        1.0  0.06361856613939659  0.03600736201028809  0.7123674418822507  1.0000
  N   N3        1.0  0.1806394996140171  0.261542046095407  0.0488916455295438  1.0000
  N   N4        1.0  0.8193542894180721  0.7384650830638151  0.9511106785247919  1.0000
  O   O1        1.0  0.3908683833983844  0.6124628057667466  0.38650808928044705  1.0000
  O   O2        1.0  0.6091253425711259  0.38753323246352517  0.6134866490276494  1.0000
  O   O3        1.0  0.46071672763070376  0.7361796647020782  0.4883484452572589  1.0000
  O   O4        1.0  0.5392928992654262  0.2638111751384429  0.5116455877100635  1.0000
  O   O5        1.0  0.27429639138684075  0.2482612879421566  0.4381415364874428  1.0000
  O   O6        1.0  0.7257080347897685  0.751735749074001  0.5618671510516434  1.0000
  O   O7        1.0  0.034934708182675016  0.31854038820200964  0.4582835591953299  1.0000
  O   O8        1.0  0.9650747730688851  0.6814564855558841  0.5417125034878225  1.0000
  O   O9        1.0  0.8413694942354726  0.07499169388006523  0.2775832531382888  1.0000
  O   O10       1.0  0.1586156188341761  0.925011758172012  0.7224470256348923  1.0000
  O   O11       1.0  0.934173039166062  0.8546199860032786  0.2634194751235199  1.0000
  O   O12       1.0  0.06582982654074952  0.14538697778408494  0.7365753829881713  1.0000
  O   O13       1.0  0.011918185625717058  0.44036996670554635  0.6686963774554329  1.0000
  O   O14       1.0  0.9880838129035254  0.5596310061546176  0.3313002036310024  1.0000
  O   O15       1.0  0.7722296863107092  0.5104424146753955  0.7226161067520706  1.0000
  O   O16       1.0  0.22777001222291907  0.48954251099390683  0.27737659182366065  1.0000
  O   O17       1.0  0.5324113645514431  0.4309755278980204  0.16081581768202108  1.0000
  O   O18       1.0  0.4675843728633637  0.5690205055831328  0.8391810616115052  1.0000
  O   O19       1.0  0.6606415823962736  0.38723015947417844  0.2982889675274408  1.0000
  O   O20       1.0  0.33935012817690346  0.6127799581618872  0.7017082841585066  1.0000
  O   O21       1.0  0.18446376985450286  0.24702833618869144  0.15769792908297836  1.0000
  O   O22       1.0  0.8155289341785733  0.7529818492270549  0.8423087240486282  1.0000
  O   O23       1.0  0.2877385733516675  0.22904138770987714  0.9619752363203986  1.0000
  O   O24       1.0  0.7122549914834907  0.7709607730536447  0.03803205501250062  1.0000
  O   O25       1.0  0.44926880606627145  0.8331217050209007  0.7265403129339278  1.0000
  O   O26       1.0  0.5507322595626079  0.1668762532551469  0.2734541828018777  1.0000
  O   O27       1.0  0.7381613196046645  0.5243170583827066  0.4307561475582774  1.0000
  O   O28       1.0  0.26184045989091237  0.47567891654313843  0.5692418930370593  1.0000
