data_image0
_chemical_formula_structural       Zn4H32C44N24O8
_chemical_formula_sum              "Zn4 H32 C44 N24 O8"
_cell_length_a       9.013789672056594
_cell_length_b       10.166516053026836
_cell_length_c       18.713448136151484
_cell_angle_alpha    90.00024270260592
_cell_angle_beta     90.00039292771095
_cell_angle_gamma    90.00010052703043

_space_group_name_H-M_alt    "P 1"
_space_group_IT_number       1

loop_
  _space_group_symop_operation_xyz
  'x, y, z'

loop_
  _atom_site_type_symbol
  _atom_site_label
  _atom_site_symmetry_multiplicity
  _atom_site_fract_x
  _atom_site_fract_y
  _atom_site_fract_z
  _atom_site_occupancy
  Zn  Zn1       1.0  0.8675212939984717  0.9852424150356501  0.4024826472269751  1.0000
  Zn  Zn2       1.0  0.3675222717164814  0.014757908170558698  0.5975190462780802  1.0000
  Zn  Zn3       1.0  0.8675232837196134  0.5147596795911153  0.9024808170108047  1.0000
  Zn  Zn4       1.0  0.367520281979168  0.4852396599856733  0.09751873899286073  1.0000
  H   H1        1.0  0.1811591399159553  0.05270535599070311  0.4664649015198492  1.0000
  H   H2        1.0  0.6811610627914176  0.9472927059835713  0.5335372449064053  1.0000
  H   H3        1.0  0.1811575358958066  0.44728986229028334  0.9664667435723402  1.0000
  H   H4        1.0  0.6811604479966319  0.5527121341688286  0.033535937229864005  1.0000
  H   H5        1.0  0.7483117082642394  0.6202301633367712  0.6063498547668545  1.0000
  H   H6        1.0  0.24830716839010586  0.3797680045789278  0.3936551854276971  1.0000
  H   H7        1.0  0.7483095127211854  0.8797714131155914  0.10634502854054523  1.0000
  H   H8        1.0  0.2483115827063713  0.12023462373979751  0.8936519960408517  1.0000
  H   H9        1.0  0.1600429119379498  0.6782353222083017  0.7355790085300526  1.0000
  H   H10       1.0  0.6600353466035286  0.32176172282350285  0.2644225337263819  1.0000
  H   H11       1.0  0.16004060326523734  0.8217643615478993  0.2355799262679454  1.0000
  H   H12       1.0  0.6600376552858052  0.17823858521275335  0.7644221503703719  1.0000
  H   H13       1.0  0.27719208396936074  0.7888660539206921  0.6891859559298226  1.0000
  H   H14       1.0  0.7771816348465136  0.21113019229571964  0.310815973436668  1.0000
  H   H15       1.0  0.2771851218030008  0.7111324711052093  0.18918608340779036  1.0000
  H   H16       1.0  0.7771885970072248  0.2888696768317587  0.8108142428403442  1.0000
  H   H17       1.0  0.0135571670900845  0.3289732197124664  0.28934953618018266  1.0000
  H   H18       1.0  0.5135655093501866  0.6710245778486623  0.7106472470453795  1.0000
  H   H19       1.0  0.0135572428496928  0.17102724546596454  0.789344861140826  1.0000
  H   H20       1.0  0.5135576677153394  0.8289666176086641  0.2106529908174721  1.0000
  H   H21       1.0  0.1386184490467031  0.48865208397703  0.2065298085513447  1.0000
  H   H22       1.0  0.6386309867077102  0.5113429600013149  0.7934641816886627  1.0000
  H   H23       1.0  0.13862708860588674  0.011345968779011206  0.706531711080757  1.0000
  H   H24       1.0  0.6386212377790627  0.9886490752212538  0.29346815728309394  1.0000
  H   H25       1.0  0.4147300942287728  0.19775391055802774  0.1262967191003952  1.0000
  H   H26       1.0  0.9147399037323962  0.8022435362512254  0.8737013897904903  1.0000
  H   H27       1.0  0.41473375425307074  0.30224592256334404  0.6262950194363341  1.0000
  H   H28       1.0  0.9147373531403533  0.6977574259818554  0.3737052269634519  1.0000
  H   H29       1.0  0.30029139982597997  0.026315856415834598  0.20714246920395854  1.0000
  H   H30       1.0  0.8003015025851993  0.9736814098615345  0.792855261528139  1.0000
  H   H31       1.0  0.30028984724988556  0.4736863905868347  0.7071374254246622  1.0000
  H   H32       1.0  0.800296398712625  0.5263148101780931  0.2928624428012371  1.0000
  C   C1        1.0  0.12831234268710287  0.9749181122701888  0.4972693967388367  1.0000
  C   C2        1.0  0.6283120278966833  0.0250808499573552  0.5027331094292506  1.0000
  C   C3        1.0  0.1283099149284581  0.5250796170962532  0.9972713310146447  1.0000
  C   C4        1.0  0.628313346248838  0.47492426323606224  0.0027311751572938006  1.0000
  C   C5        1.0  0.845039062242968  0.6834563900451445  0.5980613961203789  1.0000
  C   C6        1.0  0.3450345169733922  0.31654193045809365  0.40194289495671154  1.0000
  C   C7        1.0  0.8450389621722038  0.816547241942722  0.09805695804016071  1.0000
  C   C8        1.0  0.3450379452334147  0.1834599311242898  0.9019398518018065  1.0000
  C   C9        1.0  0.0734827243115319  0.7512608929491975  0.642548526741983  1.0000
  C   C10       1.0  0.5734752311432204  0.2487369991533228  0.35745326385519155  1.0000
  C   C11       1.0  0.0734791637452119  0.7487428506396372  0.1425476724577877  1.0000
  C   C12       1.0  0.5734776822888746  0.25126881214537633  0.857450911903115  1.0000
  C   C13       1.0  0.0843290888414643  0.8346156719609045  0.5819916559544753  1.0000
  C   C14       1.0  0.584324513747127  0.16538125363755543  0.4180112392379983  1.0000
  C   C15       1.0  0.08432647505855329  0.6653876189491187  0.08199060888154011  1.0000
  C   C16       1.0  0.584326018104612  0.3346220937086387  0.9180085456984557  1.0000
  C   C17       1.0  0.9652700857501841  0.8327453305164597  0.5332890974501439  1.0000
  C   C18       1.0  0.46526617106371043  0.16725416326574563  0.4667123846786154  1.0000
  C   C19       1.0  0.9652696944294306  0.6672560214143602  0.0332869859543905  1.0000
  C   C20       1.0  0.4652698906012631  0.33274937408481264  0.9667112899363207  1.0000
  C   C21       1.0  0.0757206520913627  0.06768125413385918  0.3030159789199018  1.0000
  C   C22       1.0  0.5757215437547104  0.9323127070066803  0.6969820784563155  1.0000
  C   C23       1.0  0.0757112529306241  0.4323164642606442  0.8030113738241769  1.0000
  C   C24       1.0  0.575720958235685  0.5676725787808792  0.19699042415528822  1.0000
  C   C25       1.0  0.10166521668920579  0.29696218463768537  0.2536325499956718  1.0000
  C   C26       1.0  0.601671910915151  0.7030367355334876  0.7463634556286111  1.0000
  C   C27       1.0  0.10166646433053471  0.20303912607866442  0.7536300864972321  1.0000
  C   C28       1.0  0.601664006829843  0.796956843238384  0.24636965973807892  1.0000
  C   C29       1.0  0.1476435306161292  0.16566355481948142  0.2537217147587754  1.0000
  C   C30       1.0  0.6476504797544465  0.8343354378930173  0.7462765803001545  1.0000
  C   C31       1.0  0.14764503441807617  0.3343388127391976  0.7537184861901096  1.0000
  C   C32       1.0  0.6476489759715134  0.6656601799836608  0.24628248074412804  1.0000
  C   C33       1.0  0.17069587678962247  0.3851486145828674  0.20804202327936855  1.0000
  C   C34       1.0  0.6707063760637055  0.6148484472500543  0.7919547448337598  1.0000
  C   C35       1.0  0.17070028062470746  0.11485146773729583  0.7080414933201454  1.0000
  C   C36       1.0  0.6706986440156939  0.885147561345619  0.2919579466650646  1.0000
  C   C37       1.0  0.32577112920789386  0.22182122660068174  0.16352918236717787  1.0000
  C   C38       1.0  0.825782580662704  0.7781780471112684  0.8364675638163066  1.0000
  C   C39       1.0  0.32577696110941184  0.27818170589689123  0.6635284957955535  1.0000
  C   C40       1.0  0.8257756393784348  0.7218195350709494  0.3364719910138093  1.0000
  C   C41       1.0  0.26246168979471207  0.12799176249045272  0.20802157125890375  1.0000
  C   C42       1.0  0.7624715816752142  0.8720064277319042  0.7919765688418892  1.0000
  C   C43       1.0  0.2624599388546685  0.37201141527877013  0.7080173610660907  1.0000
  C   C44       1.0  0.7624622385147503  0.6279877585621847  0.2919823821426917  1.0000
  N   N1        1.0  0.9957120387137125  0.922324507180619  0.47987098268490064  1.0000
  N   N2        1.0  0.4957153659993594  0.07767601825403862  0.5201311344265493  1.0000
  N   N3        1.0  0.995714151191109  0.5776754391752095  0.9798698323632139  1.0000
  N   N4        1.0  0.4957154723312769  0.4223309879776025  0.0201296128834159  1.0000
  N   N5        1.0  0.8424049728919343  0.758134642510271  0.5390686088313501  1.0000
  N   N6        1.0  0.3424011215388418  0.2418646574613277  0.4609362079188202  1.0000
  N   N7        1.0  0.8424047271242685  0.7418675440469829  0.0390645324022856  1.0000
  N   N8        1.0  0.3424046954938546  0.2581386412461271  0.9609328031104809  1.0000
  N   N9        1.0  0.18724132519059813  0.9263019355327554  0.5577793979792887  1.0000
  N   N10       1.0  0.6872380252177167  0.07369613603024312  0.4422222341616759  1.0000
  N   N11       1.0  0.18723742312443653  0.5737003462734833  0.05777974196871579  1.0000
  N   N12       1.0  0.6872397084661372  0.426306577875856  0.9422213558037597  1.0000
  N   N13       1.0  0.9501073211010792  0.6760244283157776  0.6487582575900391  1.0000
  N   N14       1.0  0.4500987405470552  0.3239750415469587  0.3512442431762254  1.0000
  N   N15       1.0  0.950102797902801  0.8239817299648351  0.148755974194934  1.0000
  N   N16       1.0  0.4501032637226244  0.1760295433328025  0.851241717209426  1.0000
  N   N17       1.0  0.1761901709374598  0.744974855532675  0.6951942514857947  1.0000
  N   N18       1.0  0.6761819407676198  0.2550231985989697  0.30480894725399577  1.0000
  N   N19       1.0  0.17618662262639617  0.755027491250111  0.19519234298874014  1.0000
  N   N20       1.0  0.6761843796418034  0.24497941545216403  0.8048060463839023  1.0000
  N   N21       1.0  0.2800856948405013  0.3477709250571196  0.1634677994054599  1.0000
  N   N22       1.0  0.7800969014347814  0.6522282765817665  0.8365282614363921  1.0000
  N   N23       1.0  0.2800934998474958  0.15223095128163067  0.6634689590293092  1.0000
  N   N24       1.0  0.7800868776460917  0.8477672667571741  0.33653297993342335  1.0000
  O   O1        1.0  0.9620950777492324  0.11400572558156341  0.33787798850666934  1.0000
  O   O2        1.0  0.4621008935332114  0.8859898287026484  0.6621202768915211  1.0000
  O   O3        1.0  0.9620955729417844  0.3859897270912925  0.8378780856571881  1.0000
  O   O4        1.0  0.4620981795370582  0.614001892719088  0.1621233859831577  1.0000
  O   O5        1.0  0.1261420830751092  0.9541019896830818  0.3089331536279829  1.0000
  O   O6        1.0  0.6261389423184625  0.045898936358739206  0.6910688109910836  1.0000
  O   O7        1.0  0.12612860177795682  0.5458991932553802  0.8089292579090852  1.0000
  O   O8        1.0  0.6261357824158578  0.4540977982742902  0.19106896605250512  1.0000
