data_image0
_chemical_formula_structural       Ho4H72C80N16Cl12
_chemical_formula_sum              "Ho4 H72 C80 N16 Cl12"
_cell_length_a       12.683159025000542
_cell_length_b       14.244875627002148
_cell_length_c       14.755913859001822
_cell_angle_alpha    90.00005513762233
_cell_angle_beta     90.00001447344002
_cell_angle_gamma    90.00003022735969

_space_group_name_H-M_alt    "P 1"
_space_group_IT_number       1

loop_
  _space_group_symop_operation_xyz
  'x, y, z'

loop_
  _atom_site_type_symbol
  _atom_site_label
  _atom_site_symmetry_multiplicity
  _atom_site_fract_x
  _atom_site_fract_y
  _atom_site_fract_z
  _atom_site_occupancy
  Ho  Ho1       1.0  0.16557404406767517  0.332968378677066  0.3647874743995274  1.0000
  Ho  Ho2       1.0  0.3344272598572715  0.6670312541113433  0.8647885337941899  1.0000
  Ho  Ho3       1.0  0.6655732847027593  0.1670317661010117  0.6352119089552843  1.0000
  Ho  Ho4       1.0  0.8344272400967938  0.8329692770034998  0.1352127064658859  1.0000
  H   H1        1.0  0.08469534864641297  0.8992921505724141  0.6419179723578736  1.0000
  H   H2        1.0  0.4153051012524287  0.10070796224251667  0.1419181065541082  1.0000
  H   H3        1.0  0.584696833795384  0.6007075611810534  0.3580832137445711  1.0000
  H   H4        1.0  0.9153037565830574  0.39929159788409396  0.858083364040759  1.0000
  H   H5        1.0  0.1281040700128742  0.7703805938060243  0.7492891050616848  1.0000
  H   H6        1.0  0.3718940461381877  0.2296189239436757  0.24928867201082736  1.0000
  H   H7        1.0  0.6281055999202961  0.7296198403534007  0.2507127681491994  1.0000
  H   H8        1.0  0.8718941704177181  0.2703806157830684  0.7507121114755791  1.0000
  H   H9        1.0  0.4071458052645909  0.9957100717423588  0.6723716048229064  1.0000
  H   H10       1.0  0.09285386514807209  0.004290071404348301  0.1723715794426894  1.0000
  H   H11       1.0  0.9071472243461471  0.5042904935442891  0.3276282958184709  1.0000
  H   H12       1.0  0.5928533570712987  0.49571003920087253  0.8276277881418749  1.0000
  H   H13       1.0  0.3198132455595726  0.3247276504984953  0.5530848727715423  1.0000
  H   H14       1.0  0.1801879666471109  0.6752716718312685  0.05308481251309869  1.0000
  H   H15       1.0  0.8198116472221885  0.17527186475385295  0.4469158994203113  1.0000
  H   H16       1.0  0.6801881808483188  0.8247280847961279  0.9469163942979719  1.0000
  H   H17       1.0  0.3229702233805867  0.3633009024912184  0.7175335333459358  1.0000
  H   H18       1.0  0.17702946032038366  0.6366978816230713  0.217532758842772  1.0000
  H   H19       1.0  0.8229709191496325  0.13669931625170054  0.2824665618367348  1.0000
  H   H20       1.0  0.677030437426275  0.8633011715127452  0.7824670918943113  1.0000
  H   H21       1.0  0.30944196809496566  0.3636333798332673  0.17392843399304778  1.0000
  H   H22       1.0  0.1905584912228449  0.6363667648640717  0.6739280782873535  1.0000
  H   H23       1.0  0.8094420351749392  0.13636613054610083  0.8260730136442405  1.0000
  H   H24       1.0  0.6905585457846399  0.8636336986431347  0.3260724530786163  1.0000
  H   H25       1.0  0.0339782582649732  0.18794925165845913  0.5075186406790664  1.0000
  H   H26       1.0  0.46602136363971874  0.8120500252867303  0.007518769583335  1.0000
  H   H27       1.0  0.5339783312409594  0.31205083128020317  0.49248139183204387  1.0000
  H   H28       1.0  0.9660215102371268  0.6879491636533076  0.9924818215195328  1.0000
  H   H29       1.0  0.34519644665191856  0.1700354723144883  0.4228820917758114  1.0000
  H   H30       1.0  0.15480408591989908  0.8299635163292934  0.9228825860168826  1.0000
  H   H31       1.0  0.8451965551419249  0.32996405486608893  0.5771180082264991  1.0000
  H   H32       1.0  0.6548039525632421  0.6700362283692061  0.0771179375949487  1.0000
  H   H33       1.0  0.16290287778594598  0.4347750237989488  0.7886250458221297  1.0000
  H   H34       1.0  0.3370968268344328  0.5652259371441558  0.2886255949649126  1.0000
  H   H35       1.0  0.662903510303714  0.0652258217310475  0.21137433695388097  1.0000
  H   H36       1.0  0.8370970369066199  0.9347752972320579  0.7113756458744476  1.0000
  H   H37       1.0  0.9877800828066795  0.39302939226811867  0.21208271521055622  1.0000
  H   H38       1.0  0.5122204646113245  0.6069703233856741  0.7120816158031715  1.0000
  H   H39       1.0  0.487779255928146  0.1069709039214572  0.7879153826298548  1.0000
  H   H40       1.0  0.012221236930962198  0.8930307583226309  0.287917521499608  1.0000
  H   H41       1.0  0.3807632716113005  0.03691678586225321  0.5284383561045587  1.0000
  H   H42       1.0  0.1192363564490009  0.9630825119191613  0.028438550233758495  1.0000
  H   H43       1.0  0.8807642163323807  0.4630827580322077  0.4715617516109559  1.0000
  H   H44       1.0  0.6192364074371  0.5369172160649286  0.9715612879704025  1.0000
  H   H45       1.0  0.05682979897631671  0.059983996629149806  0.617618169196568  1.0000
  H   H46       1.0  0.44317064377204934  0.9400153899758837  0.1176177344326277  1.0000
  H   H47       1.0  0.5568299153470306  0.440015395041506  0.3823825459642407  1.0000
  H   H48       1.0  0.9431706821816946  0.5599844902328712  0.8823828517150929  1.0000
  H   H49       1.0  0.012934676282654297  0.419236638588039  0.526032678885862  1.0000
  H   H50       1.0  0.4870657395169432  0.580762656797681  0.0260332749979213  1.0000
  H   H51       1.0  0.5129346068232579  0.0807620304480565  0.47396734906101295  1.0000
  H   H52       1.0  0.9870660176538094  0.9192365420319676  0.9739679983630863  1.0000
  H   H53       1.0  0.0015779206142312004  0.4604122265826689  0.6906595727201646  1.0000
  H   H54       1.0  0.49842254362713584  0.5395886367866325  0.19066081070527466  1.0000
  H   H55       1.0  0.501577778326606  0.03958854313675181  0.30933977507044114  1.0000
  H   H56       1.0  0.9984220092626261  0.9604119713936542  0.809341142813551  1.0000
  H   H57       1.0  0.4369798305610714  0.8613109221556315  0.7752624959099563  1.0000
  H   H58       1.0  0.06301829323311378  0.1386893234715245  0.2752639444124085  1.0000
  H   H59       1.0  0.9369805105221687  0.6386896571505575  0.2247374112012182  1.0000
  H   H60       1.0  0.5630192521722179  0.3613093691006172  0.7247367720902247  1.0000
  H   H61       1.0  0.9616651307478821  0.4482063417583009  0.0528455655685534  1.0000
  H   H62       1.0  0.538334581367984  0.551793917301076  0.5528450982157266  1.0000
  H   H63       1.0  0.4616658949387685  0.05179464416644921  0.9471525266090024  1.0000
  H   H64       1.0  0.0383354332225778  0.9482064746723892  0.4471547224442958  1.0000
  H   H65       1.0  0.296418389787398  0.41396016543036046  0.011132710288627798  1.0000
  H   H66       1.0  0.2035820216280655  0.5860398171215594  0.5111329883078852  1.0000
  H   H67       1.0  0.7964176865149354  0.08603933882840661  0.9888680568298651  1.0000
  H   H68       1.0  0.703582153899788  0.9139606525057289  0.4888675458824068  1.0000
  H   H69       1.0  0.12076435375446691  0.46058226954527026  0.9503066693673147  1.0000
  H   H70       1.0  0.3792361868871126  0.5394174484201031  0.4503065259579841  1.0000
  H   H71       1.0  0.6207625580709788  0.039417854175440005  0.0496927042698445  1.0000
  H   H72       1.0  0.8792363646704331  0.9605831037508781  0.5496933686307061  1.0000
  C   C1        1.0  0.2423611345813868  0.9595054221283235  0.6470915363985554  1.0000
  C   C2        1.0  0.2576377399454444  0.040494695838766914  0.1470909027223826  1.0000
  C   C3        1.0  0.7423610056502594  0.5404936617081192  0.35290832850640186  1.0000
  C   C4        1.0  0.7576387947585914  0.4595061942094675  0.8529085005981116  1.0000
  C   C5        1.0  0.1636819824288054  0.8948435662055801  0.6707606519728485  1.0000
  C   C6        1.0  0.3363161106158543  0.10515727734313879  0.1707607731762337  1.0000
  C   C7        1.0  0.6636834617256967  0.6051561826655599  0.3292405512588275  1.0000
  C   C8        1.0  0.8363163317188338  0.39484364967838576  0.829240002595327  1.0000
  C   C9        1.0  0.1877303945706927  0.8217948763411729  0.7296380312843027  1.0000
  C   C10       1.0  0.31226850424587843  0.17820672785690309  0.22963821519336136  1.0000
  C   C11       1.0  0.6877311113614015  0.6782055858371975  0.2703624994684333  1.0000
  C   C12       1.0  0.8122686647582142  0.32179348585724205  0.7703625553628369  1.0000
  C   C13       1.0  0.34214542547612586  0.9477517648844371  0.6866207776640179  1.0000
  C   C14       1.0  0.1578534606821407  0.05224839245406091  0.1866201332769322  1.0000
  C   C15       1.0  0.8421468687693832  0.5522480678498525  0.31337843118651426  1.0000
  C   C16       1.0  0.6578537084549366  0.4477517486958363  0.8133785707092969  1.0000
  C   C17       1.0  0.2221679328071886  0.036078579256198416  0.5822818352742801  1.0000
  C   C18       1.0  0.2778324995437131  0.963921474160408  0.0822813868822365  1.0000
  C   C19       1.0  0.7221688621812278  0.46392089011024507  0.4177175603534735  1.0000
  C   C20       1.0  0.77783174574477  0.5360790303580387  0.9177178080213224  1.0000
  C   C21       1.0  0.2504433176950299  0.3546106772972095  0.5858290388477769  1.0000
  C   C22       1.0  0.24955632725205848  0.6453879756384423  0.0858282881530386  1.0000
  C   C23       1.0  0.7504432689180688  0.145389507364115  0.4141723959952301  1.0000
  C   C24       1.0  0.7495573379646103  0.854610409572629  0.9141715783120788  1.0000
  C   C25       1.0  0.2518940801583085  0.3756625043854526  0.6779826092555723  1.0000
  C   C26       1.0  0.24810559190474632  0.6243355383293262  0.1779825163664057  1.0000
  C   C27       1.0  0.7518939917965923  0.12433768095726801  0.32201814820765406  1.0000
  C   C28       1.0  0.7481065879701275  0.8756628462003351  0.8220180274784852  1.0000
  C   C29       1.0  0.233374957538949  0.3809167551049201  0.1437276611096081  1.0000
  C   C30       1.0  0.26662470444490793  0.6190826575048761  0.6437266281351341  1.0000
  C   C31       1.0  0.7333766001631404  0.11908342153564182  0.8562730923377089  1.0000
  C   C32       1.0  0.7666247781304066  0.8809178417472977  0.3562732420323513  1.0000
  C   C33       1.0  0.11000583763977553  0.1527752203423987  0.5137405447391998  1.0000
  C   C34       1.0  0.3899945745429107  0.8472240628003861  0.0137413675551343  1.0000
  C   C35       1.0  0.6100067180648097  0.34722419631676615  0.48625950425919473  1.0000
  C   C36       1.0  0.8899939100294886  0.6527757924195186  0.9862592070606198  1.0000
  C   C37       1.0  0.2828862586170331  0.1421819542209164  0.4662335043241086  1.0000
  C   C38       1.0  0.2171134982635792  0.8578163755941903  0.9662340379756174  1.0000
  C   C39       1.0  0.7828863708478551  0.3578168416718058  0.5337665821651427  1.0000
  C   C40       1.0  0.7171133356538917  0.6421826963781213  0.0337664991484559  1.0000
  C   C41       1.0  0.1621672401792864  0.4145845696807769  0.7173952900965972  1.0000
  C   C42       1.0  0.3378324434811049  0.5854142142961508  0.2173951804765295  1.0000
  C   C43       1.0  0.66216632872041  0.08541557349666822  0.2826047702137728  1.0000
  C   C44       1.0  0.8378334510020765  0.9145849144054381  0.7826060605214593  1.0000
  C   C45       1.0  0.05408445996521751  0.3988277260328986  0.1653393240029857  1.0000
  C   C46       1.0  0.4459159968253559  0.6011724101099746  0.6653396686454797  1.0000
  C   C47       1.0  0.5540845087274349  0.10117236635380071  0.8346600351740108  1.0000
  C   C48       1.0  0.945916074759502  0.8988288754025503  0.3346609180982654  1.0000
  C   C49       1.0  0.3027693046062936  0.06859833435871111  0.5254849702369384  1.0000
  C   C50       1.0  0.1972311110320817  0.9314009604812838  0.025485151822771  1.0000
  C   C51       1.0  0.8027702314319922  0.43140117288454155  0.4745151205646109  1.0000
  C   C52       1.0  0.6972303932065174  0.568598804154192  0.9745147032954407  1.0000
  C   C53       1.0  0.12341573330628107  0.0795741936501955  0.5749356376304462  1.0000
  C   C54       1.0  0.37658390843579076  0.9204251504428528  0.0749358479059126  1.0000
  C   C55       1.0  0.6234166390802685  0.4204252293102613  0.425063736581663  1.0000
  C   C56       1.0  0.8765831825600259  0.579573996467879  0.9250640461068542  1.0000
  C   C57       1.0  0.07901206576617877  0.40695296124311403  0.5715385030506112  1.0000
  C   C58       1.0  0.42098994031745457  0.5930456774602817  0.0715390962541704  1.0000
  C   C59       1.0  0.5790112017452742  0.0930464408509408  0.42846153922621255  1.0000
  C   C60       1.0  0.9209894093421837  0.9069534903186068  0.928462162777393  1.0000
  C   C61       1.0  0.0736041273241952  0.42981456004147117  0.6631112894662579  1.0000
  C   C62       1.0  0.4263963288102985  0.5701841698683766  0.1631111848914415  1.0000
  C   C63       1.0  0.5736032228176456  0.07018483951125631  0.33688875163777954  1.0000
  C   C64       1.0  0.9263973613245398  0.9298150004507946  0.8368887199239552  1.0000
  C   C65       1.0  0.3595882269975306  0.8724615652454873  0.7446740788423227  1.0000
  C   C66       1.0  0.1404114646901675  0.12753935192156973  0.24467350067757818  1.0000
  C   C67       1.0  0.859589697801475  0.6275375736787582  0.2553251337905706  1.0000
  C   C68       1.0  0.6404100738934133  0.37246148303836435  0.7553251995262897  1.0000
  C   C69       1.0  0.04014076868156019  0.42869666507301224  0.0763072362609094  1.0000
  C   C70       1.0  0.45985887346422777  0.5713033823927134  0.5763068784607056  1.0000
  C   C71       1.0  0.5401400375035054  0.07130342076137448  0.9236927975865257  1.0000
  C   C72       1.0  0.9598589952867939  0.9286972076650813  0.42369371130639877  1.0000
  C   C73       1.0  0.2262316218469707  0.40903629417677223  0.0536058407170188  1.0000
  C   C74       1.0  0.2737688020660585  0.5909637306783678  0.553605460840963  1.0000
  C   C75       1.0  0.7262309089931732  0.09096387910574322  0.9463935557921488  1.0000
  C   C76       1.0  0.7737689189242047  0.909037473938156  0.4463950885705258  1.0000
  C   C77       1.0  0.1277553694872324  0.43430569191428964  0.019427680758028  1.0000
  C   C78       1.0  0.372245044368917  0.5656942988991532  0.5194272987423361  1.0000
  C   C79       1.0  0.6277522863822824  0.0656944350910251  0.9805710167006936  1.0000
  C   C80       1.0  0.8722451862505666  0.9343069519936834  0.4805732720249551  1.0000
  N   N1        1.0  0.18824502219860753  0.18469054857080644  0.46008140417738014  1.0000
  N   N2        1.0  0.3117539444249573  0.815308477123736  0.9600825965232714  1.0000
  N   N3        1.0  0.6882458995098163  0.31530890485444735  0.539917984093762  1.0000
  N   N4        1.0  0.8117545972492906  0.6846913413293693  0.039917961125169696  1.0000
  N   N5        1.0  0.16583111357068964  0.3702850394591479  0.5326469699259846  1.0000
  N   N6        1.0  0.3341685157276473  0.6297135605067723  0.0326462230064379  1.0000
  N   N7        1.0  0.6658310711583013  0.1297137014269154  0.46735376887277613  1.0000
  N   N8        1.0  0.8341695513729305  0.8702855664727239  0.9673543395026059  1.0000
  N   N9        1.0  0.14924213901661426  0.3755127144412782  0.1993317962486358  1.0000
  N   N10       1.0  0.35075832777589255  0.6244867535511818  0.6993314642385542  1.0000
  N   N11       1.0  0.6492429800326678  0.12448742266209221  0.8006669058701802  1.0000
  N   N12       1.0  0.850758381899027  0.8755137852373522  0.3006684241743471  1.0000
  N   N13       1.0  0.28436483852024  0.8091279057937798  0.7658018414568701  1.0000
  N   N14       1.0  0.2156348593844939  0.19087373442355476  0.2658013384929987  1.0000
  N   N15       1.0  0.784365552172126  0.6908726017950501  0.234198032557849  1.0000
  N   N16       1.0  0.7156342133064442  0.3091271358864702  0.7341987334128461  1.0000
  Cl  Cl1       1.0  0.3681868237788421  0.36212557695948533  0.3626758142137234  1.0000
  Cl  Cl2       1.0  0.1318113257360167  0.6378733517177437  0.8626761248640163  1.0000
  Cl  Cl3       1.0  0.8681876246596402  0.13787255701096512  0.6373236130793742  1.0000
  Cl  Cl4       1.0  0.6318121123134547  0.8621263821757879  0.13732371606726448  1.0000
  Cl  Cl5       1.0  0.9703001995519782  0.28224997610205094  0.3605444935198108  1.0000
  Cl  Cl6       1.0  0.5297003915509251  0.7177491854153358  0.860546211682788  1.0000
  Cl  Cl7       1.0  0.4702993946011702  0.217748907860333  0.6394549559179907  1.0000
  Cl  Cl8       1.0  0.0297002661260208  0.7822519045079944  0.1394549624937937  1.0000
  Cl  Cl9       1.0  0.1128183130268781  0.5105234458907404  0.368449133998169  1.0000
  Cl  Cl10      1.0  0.3871822035288942  0.4894775945584513  0.8684507174384065  1.0000
  Cl  Cl11      1.0  0.6128177435627364  0.989476981083712  0.6315500251200347  1.0000
  Cl  Cl12      1.0  0.8871835686065167  0.010524760380178601  0.13155006936487718  1.0000
