data_image0
_chemical_formula_structural       Dy2H42C54O12
_chemical_formula_sum              "Dy2 H42 C54 O12"
_cell_length_a       7.893086645
_cell_length_b       11.289770907611045
_cell_length_c       12.98
_cell_angle_alpha    93.65396630276503
_cell_angle_beta     90.0
_cell_angle_gamma    90.0

_space_group_name_H-M_alt    "P 1"
_space_group_IT_number       1

loop_
  _space_group_symop_operation_xyz
  'x, y, z'

loop_
  _atom_site_type_symbol
  _atom_site_label
  _atom_site_symmetry_multiplicity
  _atom_site_fract_x
  _atom_site_fract_y
  _atom_site_fract_z
  _atom_site_occupancy
  Dy  Dy1       1.0  0.4952637891636868  0.5417544407017516  0.4734217215214329  1.0000
  Dy  Dy2       1.0  0.9952646351571914  0.4582481839073935  0.5265778846737987  1.0000
  H   H1        1.0  0.3220223107027634  0.1210057450184294  0.6068107855591691  1.0000
  H   H2        1.0  0.822024423627745  0.8789968795907228  0.39318805022004  1.0000
  H   H3        1.0  0.6570065974487986  0.261590216918151  0.6024487631620374  1.0000
  H   H4        1.0  0.1570070183867855  0.7384106325672946  0.397550744635133  1.0000
  H   H5        1.0  0.4558812238909623  0.9533905388561691  0.597542168942887  1.0000
  H   H6        1.0  0.9558808029529757  0.0466094230674301  0.40245728965525973  1.0000
  H   H7        1.0  0.6177925340638379  0.773392107818779  0.6300984546804286  1.0000
  H   H8        1.0  0.11779168807034067  0.22660962922851977  0.3699041839798766  1.0000
  H   H9        1.0  0.9253857620614026  0.7853271520353288  0.6689387705601604  1.0000
  H   H10       1.0  0.4253874499308736  0.2146754725738234  0.3310623764671234  1.0000
  H   H11       1.0  0.0738405678555694  0.9807265563192046  0.6713525192181322  1.0000
  H   H12       1.0  0.5738414138490666  0.0192760682899475  0.3286455461450544  1.0000
  H   H13       1.0  0.9112227349684687  0.1634196632140217  0.6373144019985729  1.0000
  H   H14       1.0  0.4112244228379395  0.8365820738332843  0.36268361416558287  1.0000
  H   H15       1.0  0.8558147533169487  0.1835114008454539  0.2610899078152968  1.0000
  H   H16       1.0  0.3558139073234513  0.8164912237636911  0.7389104687959644  1.0000
  H   H17       1.0  0.5603257887459847  0.3313277267108532  0.18187144016576437  1.0000
  H   H18       1.0  0.060322408889504686  0.6686748978982919  0.8181258547813925  1.0000
  H   H19       1.0  0.8051108882765872  0.0418423283632521  0.1396329492129667  1.0000
  H   H20       1.0  0.3051100422830828  0.9581576335603472  0.8603672798012028  1.0000
  H   H21       1.0  0.8165753513022551  0.9254270151641535  0.9726092075263182  1.0000
  H   H22       1.0  0.3165783061032172  0.0745711716357391  0.027390923089789996  1.0000
  H   H23       1.0  0.6784874208105192  0.0008733608618314  0.8173434811833714  1.0000
  H   H24       1.0  0.1784840409540465  0.9991283761854675  0.1826568462288591  1.0000
  H   H25       1.0  0.5256067982768258  0.1948508910596729  0.8308024499745841  1.0000
  H   H26       1.0  0.025599617625886095  0.8051526211113256  0.1691972054196782  1.0000
  H   H27       1.0  0.5126093481519121  0.3120019549572248  0.9989897028195358  1.0000
  H   H28       1.0  0.0126021675009724  0.6880015572137808  0.0010107229907561014  1.0000
  H   H29       1.0  0.086698655516912  0.3762774091160566  0.2401196243984032  1.0000
  H   H30       1.0  0.586696967647441  0.6237190025601294  0.7598842598997706  1.0000
  H   H31       1.0  0.3204361124810617  0.550172077300978  0.1333698351413162  1.0000
  H   H32       1.0  0.820435691543075  0.4498234468133617  0.8666309182937226  1.0000
  H   H33       1.0  0.0514120797415885  0.2686072809157736  0.09610429464104438  1.0000
  H   H34       1.0  0.551420527324012  0.7313891307604123  0.9038949671609798  1.0000
  H   H35       1.0  0.9901905745518389  0.1713464781093847  0.9245766028535557  1.0000
  H   H36       1.0  0.4901935293528012  0.8286508211286616  0.07542116731544718  1.0000
  H   H37       1.0  0.09315493837455337  0.2613523503419657  0.7651459013966146  1.0000
  H   H38       1.0  0.5931494497106229  0.7386449488960807  0.23485340960443324  1.0000
  H   H39       1.0  0.259071018977771  0.4481761320170605  0.7790164924125307  1.0000
  H   H40       1.0  0.7590667972453244  0.5518211672209858  0.22098590025262144  1.0000
  H   H41       1.0  0.3202143994708422  0.5471978575367444  0.9520809322104211  1.0000
  H   H42       1.0  0.8202139785328553  0.4527976665775952  0.0479229028887218  1.0000
  C   C1        1.0  0.3312024962574043  0.311049601090609  0.5892635686543528  1.0000
  C   C2        1.0  0.8312033422509089  0.6889539110803895  0.4107345459078644  1.0000
  C   C3        1.0  0.4097674516279141  0.19509674569253116  0.6024493600782748  1.0000
  C   C4        1.0  0.9097695645529029  0.804905878916621  0.39755024611696405  1.0000
  C   C5        1.0  0.5796439600594283  0.1818152701473252  0.6064242397778727  1.0000
  C   C6        1.0  0.0796431140659308  0.8181855793381274  0.3935744976032751  1.0000
  C   C7        1.0  0.6713710666481632  0.07207446014759  0.6185907388520491  1.0000
  C   C8        1.0  0.17137275451763395  0.927924614214156  0.3814079001310446  1.0000
  C   C9        1.0  0.5904939613139105  0.960572689358159  0.6157831226279882  1.0000
  C   C10       1.0  0.09049564918338858  0.0394281601272866  0.3842179260012344  1.0000
  C   C11       1.0  0.6817244307597505  0.858895378778918  0.6342009092232317  1.0000
  C   C12       1.0  0.18172738556071263  0.1411054707065276  0.36579936898996823  1.0000
  C   C13       1.0  0.855416936830039  0.865875165178778  0.6551864236495888  1.0000
  C   C14       1.0  0.3554211585624856  0.1341265718685207  0.34481236293059686  1.0000
  C   C15       1.0  0.9381057541906654  0.9753284051386402  0.6559223199909425  1.0000
  C   C16       1.0  0.4381074420601365  0.024673331908658697  0.3440780074212881  1.0000
  C   C17       1.0  0.8473085753133771  0.0776749754302841  0.6371415545336703  1.0000
  C   C18       1.0  0.3473115301143395  0.9223249864933152  0.3628579040644766  1.0000
  C   C19       1.0  0.7380914795469096  0.3280694871541527  0.35467311095654  1.0000
  C   C20       1.0  0.2380906335534121  0.6719331374549924  0.6453257248226691  1.0000
  C   C21       1.0  0.754294266333879  0.24901790329226256  0.2606370669085151  1.0000
  C   C22       1.0  0.2542934203403745  0.7509847213168895  0.7393625392867236  1.0000
  C   C23       1.0  0.6537759221570028  0.2595816644483051  0.1773643903170665  1.0000
  C   C24       1.0  0.15377507616350528  0.7404200725989938  0.8226343962631119  1.0000
  C   C25       1.0  0.66024360739803  0.1866586951707276  0.08093385910257209  1.0000
  C   C26       1.0  0.16024022754155706  0.8133430418765782  0.9190664683096514  1.0000
  C   C27       1.0  0.7449037701523906  0.0764891927967355  0.072128212918706  1.0000
  C   C28       1.0  0.24490292415889303  0.9235107691268567  0.9278720160954634  1.0000
  C   C29       1.0  0.7506619737607068  0.0104013373372283  0.9780742521893797  1.0000
  C   C30       1.0  0.2506598608357251  0.989598624586371  0.021925206408766905  1.0000
  C   C31       1.0  0.6723136636744727  0.05275135107951459  0.8909317993340338  1.0000
  C   C32       1.0  0.1723128176809752  0.9472486108440847  0.10906842968013558  1.0000
  C   C33       1.0  0.5868249277276263  0.1614022351256565  0.8984552690585232  1.0000
  C   C34       1.0  0.08682154787114628  0.8385995019216422  0.1015450583537074  1.0000
  C   C35       1.0  0.5797554500302835  0.2273542936218931  0.9928645682838065  1.0000
  C   C36       1.0  0.0797520701738108  0.7726474434254059  0.007135759128423996  1.0000
  C   C37       1.0  0.250962657461109  0.5046712189860187  0.3228399426867554  1.0000
  C   C38       1.0  0.7509622365231223  0.4953251926901743  0.677160859947314  1.0000
  C   C39       1.0  0.17676101413175616  0.4476435949061823  0.22934521644574346  1.0000
  C   C40       1.0  0.6767618601252536  0.5523519292081573  0.7706563074053179  1.0000
  C   C41       1.0  0.23100975347268354  0.4762044477242284  0.1351980376541562  1.0000
  C   C42       1.0  0.7310080656032127  0.5237901888282579  0.8648026665818589  1.0000
  C   C43       1.0  0.1881317242273823  0.4164440207037572  0.0361804870746099  1.0000
  C   C44       1.0  0.6881338371523711  0.5835515034105825  0.9638202663604359  1.0000
  C   C45       1.0  0.095534235707099  0.3093854226191297  0.027017237267393992  1.0000
  C   C46       1.0  0.5955350817006035  0.6906092139333566  0.9729826965525987  1.0000
  C   C47       1.0  0.0619111409741819  0.2539971252789357  0.9303945834845563  1.0000
  C   C48       1.0  0.5619132538991634  0.7459992863972573  0.0696039079014383  1.0000
  C   C49       1.0  0.1207943156944751  0.3036641989246363  0.840985924662469  1.0000
  C   C50       1.0  0.6207938947564884  0.6963322127515568  0.15901410755557782  1.0000
  C   C51       1.0  0.21369460084014943  0.4092822841243517  0.848643284381687  1.0000
  C   C52       1.0  0.713689112176219  0.5907123524281417  0.1513581902703436  1.0000
  C   C53       1.0  0.2471707315205833  0.4650016420351335  0.9453713464136514  1.0000
  C   C54       1.0  0.7471703105825966  0.5349938820792062  0.0546301774374172  1.0000
  O   O1        1.0  0.4252784938229936  0.4028838507371971  0.5830351416993054  1.0000
  O   O2        1.0  0.9252768059535228  0.597118773871955  0.416966775744008  1.0000
  O   O3        1.0  0.16929371994750395  0.3154882979097522  0.5850419704784997  1.0000
  O   O4        1.0  0.6692945659410015  0.6845152142612534  0.41495768491576257  1.0000
  O   O5        1.0  0.6108978929117015  0.3974271204744326  0.3655146383253225  1.0000
  O   O6        1.0  0.11089577998671267  0.6025755041347196  0.634484967869909  1.0000
  O   O7        1.0  0.8560428009846106  0.3238029773342035  0.4224497082897472  1.0000
  O   O8        1.0  0.3560406880596219  0.6762014223986554  0.5775499963035529  1.0000
  O   O9        1.0  0.22277343187583645  0.4582188943662969  0.4112318851427759  1.0000
  O   O10       1.0  0.7227717440063655  0.5417801799954489  0.5887706059204376  1.0000
  O   O11       1.0  0.3540376693787053  0.5910043602772674  0.3211224507112931  1.0000
  O   O12       1.0  0.8540372484407184  0.4089920513989256  0.6788760406747087  1.0000
