data_image0
_chemical_formula_structural       Cu2H22C22N4O8
_chemical_formula_sum              "Cu2 H22 C22 N4 O8"
_cell_length_a       7.272732843377552
_cell_length_b       8.164995741574655
_cell_length_c       10.694230403547316
_cell_angle_alpha    83.0662476728489
_cell_angle_beta     105.37566530451384
_cell_angle_gamma    89.6164240178162

_space_group_name_H-M_alt    "P 1"
_space_group_IT_number       1

loop_
  _space_group_symop_operation_xyz
  'x, y, z'

loop_
  _atom_site_type_symbol
  _atom_site_label
  _atom_site_symmetry_multiplicity
  _atom_site_fract_x
  _atom_site_fract_y
  _atom_site_fract_z
  _atom_site_occupancy
  Cu  Cu1       1.0  0.36738368675835165  0.44145724463836433  0.40795503718855025  1.0000
  Cu  Cu2       1.0  0.632607065635149  0.5585351585673309  0.5920275961127714  1.0000
  H   H1        1.0  0.9504422563028854  0.2498372641668283  0.9798636278518487  1.0000
  H   H2        1.0  0.04956090979001001  0.750176256033548  0.020152597728149105  1.0000
  H   H3        1.0  0.6903616085683452  0.20520981006889374  0.30142057358575863  1.0000
  H   H4        1.0  0.30961477889964334  0.7948491711628236  0.698581376839371  1.0000
  H   H5        1.0  0.9833309394787902  0.3379641353420695  0.42354248833117225  1.0000
  H   H6        1.0  0.0166817013142619  0.6620404023044415  0.5764700175553301  1.0000
  H   H7        1.0  0.4325404014850704  0.1805681015624288  0.15527343122776924  1.0000
  H   H8        1.0  0.5674457198590163  0.8194440237237899  0.8447190290846293  1.0000
  H   H9        1.0  0.8101371980696969  0.005164412660249714  0.944273222017564  1.0000
  H   H10       1.0  0.18986841908485272  0.9948641175426328  0.05573180411677467  1.0000
  H   H11       1.0  0.7765267504714757  0.9929029707215947  0.4901951695583548  1.0000
  H   H12       1.0  0.22344962347756342  0.007092522529227098  0.5098053296816261  1.0000
  H   H13       1.0  0.9416397621284888  0.06583055388596651  0.6280593530394681  1.0000
  H   H14       1.0  0.05833658624028  0.9341905110810771  0.3719320133024411  1.0000
  H   H15       1.0  0.7233235183333092  0.9745757993168668  0.641715193997129  1.0000
  H   H16       1.0  0.2766689278740486  0.025422638006766404  0.35829280028060134  1.0000
  H   H17       1.0  0.2841094401159623  0.38099453548660034  0.8680669933806796  1.0000
  H   H18       1.0  0.7159056365987909  0.6189856516778178  0.13192460922881818  1.0000
  H   H19       1.0  0.08684131778002778  0.3249291012340905  0.739237159630214  1.0000
  H   H20       1.0  0.9131865008366306  0.6750757789299584  0.26072349191712624  1.0000
  H   H21       1.0  0.2913467075134619  0.18960978163948997  0.8058283650357578  1.0000
  H   H22       1.0  0.7086413261001924  0.8103567156046411  0.19416484910441764  1.0000
  C   C1        1.0  0.9497336848451925  0.2587061375776755  0.08080154670577855  1.0000
  C   C2        1.0  0.050270806319716095  0.7412983744371003  0.9192163207231444  1.0000
  C   C3        1.0  0.7957023233508238  0.2029012182850138  0.12949074498020957  1.0000
  C   C4        1.0  0.2042949483351961  0.7971120576672632  0.8705216648454054  1.0000
  C   C5        1.0  0.8040473602586787  0.23754284807696288  0.2552572499289241  1.0000
  C   C6        1.0  0.19595155132559944  0.7624814909570502  0.7447550545331152  1.0000
  C   C7        1.0  0.9651420234682107  0.311257298841042  0.3236290405106814  1.0000
  C   C8        1.0  0.03486500880824651  0.688753791414449  0.6763819599979328  1.0000
  C   C9        1.0  0.6417327326450034  0.1058190661902003  0.05872541109766158  1.0000
  C   C10       1.0  0.35826537416369314  0.8941967124629217  0.9412767848977523  1.0000
  C   C11       1.0  0.4653706571755053  0.09892343649832473  0.0898816090717247  1.0000
  C   C12       1.0  0.5346301642468417  0.9010914657380337  0.9101190702488111  1.0000
  C   C13       1.0  0.6728824758543297  0.005937936329210938  0.9673304311246439  1.0000
  C   C14       1.0  0.327122885966908  0.9940729439305757  0.03267647969036599  1.0000
  C   C15       1.0  0.6857072523869192  0.22049311351954512  0.5455658514429087  1.0000
  C   C16       1.0  0.3142495299145621  0.7794917516943516  0.454418560967575  1.0000
  C   C17       1.0  0.7912164175235501  0.05392801591214892  0.577877005029471  1.0000
  C   C18       1.0  0.20876136992639974  0.9460741648875768  0.42212121593860985  1.0000
  C   C19       1.0  0.3388806141032248  0.39352602517458013  0.6782870610648357  1.0000
  C   C20       1.0  0.6611540325214377  0.6064348384082477  0.32170760973753687  1.0000
  C   C21       1.0  0.2422821645407751  0.3198261645109356  0.7797970151735496  1.0000
  C   C22       1.0  0.7577398986578247  0.6801502920492271  0.220194557325641  1.0000
  N   N1        1.0  0.11354535900342463  0.3483883685866403  0.2745220846543219  1.0000
  N   N2        1.0  0.8864684994501602  0.6516076279899111  0.7254901651091358  1.0000
  N   N3        1.0  0.1038414218304595  0.32612379992787777  0.15106860129078112  1.0000
  N   N4        1.0  0.8961700855647621  0.6738781921447555  0.8489493047619233  1.0000
  O   O1        1.0  0.5329613421157476  0.23368060255255332  0.4521612571814231  1.0000
  O   O2        1.0  0.46697144074028063  0.7662740907053093  0.5478567761600529  1.0000
  O   O3        1.0  0.7571261781483755  0.3320532194519076  0.6152069694310994  1.0000
  O   O4        1.0  0.2428686773800521  0.667963298259977  0.3847423449944499  1.0000
  O   O5        1.0  0.263540657292765  0.3657202260383202  0.5611179001440973  1.0000
  O   O6        1.0  0.7364738388221214  0.634287172116494  0.4388779052918323  1.0000
  O   O7        1.0  0.4880929971955156  0.4732630210810883  0.7186842867671428  1.0000
  O   O8        1.0  0.5119813973736598  0.5266645908487393  0.2813245247133693  1.0000
