data_image0
_chemical_formula_structural       Ca4H16C32O16
_chemical_formula_sum              "Ca4 H16 C32 O16"
_cell_length_a       6.6233010040394396
_cell_length_b       9.623871375892602
_cell_length_c       13.482449304060408
_cell_angle_alpha    108.19324420478998
_cell_angle_beta     90.00037736847959
_cell_angle_gamma    90.00000224681939

_space_group_name_H-M_alt    "P 1"
_space_group_IT_number       1

loop_
  _space_group_symop_operation_xyz
  'x, y, z'

loop_
  _atom_site_type_symbol
  _atom_site_label
  _atom_site_symmetry_multiplicity
  _atom_site_fract_x
  _atom_site_fract_y
  _atom_site_fract_z
  _atom_site_occupancy
  Ca  Ca1       1.0  0.9636846184313729  0.8180779417172845  0.5162349685439054  1.0000
  Ca  Ca2       1.0  0.4636859786295915  0.6819198838831612  0.4837671526298449  1.0000
  Ca  Ca3       1.0  0.0363159767174608  0.18191513436804746  0.4837617172217037  1.0000
  Ca  Ca4       1.0  0.5363131067499368  0.31808414695787957  0.5162371498734757  1.0000
  H   H1        1.0  0.11314849285923151  0.7763821581454452  0.1406071449157409  1.0000
  H   H2        1.0  0.6131592962275506  0.72362496388903  0.8593966463427165  1.0000
  H   H3        1.0  0.8868536121410886  0.22363060559385425  0.8593938986371227  1.0000
  H   H4        1.0  0.38683224002932814  0.2763681293612096  0.1406052351557108  1.0000
  H   H5        1.0  0.3132191692282476  0.8230978763669087  0.9988685747413228  1.0000
  H   H6        1.0  0.8132259529192183  0.6768964270351036  0.0011307986291271097  1.0000
  H   H7        1.0  0.686787465237231  0.1769159811344352  0.001132710918767505  1.0000
  H   H8        1.0  0.18677011277939937  0.3230922838253036  0.9988678877312508  1.0000
  H   H9        1.0  0.7879273190299261  0.0100056980537033  0.21962658973158264  1.0000
  H   H10       1.0  0.2879176077113286  0.4899885091533632  0.7803719648643437  1.0000
  H   H11       1.0  0.21208233512103902  0.9899972513028531  0.7803811819407329  1.0000
  H   H12       1.0  0.7120724186511254  0.5100089198793327  0.21961900903028206  1.0000
  H   H13       1.0  0.6526627756967687  0.9423469783377668  0.038351517412131365  1.0000
  H   H14       1.0  0.152661503725561  0.5576372367413142  0.9616473307704895  1.0000
  H   H15       1.0  0.34735593736946413  0.05765487236111969  0.9616545276774955  1.0000
  H   H16       1.0  0.8473390914083228  0.44235911080690465  0.038347112293124  1.0000
  C   C1        1.0  0.20832746885846382  0.8358370945831197  0.34203635067093074  1.0000
  C   C2        1.0  0.7083204541012764  0.6641603230966808  0.6579626323607428  1.0000
  C   C3        1.0  0.7916761459394764  0.16416363536085046  0.6579612875442039  1.0000
  C   C4        1.0  0.2916665526854985  0.33583495276069186  0.3420382488281817  1.0000
  C   C5        1.0  0.34104018641519934  0.8595664909592031  0.2583924389565055  1.0000
  C   C6        1.0  0.8410358061637312  0.6404256685572777  0.7416065494898162  1.0000
  C   C7        1.0  0.6589679578611225  0.14042768870311306  0.7416074579211411  1.0000
  C   C8        1.0  0.15895271043251574  0.35956850863650647  0.2583926051029479  1.0000
  C   C9        1.0  0.26332749644408443  0.8247844129366086  0.15695578271137117  1.0000
  C   C10       1.0  0.7633305256459694  0.6752141847829094  0.8430436387341729  1.0000
  C   C11       1.0  0.7366806478257075  0.17521850698103952  0.8430430819599906  1.0000
  C   C12       1.0  0.23666252041707034  0.3247789011090845  0.1569560160173893  1.0000
  C   C13       1.0  0.5325113281453325  0.9248771166151784  0.28044555934811655  1.0000
  C   C14       1.0  0.0325037762848552  0.5751189339726821  0.7195532963400665  1.0000
  C   C15       1.0  0.4674968161444042  0.0751225342927242  0.7195562902750935  1.0000
  C   C16       1.0  0.9674832304752813  0.4248785146828027  0.280443615548009  1.0000
  C   C17       1.0  0.375426654890923  0.8524593833116612  0.07761408590486954  1.0000
  C   C18       1.0  0.8754322602414393  0.647539387796094  0.9223849933807811  1.0000
  C   C19       1.0  0.6245860188625088  0.14755338288907183  0.9223876999167118  1.0000
  C   C20       1.0  0.1245668250979222  0.35245478695283344  0.0776134189809881  1.0000
  C   C21       1.0  0.6415742340565559  0.95619156968025  0.20075312184216895  1.0000
  C   C22       1.0  0.1415677528955257  0.5438068370489618  0.7992458650452362  1.0000
  C   C23       1.0  0.35843391027166405  0.0438168435612738  0.7992543758234518  1.0000
  C   C24       1.0  0.8584237833080836  0.4561906017975019  0.20074807785150028  1.0000
  C   C25       1.0  0.6302050199472476  0.9653149600432865  0.3860876059433024  1.0000
  C   C26       1.0  0.1301945308992885  0.5346845299668956  0.6139138092085829  1.0000
  C   C27       1.0  0.3698031243360235  0.034696709942267  0.6139131955211993  1.0000
  C   C28       1.0  0.8697954955330687  0.4653063757651881  0.3860875880888699  1.0000
  C   C29       1.0  0.5650271280544601  0.9187787100626112  0.09963755326594285  1.0000
  C   C30       1.0  0.0650280522801481  0.5812141151671852  0.9003621766895477  1.0000
  C   C31       1.0  0.4349855457154987  0.0812253207890805  0.9003667492616285  1.0000
  C   C32       1.0  0.9349710330526337  0.4187855210147476  0.09963521941837432  1.0000
  O   O1        1.0  0.07718620075159781  0.933195656371055  0.38407127618035725  1.0000
  O   O2        1.0  0.5771816297325857  0.56679829149828  0.6159317082599924  1.0000
  O   O3        1.0  0.9228189239024048  0.0667985331014691  0.6159315896913142  1.0000
  O   O4        1.0  0.42280990650445477  0.4332046284063367  0.3840671563817324  1.0000
  O   O5        1.0  0.22482393800526523  0.7195690684442654  0.3671018929892326  1.0000
  O   O6        1.0  0.7248196165560117  0.7804261826908387  0.6328951802256597  1.0000
  O   O7        1.0  0.7751887357028406  0.28042400274425466  0.6328933082982218  1.0000
  O   O8        1.0  0.27517946880013977  0.21957565082064434  0.3671056690799546  1.0000
  O   O9        1.0  0.6405325173952505  0.8711992630238398  0.4343788538897115  1.0000
  O   O10       1.0  0.14053044584387922  0.6288013394043404  0.565623582485351  1.0000
  O   O11       1.0  0.3594620385274823  0.1288058640252743  0.5656264329545238  1.0000
  O   O12       1.0  0.8594565609195755  0.37119501794580156  0.4343738295534436  1.0000
  O   O13       1.0  0.7073948059228318  0.09295244734269661  0.4190422336447526  1.0000
  O   O14       1.0  0.20739145849516666  0.40704929476131474  0.5809592127332053  1.0000
  O   O15       1.0  0.29259673032926514  0.9070537587436719  0.5809588417941072  1.0000
  O   O16       1.0  0.7925910188331854  0.5929492623679663  0.41904239474506255  1.0000
