data_image0
_chemical_formula_structural       Cu2H32C36S4N4Cl4
_chemical_formula_sum              "Cu2 H32 C36 S4 N4 Cl4"
_cell_length_a       8.723733975994087
_cell_length_b       11.013760523227303
_cell_length_c       12.084315919090626
_cell_angle_alpha    97.05715174844823
_cell_angle_beta     103.04105690169168
_cell_angle_gamma    111.97003380247658

_space_group_name_H-M_alt    "P 1"
_space_group_IT_number       1

loop_
  _space_group_symop_operation_xyz
  'x, y, z'

loop_
  _atom_site_type_symbol
  _atom_site_label
  _atom_site_symmetry_multiplicity
  _atom_site_fract_x
  _atom_site_fract_y
  _atom_site_fract_z
  _atom_site_occupancy
  Cu  Cu1       1.0  0.5000003323976474  0.9999996269790331  0.500002780349277  1.0000
  Cu  Cu2       1.0  0.5000000465360442  0.50000051958299  5.930687976156705e-07  1.0000
  H   H1        1.0  0.7226982195671495  0.3223387401511673  0.4817086975119976  1.0000
  H   H2        1.0  0.27729687621544513  0.6776589059948039  0.518283730728605  1.0000
  H   H3        1.0  0.6363835453819319  0.39274538311337187  0.6481731774836419  1.0000
  H   H4        1.0  0.36361914833285885  0.6072532534289368  0.3518263885639713  1.0000
  H   H5        1.0  0.6792307641645934  0.6340402518885498  0.7070967586483761  1.0000
  H   H6        1.0  0.3207754561285796  0.3659583783880366  0.2929033792918148  1.0000
  H   H7        1.0  0.7861077587471003  0.7916060334598217  0.5830010588923998  1.0000
  H   H8        1.0  0.21389067774980214  0.20839563117599613  0.4169981569020963  1.0000
  H   H9        1.0  0.8032634884358603  0.8110222504938638  0.38906543841000035  1.0000
  H   H10       1.0  0.19673675566297527  0.18897840619251843  0.6109298197828892  1.0000
  H   H11       1.0  0.8487524180249367  0.6958601575264114  0.29859499060420097  1.0000
  H   H12       1.0  0.1512501791138021  0.30414049371606927  0.7014031315881724  1.0000
  H   H13       1.0  0.8946991145624777  0.8976271027086112  0.24433578829153657  1.0000
  H   H14       1.0  0.10530122810005339  0.10237153801084277  0.7556633964943487  1.0000
  H   H15       1.0  0.9954504356994535  0.035347330513765506  0.10685252913805245  1.0000
  H   H16       1.0  0.004559662132884133  0.9646563262474858  0.8931504594268418  1.0000
  H   H17       1.0  0.31607983945779244  0.16064859163814305  0.13772138086128652  1.0000
  H   H18       1.0  0.6839286399494213  0.839352046205704  0.862283487540161  1.0000
  H   H19       1.0  0.5207058374093165  0.13838141966243714  0.30840748916470057  1.0000
  H   H20       1.0  0.47929984738409837  0.861616201774837  0.6915982408631863  1.0000
  H   H21       1.0  0.8783694577075067  0.3782779811659014  0.34362632513522595  1.0000
  H   H22       1.0  0.12162040113334875  0.6217186640727874  0.6563717602488809  1.0000
  H   H23       1.0  0.9580539967805707  0.5421653960156122  0.3153911280995133  1.0000
  H   H24       1.0  0.04194065742812115  0.45782922827988415  0.6846050257670129  1.0000
  H   H25       1.0  0.913355178700243  0.3042179625687353  0.16865716574928055  1.0000
  H   H26       1.0  0.08664316387079642  0.6957857150782302  0.8313439165069952  1.0000
  H   H27       1.0  0.9921699742665878  0.25990057409779155  0.9859430227197379  1.0000
  H   H28       1.0  0.007827383280229723  0.7400990779264236  0.014057446299126853  1.0000
  H   H29       1.0  0.8387908709382897  0.30360380248685465  0.8026546152793159  1.0000
  H   H30       1.0  0.161203594756131  0.6963948482532062  0.19734444393150605  1.0000
  H   H31       1.0  0.6322107394565961  0.4095016958683362  0.8154713876079853  1.0000
  H   H32       1.0  0.36778823916553444  0.5905009733842662  0.18453051189133163  1.0000
  C   C1        1.0  0.8168331208337065  0.647708506134471  0.4635104203963251  1.0000
  C   C2        1.0  0.18316432997642101  0.35228913330083605  0.5364873545815172  1.0000
  C   C3        1.0  0.8028140991910249  0.5150710402875449  0.4358247396346401  1.0000
  C   C4        1.0  0.19718144412838978  0.4849296239086201  0.5641714111933069  1.0000
  C   C5        1.0  0.7372375635499536  0.42586866612604996  0.5037997658705109  1.0000
  C   C6        1.0  0.26275915529559074  0.5741319959815531  0.4961965755883072  1.0000
  C   C7        1.0  0.6917636461404797  0.4672026645912626  0.60036474395433  1.0000
  C   C8        1.0  0.3082378700605375  0.5327959753063781  0.3996321487246632  1.0000
  C   C9        1.0  0.713317181205646  0.600071391985239  0.6313073798535599  1.0000
  C   C10       1.0  0.28668433632046236  0.39992724706789334  0.3686911679839326  1.0000
  C   C11       1.0  0.7744124513638937  0.6889092904004316  0.5623783404504223  1.0000
  C   C12       1.0  0.22558382458264964  0.31108835070119784  0.43762007147580567  1.0000
  C   C13       1.0  0.8729990689876317  0.7459730984553161  0.38905484124828865  1.0000
  C   C14       1.0  0.126998922622633  0.25402554644128383  0.6109439622758686  1.0000
  C   C15       1.0  0.1552789756699013  0.9451692759605166  0.35078174137835566  1.0000
  C   C16       1.0  0.8447270561090078  0.054833380760648316  0.6492213019061381  1.0000
  C   C17       1.0  0.03235428248351024  0.9521281362806563  0.2571173458988839  1.0000
  C   C18       1.0  0.9676512078327164  0.047873515401470015  0.7428838412600385  1.0000
  C   C19       1.0  0.08997529663506748  0.029416260226078406  0.17997611497803942  1.0000
  C   C20       1.0  0.9100307338187436  0.9705863973395952  0.8200252731479482  1.0000
  C   C21       1.0  0.2672734548079632  0.09866621904234311  0.1964690708023724  1.0000
  C   C22       1.0  0.7327343898732508  0.9013354263513734  0.803536635514533  1.0000
  C   C23       1.0  0.38111368113663247  0.0878011804802981  0.2915030246224362  1.0000
  C   C24       1.0  0.618891909068374  0.9121984543903922  0.7085037442879809  1.0000
  C   C25       1.0  0.8479928913624518  0.4648493751770316  0.331840810523218  1.0000
  C   C26       1.0  0.15199966617871052  0.5351523007461554  0.668155796958466  1.0000
  C   C27       1.0  0.7342772320093616  0.3832426726300256  0.08794143601615194  1.0000
  C   C28       1.0  0.2657219344644873  0.6167559706002522  0.9120567305596198  1.0000
  C   C29       1.0  0.8547401022658576  0.3275566771922485  0.08924098694457433  1.0000
  C   C30       1.0  0.1452582403051821  0.6724470004547172  0.9107600953117013  1.0000
  C   C31       1.0  0.8960510125389972  0.30064508907058507  0.9868532225820417  1.0000
  C   C32       1.0  0.10394516749405373  0.6993545663089549  0.013144573068203222  1.0000
  C   C33       1.0  0.814719058689775  0.3275526169438407  0.8854121027225615  1.0000
  C   C34       1.0  0.18527712399346552  0.6724470367466895  0.11458900324469574  1.0000
  C   C35       1.0  0.698582151229985  0.3848206772386505  0.8910364633812691  1.0000
  C   C36       1.0  0.3014144763398862  0.6151819961910905  0.10896505485631995  1.0000
  S   S1        1.0  0.10451239959611068  0.8507343077779695  0.45400314514871115  1.0000
  S   S2        1.0  0.8954844191382134  0.14926433751818993  0.5459987780615947  1.0000
  S   S3        1.0  0.6567573848758599  0.4138281836808559  0.2057601808576166  1.0000
  S   S4        1.0  0.3432410502959515  0.5861734817994633  0.794237379778373  1.0000
  N   N1        1.0  0.3268200257627996  0.013587783589983403  0.36693186233176084  1.0000
  N   N2        1.0  0.6731813058992272  0.9864148802187175  0.6330729011670329  1.0000
  N   N3        1.0  0.6622112794537712  0.4140348833066056  0.9903942373308396  1.0000
  N   N4        1.0  0.33778887204430674  0.5859677855464299  0.009604542482335915  1.0000
  Cl  Cl1       1.0  0.4528235136665728  0.13706079541002944  0.6305211618868896  1.0000
  Cl  Cl2       1.0  0.5471767370577325  0.8629398570538315  0.36948237209851703  1.0000
  Cl  Cl3       1.0  0.7136688099982963  0.7086505424724978  0.028629972209934466  1.0000
  Cl  Cl4       1.0  0.2863273726849441  0.2913491112180396  0.971371133757323  1.0000
