data_image0
_chemical_formula_structural       Mn4H36C24O18
_chemical_formula_sum              "Mn4 H36 C24 O18"
_cell_length_a       7.551687114257628
_cell_length_b       9.027028007334264
_cell_length_c       11.484531882161656
_cell_angle_alpha    107.6281153851527
_cell_angle_beta     109.18418678141548
_cell_angle_gamma    89.9961841064701

_space_group_name_H-M_alt    "P 1"
_space_group_IT_number       1

loop_
  _space_group_symop_operation_xyz
  'x, y, z'

loop_
  _atom_site_type_symbol
  _atom_site_label
  _atom_site_symmetry_multiplicity
  _atom_site_fract_x
  _atom_site_fract_y
  _atom_site_fract_z
  _atom_site_occupancy
  Mn  Mn1       1.0  0.8171204709546559  0.9612424578476039  0.04495230408426925  1.0000
  Mn  Mn2       1.0  0.7722694947343172  0.5387239625061397  0.9551003630540007  1.0000
  Mn  Mn3       1.0  0.1828818583460929  0.0387585327924214  0.9550477719583269  1.0000
  Mn  Mn4       1.0  0.22772830567983243  0.4612746855155975  0.04489990576844597  1.0000
  H   H1        1.0  0.23238992027711453  0.5909550070795504  0.6882708928601531  1.0000
  H   H2        1.0  0.5440760667207059  0.9090476223087195  0.3118629318163287  1.0000
  H   H3        1.0  0.7676080417851379  0.40904481449607033  0.31172882251640727  1.0000
  H   H4        1.0  0.4559276564271856  0.09095335876387622  0.6881391867340482  1.0000
  H   H5        1.0  0.4593421719010991  0.5370940419529902  0.6877038811774056  1.0000
  H   H6        1.0  0.7713625530295616  0.9628557248483888  0.3120912067396516  1.0000
  H   H7        1.0  0.5406571880164606  0.46290577409067174  0.3122970078050358  1.0000
  H   H8        1.0  0.22863946499946763  0.037142930790267314  0.6879073694890037  1.0000
  H   H9        1.0  0.0919650116297035  0.3133721457634238  0.5655212916465046  1.0000
  H   H10       1.0  0.5265400918992073  0.18685036071043024  0.4344416698383072  1.0000
  H   H11       1.0  0.908032950432549  0.6866276758121972  0.4344784237300559  1.0000
  H   H12       1.0  0.47346272234583614  0.8131541505912523  0.5655567458666511  1.0000
  H   H13       1.0  0.31626003477591513  0.25575760484276344  0.5706512200219221  1.0000
  H   H14       1.0  0.74570153474194  0.24418351067207308  0.4291473654744705  1.0000
  H   H15       1.0  0.6837393251416444  0.7442422112008911  0.4293496689605191  1.0000
  H   H16       1.0  0.2543048545337498  0.755816318066458  0.5708507025183066  1.0000
  H   H17       1.0  0.12642243677724  0.4905378504374627  0.4369369657315048  1.0000
  H   H18       1.0  0.6894072938578617  0.009575333380297502  0.5629227422843143  1.0000
  H   H19       1.0  0.8735794155955289  0.5094596276118396  0.56306303284493  1.0000
  H   H20       1.0  0.3105964533389951  0.9904256719051076  0.43707416285464257  1.0000
  H   H21       1.0  0.34571684060355073  0.42385682279979875  0.4394983239935968  1.0000
  H   H22       1.0  0.9061807229752715  0.07604854496877782  0.5603317770897718  1.0000
  H   H23       1.0  0.6542853190327806  0.5761429862154019  0.5605040432986926  1.0000
  H   H24       1.0  0.09382301219710598  0.9239524482102155  0.4396677347548987  1.0000
  H   H25       1.0  0.959176082941717  0.22441685412330506  0.30679077479806677  1.0000
  H   H26       1.0  0.6525592062214757  0.2756000954508623  0.6932657614039782  1.0000
  H   H27       1.0  0.04082997101329511  0.7755806154010544  0.6932110067921897  1.0000
  H   H28       1.0  0.3474428118075537  0.7243985601877937  0.30673281482467013  1.0000
  H   H29       1.0  0.17077600245809066  0.1417652488368191  0.32734840203622173  1.0000
  H   H30       1.0  0.8434721332984624  0.35829982188482756  0.6725780668739246  1.0000
  H   H31       1.0  0.8292302171531818  0.8582333982768944  0.6726519572062486  1.0000
  H   H32       1.0  0.15653019199412904  0.641701164719727  0.3274228780705783  1.0000
  H   H33       1.0  0.48567718575954905  0.7883741817937421  0.9414415541990663  1.0000
  H   H34       1.0  0.5441463981130709  0.711612929840882  0.05861900501486863  1.0000
  H   H35       1.0  0.5143235800296324  0.2116256367888951  0.05855877058544222  1.0000
  H   H36       1.0  0.4558531234525844  0.288388059756656  0.9413813305216931  1.0000
  C   C1        1.0  0.5431091922255292  0.0460363119441212  0.1898950991927748  1.0000
  C   C2        1.0  0.3535231652951794  0.45390866578104294  0.8101269489625124  1.0000
  C   C3        1.0  0.45689297943528107  0.9539635091774842  0.8101046613938009  1.0000
  C   C4        1.0  0.6464749503988471  0.5460923212775198  0.1898739507719753  1.0000
  C   C5        1.0  0.3223570395063859  0.49554801579260055  0.6874774672785833  1.0000
  C   C6        1.0  0.6346750141672358  0.004424171823679002  0.3124874329440529  1.0000
  C   C7        1.0  0.6776409225558666  0.5044518057830204  0.3125222480979772  1.0000
  C   C8        1.0  0.3653271615017317  0.9955756533333896  0.6875114587406229  1.0000
  C   C9        1.0  0.22995386648857163  0.35352995521630964  0.5658622786380789  1.0000
  C   C10       1.0  0.664129292717256  0.14653981573513164  0.4340477637916606  1.0000
  C   C11       1.0  0.7700454934289809  0.6464698608273451  0.43413861034436246  1.0000
  C   C12       1.0  0.33587460811138203  0.853462355033223  0.5659503257052236  1.0000
  C   C13       1.0  0.2064392450757708  0.38898998703540144  0.4400896265335134  1.0000
  C   C14       1.0  0.7663845298202006  0.11108813725945052  0.5598124520473745  1.0000
  C   C15       1.0  0.7935627649369367  0.6110086605323204  0.5599106874989417  1.0000
  C   C16       1.0  0.23361920936033442  0.8889128599550133  0.4401861908953891  1.0000
  C   C17       1.0  0.10803864267494839  0.2500361211076124  0.3193688001225965  1.0000
  C   C18       1.0  0.7888035269243262  0.25004721719781037  0.6806111342190347  1.0000
  C   C19       1.0  0.891966171064695  0.7499625234671256  0.6806321233178066  1.0000
  C   C20       1.0  0.21119880237642263  0.7499537734422149  0.3193889418235684  1.0000
  C   C21       1.0  0.1143932754600527  0.26275929567935224  0.1926526993901732  1.0000
  C   C22       1.0  0.92182649569326  0.23725665038925572  0.8072393776426026  1.0000
  C   C23       1.0  0.8856102860397427  0.737240511839353  0.8073499726060903  1.0000
  C   C24       1.0  0.07817162000076645  0.7627443366693143  0.1927615220918852  1.0000
  O   O1        1.0  0.3655669453930202  0.02120072102835731  0.13664612789726496  1.0000
  O   O2        1.0  0.22930767519720527  0.47880463316082006  0.8634713117469486  1.0000
  O   O3        1.0  0.6344350646196872  0.9787979265393647  0.8633541861351901  1.0000
  O   O4        1.0  0.7706890426415144  0.5211963594297089  0.13652841438165816  1.0000
  O   O5        1.0  0.5935139729020306  0.7500247349613575  7.336008693668207e-05  1.0000
  O   O6        1.0  0.4064853910236863  0.24997508511776803  0.9999266599935976  1.0000
  O   O7        1.0  0.6509377299413756  0.10989927935754913  0.1468339160588314  1.0000
  O   O8        1.0  0.5044059749371926  0.38998912148539244  0.8530640610086735  1.0000
  O   O9        1.0  0.3490630438641276  0.890100547296015  0.8531646709218705  1.0000
  O   O10       1.0  0.4955921367486765  0.6100118615377071  0.14693770762772118  1.0000
  O   O11       1.0  0.0197265599896426  0.12346196839170179  0.8056299809255734  1.0000
  O   O12       1.0  0.21392259258347934  0.3764184331414954  0.19413170878709  1.0000
  O   O13       1.0  0.9802756076630033  0.87653784869444  0.19437064856290215  1.0000
  O   O14       1.0  0.7860797327091121  0.6235825534630592  0.8058692361574131  1.0000
  O   O15       1.0  0.023408376781716807  0.15132019401412589  0.0872297319001305  1.0000
  O   O16       1.0  0.9363832141343522  0.3486576028523772  0.9127536293377004  1.0000
  O   O17       1.0  0.9765940941263338  0.8486819500024438  0.9127741352061064  1.0000
  O   O18       1.0  0.06361474391973587  0.6513422146877729  0.08724695494076673  1.0000
