data_image0
_chemical_formula_structural       Cu8H16C16N24
_chemical_formula_sum              "Cu8 H16 C16 N24"
_cell_length_a       7.669133206648441
_cell_length_b       8.648283625218575
_cell_length_c       10.520582553863628
_cell_angle_alpha    80.10538491444134
_cell_angle_beta     78.80842563421626
_cell_angle_gamma    80.28876234608553

_space_group_name_H-M_alt    "P 1"
_space_group_IT_number       1

loop_
  _space_group_symop_operation_xyz
  'x, y, z'

loop_
  _atom_site_type_symbol
  _atom_site_label
  _atom_site_symmetry_multiplicity
  _atom_site_fract_x
  _atom_site_fract_y
  _atom_site_fract_z
  _atom_site_occupancy
  Cu  Cu1       1.0  0.4208300062571126  0.8236868009891297  0.7610985956477305  1.0000
  Cu  Cu2       1.0  0.5791667352670871  0.17631288704301085  0.23890081940714222  1.0000
  Cu  Cu3       1.0  0.6429846482995673  0.583632484441793  0.5250432428712059  1.0000
  Cu  Cu4       1.0  0.35701945794283324  0.4163708240038346  0.47495460251447935  1.0000
  Cu  Cu5       1.0  0.17127914861141139  0.10123510114035382  0.2552038966298085  1.0000
  Cu  Cu6       1.0  0.8287200492992001  0.8987657968781589  0.7447959450563243  1.0000
  Cu  Cu7       1.0  0.9218980097529865  0.33322288148495005  0.024450812044037123  1.0000
  Cu  Cu8       1.0  0.07809893324712648  0.6667756243427687  0.9755496945496275  1.0000
  H   H1        1.0  0.46886423260936994  0.7922088205287848  0.2813253097206569  1.0000
  H   H2        1.0  0.5311406025774871  0.20779805796669854  0.7186728696966467  1.0000
  H   H3        1.0  0.1611334370306636  0.053114641367784494  0.5683707485191788  1.0000
  H   H4        1.0  0.8388623785142001  0.9468826683645445  0.43163009052824447  1.0000
  H   H5        1.0  0.631689564180313  0.6378788427542971  0.9930195378984193  1.0000
  H   H6        1.0  0.36829980818465197  0.3621172153187119  0.00697859726269458  1.0000
  H   H7        1.0  0.8384375316378936  0.30921118527678  0.732553542166215  1.0000
  H   H8        1.0  0.16156902951057353  0.6907933299733529  0.2674437799964053  1.0000
  H   H9        1.0  0.6807162685474281  0.5653023278861014  0.2215833862876123  1.0000
  H   H10       1.0  0.3192840612594735  0.43469977577343855  0.7784189725077084  1.0000
  H   H11       1.0  0.0008987078052840159  0.3151512014748618  0.4914440915068993  1.0000
  H   H12       1.0  0.9991073273549773  0.6848485647028896  0.5085549380172053  1.0000
  H   H13       1.0  0.3935349910667227  0.8535237192179607  0.06234751608981523  1.0000
  H   H14       1.0  0.6064683906722478  0.14647602872345541  0.9376528448272122  1.0000
  H   H15       1.0  0.1385319301434506  0.15265752141320385  0.7749587475065453  1.0000
  H   H16       1.0  0.8614678692342109  0.8473398236283175  0.22504246908730607  1.0000
  C   C1        1.0  0.41485484937543754  0.83517390739879  0.37377693894389796  1.0000
  C   C2        1.0  0.5851452774751992  0.16482937528328281  0.6262233784583129  1.0000
  C   C3        1.0  0.26000608448525486  0.9679764504795829  0.5192545601224479  1.0000
  C   C4        1.0  0.7399917874548905  0.0320244400117033  0.48074642218729463  1.0000
  C   C5        1.0  0.6589422144182393  0.5774906668608608  0.9078066679728705  1.0000
  C   C6        1.0  0.34104789577326505  0.4225089803532569  0.09219750034576886  1.0000
  C   C7        1.0  0.7652050218514787  0.41183064525608154  0.7754307908271014  1.0000
  C   C8        1.0  0.23479795545532772  0.5881714639122818  0.22456643715803176  1.0000
  C   C9        1.0  0.7814856241438976  0.4823613039046606  0.2663279075727657  1.0000
  C   C10       1.0  0.2185153056497029  0.5176372435960133  0.7336748762759552  1.0000
  C   C11       1.0  0.9421459829031987  0.35399068674256273  0.4034956368401409  1.0000
  C   C12       1.0  0.05785779734656422  0.6460066872443944  0.5965040575914954  1.0000
  C   C13       1.0  0.30996698370250897  0.9497895482814798  0.013134151562873262  1.0000
  C   C14       1.0  0.6900354720571329  0.0502078213601322  0.9868676333466976  1.0000
  C   C15       1.0  0.1805208634368327  0.10102369066667188  0.8675672912845724  1.0000
  C   C16       1.0  0.8194802648719913  0.898973668265839  0.13243468439429748  1.0000
  N   N1        1.0  0.3757103251354009  0.8619301161695603  0.5794928264696251  1.0000
  N   N2        1.0  0.6242890727707788  0.1380695964626639  0.42050715690097457  1.0000
  N   N3        1.0  0.47616805333765183  0.7747465311927612  0.48462995041920454  1.0000
  N   N4        1.0  0.5238320720326398  0.2252567483074301  0.5153694171286884  1.0000
  N   N5        1.0  0.2785833286164845  0.9564624241903273  0.38999410917084276  1.0000
  N   N6        1.0  0.721416996749376  0.043539669923575296  0.6100054000615243  1.0000
  N   N7        1.0  0.6575981222963277  0.5252388867112499  0.7130097405982239  1.0000
  N   N8        1.0  0.34240352755966086  0.47476321174800507  0.28698767815620835  1.0000
  N   N9        1.0  0.5879487109044773  0.6329060627050538  0.7999067842172136  1.0000
  N   N10       1.0  0.4120482276545942  0.3670924335770422  0.20009087281349028  1.0000
  N   N11       1.0  0.7704884991177322  0.43912332790856806  0.897857135534096  1.0000
  N   N12       1.0  0.22950976985285365  0.5608751854463846  0.1021422304359447  1.0000
  N   N13       1.0  0.9972107006481747  0.288320659813877  0.29415734195953286  1.0000
  N   N14       1.0  0.0027877697983242833  0.7116766713366615  0.7058431155492996  1.0000
  N   N15       1.0  0.892412680388311  0.37210328657177166  0.20480487734850775  1.0000
  N   N16       1.0  0.10758539154739565  0.6278964185332256  0.7951962466457088  1.0000
  N   N17       1.0  0.8067986751090004  0.47627074255200347  0.3913384081460264  1.0000
  N   N18       1.0  0.19320358065506585  0.5237278124758973  0.6086632350790777  1.0000
  N   N19       1.0  0.11906424104359553  0.16257252525590357  0.9785871767140646  1.0000
  N   N20       1.0  0.880935558334059  0.8374248197856177  0.021414039879786552  1.0000
  N   N21       1.0  0.20444563132180343  0.06379517969232039  0.07359546519653999  1.0000
  N   N22       1.0  0.7955541665755063  0.9362021621673267  0.9264048015429933  1.0000
  N   N23       1.0  0.30082001630464106  0.9676926849900697  0.8838376813943397  1.0000
  N   N24       1.0  0.6991822379790875  0.0323058668559497  0.11616301197644664  1.0000
