data_image0
_chemical_formula_structural       CdP2H32C28S4N2O4
_chemical_formula_sum              "Cd1 P2 H32 C28 S4 N2 O4"
_cell_length_a       8.097337210263333
_cell_length_b       9.772942293099787
_cell_length_c       10.439583115705258
_cell_angle_alpha    91.67055590616272
_cell_angle_beta     101.52992938871257
_cell_angle_gamma    100.9836938112966

_space_group_name_H-M_alt    "P 1"
_space_group_IT_number       1

loop_
  _space_group_symop_operation_xyz
  'x, y, z'

loop_
  _atom_site_type_symbol
  _atom_site_label
  _atom_site_symmetry_multiplicity
  _atom_site_fract_x
  _atom_site_fract_y
  _atom_site_fract_z
  _atom_site_occupancy
  Cd  Cd1       1.0  0.500001236921733  0.49999870796533935  0.5000000957117976  1.0000
  P   P1        1.0  0.7426248170238169  0.7092080499165192  0.35558336538395  1.0000
  P   P2        1.0  0.2573741311501507  0.29079039365640824  0.6444153298343451  1.0000
  H   H1        1.0  0.024646244598351092  0.6608819152711618  0.5521651835817778  1.0000
  H   H2        1.0  0.97535017360201  0.33911653696861077  0.4478350267853415  1.0000
  H   H3        1.0  0.9435247006958748  0.804685431977191  0.6071270071302591  1.0000
  H   H4        1.0  0.056470456320127496  0.19531301704378726  0.3928730033367244  1.0000
  H   H5        1.0  0.2828814282608434  0.8271296668675916  0.5082966992273086  1.0000
  H   H6        1.0  0.7171162473214281  0.17286879614316322  0.49170466851450095  1.0000
  H   H7        1.0  0.2650133196989088  0.8537687925577232  0.6728127107959594  1.0000
  H   H8        1.0  0.7349793187508312  0.1462296424734788  0.3271859423961914  1.0000
  H   H9        1.0  0.19902052637454656  0.971448452495096  0.5554848965479664  1.0000
  H   H10       1.0  0.8009753890823961  0.028553138630535095  0.4445162543025988  1.0000
  H   H11       1.0  0.9112359439659202  0.9523024516551716  0.23113817271715223  1.0000
  H   H12       1.0  0.0887604742344408  0.04769600058459391  0.7688620376499672  1.0000
  H   H13       1.0  0.8377555348497413  0.0393598925631267  0.010920431986292679  1.0000
  H   H14       1.0  0.16224416416027046  0.9606417082188582  0.9890813185646864  1.0000
  H   H15       1.0  0.3947501389262059  0.701429232497084  0.9099386938189299  1.0000
  H   H16       1.0  0.605248568190369  0.29857337970810965  0.0900590879033842  1.0000
  H   H17       1.0  0.47354118780931037  0.6116857331365181  0.1298734660891796  1.0000
  H   H18       1.0  0.5264532237894954  0.3883147872628853  0.8701245514679172  1.0000
  H   H19       1.0  0.6784055810990071  0.12451577601140679  0.8381154733396272  1.0000
  H   H20       1.0  0.32159487473555276  0.8754837307355318  0.1618853976975885  1.0000
  H   H21       1.0  0.5989153899855993  0.0404872994125185  0.677269684156485  1.0000
  H   H22       1.0  0.40108684280046714  0.9595142851504194  0.3227295937711219  1.0000
  H   H23       1.0  0.7931364704132097  0.005233662802020001  0.7755987861078424  1.0000
  H   H24       1.0  0.2068670235572156  0.9947679249797118  0.22440069171990729  1.0000
  H   H25       1.0  0.19568703220753747  0.6612911195008165  0.3699898390418781  1.0000
  H   H26       1.0  0.8043141728466738  0.33870630831548715  0.6300120674306697  1.0000
  H   H27       1.0  0.9991232527264915  0.6778597460544377  0.16104834565574322  1.0000
  H   H28       1.0  0.0008857979460543807  0.322143936751857  0.8389510962373664  1.0000
  H   H29       1.0  0.14888809669830042  0.3107036222034338  0.012587805394140601  1.0000
  H   H30       1.0  0.851110843870778  0.6892948364739054  0.9874128047732568  1.0000
  H   H31       1.0  0.3356467166310822  0.30914659463154953  0.2313608230442199  1.0000
  H   H32       1.0  0.6643517157757373  0.6908497743441586  0.7686396651838194  1.0000
  C   C1        1.0  0.023206791008526267  0.7724958218433713  0.5422011925309106  1.0000
  C   C2        1.0  0.9767901353540936  0.2275047200980254  0.4577991397755667  1.0000
  C   C3        1.0  0.20190101973013697  0.8613089429257313  0.5706618048002383  1.0000
  C   C4        1.0  0.7980953908653348  0.13868952441844581  0.4293403205159834  1.0000
  C   C5        1.0  0.6978721685519249  0.7765676566459803  0.19580034007778122  1.0000
  C   C6        1.0  0.30212449992711743  0.22343184799680674  0.8042008887335682  1.0000
  C   C7        1.0  0.7985217524348301  0.8968872163833486  0.16073074272826907  1.0000
  C   C8        1.0  0.20147618863590816  0.1031122688216044  0.839267813559566  1.0000
  C   C9        1.0  0.7566122272079385  0.9463969152439304  0.0364618559781462  1.0000
  C   C10       1.0  0.2433905045190984  0.0536015379853509  0.9635374389405698  1.0000
  C   C11       1.0  0.6098950204157704  0.8761221410950029  0.9465784027718981  1.0000
  C   C12       1.0  0.3901059511859374  0.12387944024914793  0.0534206752555733  1.0000
  C   C13       1.0  0.5063801844218007  0.7563889167807504  0.9819355596253417  1.0000
  C   C14       1.0  0.49361826481119675  0.2436126581258335  0.018063118601844515  1.0000
  C   C15       1.0  0.5512152697217516  0.7069084447427584  0.10451371845002909  1.0000
  C   C16       1.0  0.4487846947767268  0.2930941782334244  0.8954852206469752  1.0000
  C   C17       1.0  0.6654061448275431  0.028007462301495395  0.7769688914437367  1.0000
  C   C18       1.0  0.33459583387739417  0.9719930774106305  0.22303032551419483  1.0000
  C   C19       1.0  0.18102864684785666  0.5853834135588015  0.2881700876660034  1.0000
  C   C20       1.0  0.8189725810210435  0.41461396894425917  0.7118260739592442  1.0000
  C   C21       1.0  0.07156756889566651  0.5944283050175727  0.1693565687849414  1.0000
  C   C22       1.0  0.9284384360361246  0.4055733118583476  0.8306461812667364  1.0000
  C   C23       1.0  0.05621259271211444  0.4963705915590852  0.06454412208361052  1.0000
  C   C24       1.0  0.9437919121639883  0.503629947038405  0.9354545372000445  1.0000
  C   C25       1.0  0.15239922067523543  0.390707196721401  0.08832172506339478  1.0000
  C   C26       1.0  0.8476065187680817  0.6092933979603289  0.9116838364422577  1.0000
  C   C27       1.0  0.2581726883667841  0.38889326790222606  0.21051447777502122  1.0000
  C   C28       1.0  0.7418265062834168  0.6111062356259254  0.7894861933620517  1.0000
  S   S1        1.0  0.5947792982065039  0.7714052147920113  0.470910877652102  1.0000
  S   S2        1.0  0.4052181347019826  0.22859218071131698  0.529087556696382  1.0000
  S   S3        1.0  0.7230109360600069  0.5014951986119129  0.33801757848634395  1.0000
  S   S4        1.0  0.2769885240786678  0.4985053271104363  0.6619802811967546  1.0000
  N   N1        1.0  0.27390852257249776  0.48537599761215217  0.30870995386432293  1.0000
  N   N2        1.0  0.7260941977471946  0.5146224782737576  0.691292213478043  1.0000
  O   O1        1.0  0.9408415709820306  0.789774117333337  0.40725703526697293  1.0000
  O   O2        1.0  0.05915510510190812  0.21022537220503784  0.5927422785952743  1.0000
  O   O3        1.0  0.5591064825717923  0.9128797079280205  0.8224201120119972  1.0000
  O   O4        1.0  0.44089549993559274  0.08712082423190279  0.1775781474713796  1.0000
