data_image0
_chemical_formula_structural       Zn4H44C52N12O16
_chemical_formula_sum              "Zn4 H44 C52 N12 O16"
_cell_length_a       11.613627770861633
_cell_length_b       13.128293909
_cell_length_c       14.069
_cell_angle_alpha    90.0
_cell_angle_beta     93.15834069412963
_cell_angle_gamma    90.0

_space_group_name_H-M_alt    "P 1"
_space_group_IT_number       1

loop_
  _space_group_symop_operation_xyz
  'x, y, z'

loop_
  _atom_site_type_symbol
  _atom_site_label
  _atom_site_symmetry_multiplicity
  _atom_site_fract_x
  _atom_site_fract_y
  _atom_site_fract_z
  _atom_site_occupancy
  Zn  Zn1       1.0  0.4437284807851896  0.5648334849447919  0.4142002745032869  1.0000
  Zn  Zn2       1.0  0.0562686006190916  0.064834776392118  0.0857988464371005  1.0000
  Zn  Zn3       1.0  0.5562682691251268  0.435166217301358  0.5857987958216028  1.0000
  Zn  Zn4       1.0  0.9437290116584691  0.9351656875676397  0.9142002631083059  1.0000
  H   H1        1.0  0.9590127464095346  0.23292897166962936  0.3449586279696391  1.0000
  H   H2        1.0  0.5409853967413056  0.7329284419359041  0.1550411809633587  1.0000
  H   H3        1.0  0.0409857282352775  0.7670722540037218  0.6550405207962837  1.0000
  H   H4        1.0  0.4590139402707507  0.2670727837374471  0.8449587178056532  1.0000
  H   H5        1.0  0.5261802758133456  0.6946492867400025  0.5659123736656255  1.0000
  H   H6        1.0  0.9738195920719901  0.1946498164737278  0.9340868029258331  1.0000
  H   H7        1.0  0.4738190611987107  0.305349653792554  0.43408752510338633  1.0000
  H   H8        1.0  0.026179744940065995  0.8053506474860227  0.0659123850605994  1.0000
  H   H9        1.0  0.468941512039315  0.750916308572414  0.4793372980987982  1.0000
  H   H10       1.0  0.031057294099468898  0.2509168383061393  0.0206626120651947  1.0000
  H   H11       1.0  0.5310595497072441  0.24908263196014244  0.520662679111247  1.0000
  H   H12       1.0  0.9689403181780988  0.7490821022264171  0.979337208262784  1.0000
  H   H13       1.0  0.7393591844593174  0.3269960308442704  0.4906728003702412  1.0000
  H   H14       1.0  0.7606389586915228  0.8269970245377463  0.009326297780184204  1.0000
  H   H15       1.0  0.2606384278182432  0.6730029096882859  0.5093263091751652  1.0000
  H   H16       1.0  0.23936124068778497  0.1730026777084106  0.990672929426772  1.0000
  H   H17       1.0  0.9215635862617191  0.35652309678954447  0.2326235521175519  1.0000
  H   H18       1.0  0.5784362816236168  0.8565202819150242  0.2673777568216238  1.0000
  H   H19       1.0  0.0784366131175886  0.643479652311008  0.7673778074371143  1.0000
  H   H20       1.0  0.4215621930211881  0.1434794203311256  0.7326213919442991  1.0000
  H   H21       1.0  0.7899137396876483  0.496120824621002  0.18028100188804067  1.0000
  H   H22       1.0  0.7100861281976876  0.9961172480328884  0.3197217286162797  1.0000
  H   H23       1.0  0.210085597324408  0.503882686193144  0.8197217400112606  1.0000
  H   H24       1.0  0.2899140711816202  0.0038816924996680994  0.6802782093732488  1.0000
  H   H25       1.0  0.6446169314007975  0.6019213200721153  0.1935463746612527  1.0000
  H   H26       1.0  0.8553855235862854  0.1019165178106434  0.3064593166348999  1.0000
  H   H27       1.0  0.3553849927130059  0.3980829524556313  0.8064586172473084  1.0000
  H   H28       1.0  0.1446138134257708  0.8980816610083124  0.6935412929166843  1.0000
  H   H29       1.0  0.1920207281958639  0.8139854328424291  0.35166935753235146  1.0000
  H   H30       1.0  0.30797807794292  0.3139821540081583  0.1483262879362073  1.0000
  H   H31       1.0  0.8079794711834438  0.1860173162581162  0.6483263157617429  1.0000
  H   H32       1.0  0.6920212590691364  0.6860145013836032  0.8516700569199429  1.0000
  H   H33       1.0  0.0700164592999855  0.9482580209044256  0.2686701728361101  1.0000
  H   H34       1.0  0.4299857963077898  0.4482577889245505  0.23132562951451519  1.0000
  H   H35       1.0  0.9299863271810693  0.0517424430553248  0.7313277504672512  1.0000
  H   H36       1.0  0.5700135407042666  0.5517396281808047  0.7686714261242072  1.0000
  H   H37       1.0  0.2704124982165155  0.9433708664542947  0.0341222454116377  1.0000
  H   H38       1.0  0.2295888950240155  0.4433744430424156  0.46587778241389793  1.0000
  H   H39       1.0  0.729587701162792  0.0566280740782616  0.9658776925778908  1.0000
  H   H40       1.0  0.7704121667225435  0.5566267826309357  0.5341236163612848  1.0000
  H   H41       1.0  0.3994726559423398  0.8106902598138673  0.10585017941279769  1.0000
  H   H42       1.0  0.10052701256369549  0.3106900278339921  0.3941511915368565  1.0000
  H   H43       1.0  0.6005284058042193  0.18931096585948373  0.8941490870146751  1.0000
  H   H44       1.0  0.8994705997138723  0.6893073892713701  0.6058500503562669  1.0000
  C   C1        1.0  0.6717081985228788  0.4420079288461024  0.3928508448502868  1.0000
  C   C2        1.0  0.828291669362457  0.9420066373987834  0.10715117487146128  1.0000
  C   C3        1.0  0.3282911384891776  0.5579932968272487  0.6071504754838699  1.0000
  C   C4        1.0  0.1717085300168506  0.0579930648473734  0.8928487631180673  1.0000
  C   C5        1.0  0.7490013126685184  0.36446700791180575  0.4223871796803422  1.0000
  C   C6        1.0  0.7509985552168175  0.8644664781780804  0.0776134184762611  1.0000
  C   C7        1.0  0.2509980243435379  0.6355334560479449  0.577613429871235  1.0000
  C   C8        1.0  0.24900250652974168  0.1355332240680696  0.9223858479512115  1.0000
  C   C9        1.0  0.8376750873970024  0.3329998574302948  0.3655081344620612  1.0000
  C   C10       1.0  0.6623265052228291  0.8329970425557747  0.1344946744832853  1.0000
  C   C11       1.0  0.1623259743495495  0.6670028916702576  0.6344946858782663  1.0000
  C   C12       1.0  0.3376736941564786  0.16700265969037525  0.8655052635062359  1.0000
  C   C13       1.0  0.8528803467284262  0.38103732554088043  0.2770056980437374  1.0000
  C   C14       1.0  0.647120383524161  0.8810360340935617  0.2229963608985273  1.0000
  C   C15       1.0  0.1471207150181328  0.6189646618460711  0.7229957007314524  1.0000
  C   C16       1.0  0.35287809112065094  0.118964429866196  0.7770027878673957  1.0000
  C   C17       1.0  0.7787374601427712  0.4583276427011639  0.2482814821600314  1.0000
  C   C18       1.0  0.7212649948443115  0.9583240661130432  0.2517220767884041  1.0000
  C   C19       1.0  0.22126446397103186  0.5416751063993885  0.7517220881833848  1.0000
  C   C20       1.0  0.2787352045349962  0.0416748744195132  0.7482778612011174  1.0000
  C   C21       1.0  0.6867642683202533  0.4915787264311432  0.3028617739685231  1.0000
  C   C22       1.0  0.8132364619323339  0.99157591155663  0.1971409957563139  1.0000
  C   C23       1.0  0.31323506869180306  0.5084240226694021  0.6971409679307712  1.0000
  C   C24       1.0  0.1867637374469737  0.0084230289759262  0.8028589422332145  1.0000
  C   C25       1.0  0.6175187653407264  0.5717886918157689  0.26165149901714096  1.0000
  C   C26       1.0  0.8824811025446166  0.071785412981491  0.2383512314871794  1.0000
  C   C27       1.0  0.3824805716713371  0.4282148189983842  0.7383512428821533  1.0000
  C   C28       1.0  0.1175182344674468  0.928214289264659  0.7616493780644048  1.0000
  C   C29       1.0  0.3779548683494624  0.7224609736607022  0.2874993122544041  1.0000
  C   C30       1.0  0.1220456625238171  0.2224599799672262  0.2125020979157597  1.0000
  C   C31       1.0  0.6220453310298453  0.2775410137262497  0.7125013365176898  1.0000
  C   C32       1.0  0.8779545368554905  0.7775389605653302  0.7874978400737689  1.0000
  C   C33       1.0  0.3071338204063139  0.8018696163393457  0.2366125765293461  1.0000
  C   C34       1.0  0.1928692975687127  0.3018686226458698  0.2633868189546504  1.0000
  C   C35       1.0  0.6928698284419923  0.1981316093340055  0.7633853859945319  1.0000
  C   C36       1.0  0.8071334889123418  0.6981303178866867  0.7366132366964208  1.0000
  C   C37       1.0  0.21207162909847446  0.8417148546944515  0.2815669870298763  1.0000
  C   C38       1.0  0.287928901774805  0.341715384428177  0.2184294476622881  1.0000
  C   C39       1.0  0.7879302950153289  0.15828484755169814  0.7184294754878238  1.0000
  C   C40       1.0  0.7120721599717541  0.6582835561043794  0.7815676864174677  1.0000
  C   C41       1.0  0.1444344410380154  0.9157663656324857  0.2356633504163881  1.0000
  C   C42       1.0  0.3555678145697598  0.4157661336526103  0.2643345842819542  1.0000
  C   C43       1.0  0.8555692078102837  0.08423486004086558  0.7643360336726345  1.0000
  C   C44       1.0  0.6444332471767993  0.5842305217391512  0.7356639713629461  1.0000
  C   C45       1.0  0.2565516694260239  0.9132801324458839  0.104773395027884  1.0000
  C   C46       1.0  0.24344799908000425  0.4132814238932028  0.39522584357405327  1.0000
  C   C47       1.0  0.743446805218788  0.0867195698002732  0.8952264645206115  1.0000
  C   C48       1.0  0.7565522002993035  0.586716754925753  0.60477551598062  1.0000
  C   C49       1.0  0.328527427115354  0.8390008691417989  0.1457126470244248  1.0000
  C   C50       1.0  0.1714722413906742  0.3389998754483229  0.35428730236008477  1.0000
  C   C51       1.0  0.6714753593656937  0.16100187995874646  0.8542866978440811  1.0000
  C   C52       1.0  0.8285262332541379  0.6609975416570322  0.6457132679709828  1.0000
  N   N1        1.0  0.5249220819972962  0.6107404401194358  0.2963910809911638  1.0000
  N   N2        1.0  0.9750769235207882  0.11073792299876568  0.2036108995100605  1.0000
  N   N3        1.0  0.4750763926475088  0.3892615472675089  0.7036116216876138  1.0000
  N   N4        1.0  0.0249232758585194  0.8892610175337906  0.7963883276968886  1.0000
  N   N5        1.0  0.4682835258284541  0.6856016526130304  0.2437327051356206  1.0000
  N   N6        1.0  0.0317187297793211  0.1855991354923603  0.2562694942581487  1.0000
  N   N7        1.0  0.5317183982853493  0.314401096487515  0.7562687328600789  1.0000
  N   N8        1.0  0.9682814695999866  0.8143990433265955  0.7437311545139522  1.0000
  N   N9        1.0  0.1658375337867994  0.9516735446816111  0.1486312203092837  1.0000
  N   N10       1.0  0.3341629970864801  0.4516748361289301  0.3513666359480254  1.0000
  N   N11       1.0  0.8341635279597597  0.0483261575645457  0.8513680461181892  1.0000
  N   N12       1.0  0.6658372022928276  0.548322580976425  0.6486325912589308  1.0000
  O   O1        1.0  0.906721383542056  0.2561574278661283  0.3974179996980496  1.0000
  O   O2        1.0  0.5932784843432799  0.756158421559604  0.1025833092411261  1.0000
  O   O3        1.0  0.0932788158372517  0.7438422743800288  0.6025826490740512  1.0000
  O   O4        1.0  0.4067208526687764  0.24384204240014634  0.8974165895278858  1.0000
  O   O5        1.0  0.5424272747813532  0.7221593350755597  0.5037640893890369  1.0000
  O   O6        1.0  0.9575725931039827  0.2221583413820838  0.9962357979849941  1.0000
  O   O7        1.0  0.4575729245979545  0.2778380820297954  0.4962351378179193  1.0000
  O   O8        1.0  0.0424267439080808  0.7778375522960699  0.0037655223491555  1.0000
  O   O9        1.0  0.5861544685006734  0.4682832394379445  0.4475688543649454  1.0000
  O   O10       1.0  0.9138436746501668  0.9682842331314203  0.0524309545680595  1.0000
  O   O11       1.0  0.4138431437768871  0.5317149393810112  0.5524316767456057  1.0000
  O   O12       1.0  0.08615566236189659  0.0317154691147294  0.9475682334183801  1.0000
  O   O13       1.0  0.3471795683403656  0.6942135865614674  0.3703750068532727  1.0000
  O   O14       1.0  0.1528183754311669  0.1942133545815921  0.1296255748727688  1.0000
  O   O15       1.0  0.6528171815699507  0.30578687739828325  0.6296247742541894  1.0000
  O   O16       1.0  0.8471809615808894  0.8057863476645578  0.8703743238962359  1.0000
