data_image0
_chemical_formula_structural       Zn2H19C42Br5N4O8
_chemical_formula_sum              "Zn2 H19 C42 Br5 N4 O8"
_cell_length_a       12.513321571168072
_cell_length_b       13.35943226902299
_cell_length_c       15.932423049103466
_cell_angle_alpha    89.18050754729049
_cell_angle_beta     105.33221655952008
_cell_angle_gamma    99.58638617299803

_space_group_name_H-M_alt    "P 1"
_space_group_IT_number       1

loop_
  _space_group_symop_operation_xyz
  'x, y, z'

loop_
  _atom_site_type_symbol
  _atom_site_label
  _atom_site_symmetry_multiplicity
  _atom_site_fract_x
  _atom_site_fract_y
  _atom_site_fract_z
  _atom_site_occupancy
  Zn  Zn1       1.0  0.6098029815231953  0.4826648683558049  0.5148863851414731  1.0000
  Zn  Zn2       1.0  0.3812880565288737  0.5116747713443246  0.47426296469366486  1.0000
  H   H1        1.0  0.5306460647858557  0.6877272874545282  0.03082379669070431  1.0000
  H   H2        1.0  0.08073630444314973  0.703605658386657  0.3137278547758767  1.0000
  H   H3        1.0  0.2533043223997923  0.4134346778495797  0.5669781745040652  1.0000
  H   H4        1.0  0.33081098228389294  0.41717400452382236  0.01875179984438091  1.0000
  H   H5        1.0  0.24053548322093826  0.20598534300859944  0.5226552782527136  1.0000
  H   H6        1.0  0.3061684841321295  0.8828494103192955  0.6389535006056377  1.0000
  H   H7        1.0  0.2211103666306684  0.032423947812915806  0.5840785369828082  1.0000
  H   H8        1.0  0.27608368573996245  0.5977503568081206  0.9081912404505201  1.0000
  H   H9        1.0  0.3521360481010093  0.6179801566591724  0.8360426865782669  1.0000
  H   H10       1.0  0.4969556885546922  0.25410376057560313  0.009689645947098272  1.0000
  H   H11       1.0  0.44144367170565607  0.27371239501379563  0.9043791628144504  1.0000
  H   H12       1.0  0.5557815409987158  0.17178104331179617  0.4803395120451838  1.0000
  H   H13       1.0  0.7505311575568996  0.7838783697891146  0.5039377545056354  1.0000
  H   H14       1.0  0.6694025965190916  0.08486922740362252  0.4853810331872452  1.0000
  H   H15       1.0  0.7199391424780401  0.31698388351262013  0.6037251810421083  1.0000
  H   H16       1.0  0.1084629664373438  0.30517592071500144  0.6223422480282607  1.0000
  H   H17       1.0  0.8096684155333449  0.5555109132956488  0.45535346726735076  1.0000
  H   H18       1.0  0.27425014956471483  0.663689661747036  0.37571094594420634  1.0000
  H   H19       1.0  0.6895247635311392  0.5930968907925446  0.9764735610074664  1.0000
  C   C1        1.0  0.5670040215180238  0.6881865386089105  0.5350339271915345  1.0000
  C   C2        1.0  0.4011414843610551  0.197487804036804  0.4992732886081725  1.0000
  C   C3        1.0  0.699284099905647  0.8376036341271131  0.5160136520904074  1.0000
  C   C4        1.0  0.49703110577402043  0.5307857744426556  0.3346870750104998  1.0000
  C   C5        1.0  0.7237287822928237  0.9408846250364888  0.49903168198481745  1.0000
  C   C6        1.0  0.6512582025340521  0.006584118314151501  0.5041297436521504  1.0000
  C   C7        1.0  0.5543826023651874  0.972455727880707  0.5334581116996304  1.0000
  C   C8        1.0  0.535325453739027  0.8698782633841377  0.5608008581732236  1.0000
  C   C9        1.0  0.4731571788404878  0.03866743753369661  0.5336452170911627  1.0000
  C   C10       1.0  0.37763630647939544  0.0015302393296536998  0.5651039399018885  1.0000
  C   C11       1.0  0.37114140699817  0.905299777197648  0.6050584727204011  1.0000
  C   C12       1.0  0.5069620052622597  0.5198091291733676  0.08200770060654608  1.0000
  C   C13       1.0  0.44776820293640907  0.8435671789685416  0.6046408634508535  1.0000
  C   C14       1.0  0.48319081451967344  0.1379757183953672  0.5026345073679435  1.0000
  C   C15       1.0  0.30442430450234786  0.1584132357594612  0.526860013036213  1.0000
  C   C16       1.0  0.42090905134318035  0.3057948170378851  0.4736807741292707  1.0000
  C   C17       1.0  0.604174980758316  0.8016991684966326  0.543873632158288  1.0000
  C   C18       1.0  0.8894528689838596  0.32770422457433307  0.5899241164633722  1.0000
  C   C19       1.0  0.20274257145853616  0.6242556985264829  0.3968903879906023  1.0000
  C   C20       1.0  0.0950945722393044  0.6469663309371897  0.3634066594127532  1.0000
  C   C21       1.0  0.005821530943130406  0.5937914600606718  0.390895313179726  1.0000
  C   C22       1.0  0.02517411109556629  0.5214342492874025  0.4576054647549768  1.0000
  C   C23       1.0  0.5003311145185521  0.40295342977343307  0.9797461487890968  1.0000
  C   C24       1.0  0.1381039885665913  0.5008993594496189  0.48477593480632203  1.0000
  C   C25       1.0  0.9435333286361925  0.4653420525379986  0.49893260023258523  1.0000
  C   C26       1.0  0.9735337637873372  0.3836547937321626  0.5548682755227715  1.0000
  C   C27       1.0  0.08616648266507809  0.3649230841059535  0.577118246333576  1.0000
  C   C28       1.0  0.5121360599269522  0.46495774200761275  0.6589093698044054  1.0000
  C   C29       1.0  0.1659082716580542  0.4237656816407025  0.5459810991510422  1.0000
  C   C30       1.0  0.8367491853734917  0.4908491886531793  0.49170497771463306  1.0000
  C   C31       1.0  0.785693115899953  0.35675163045605984  0.5763679960166214  1.0000
  C   C32       1.0  0.6098488070532042  0.5549510379990537  0.9865476458165218  1.0000
  C   C33       1.0  0.5215943278205587  0.6067353436848395  0.01521861318734349  1.0000
  C   C34       1.0  0.5134928800097995  0.49064686192312484  0.9128881355114373  1.0000
  C   C35       1.0  0.5000486760988849  0.5362817388976852  0.24471326159348183  1.0000
  C   C36       1.0  0.5152290154794983  0.465729161347973  0.7499560605534228  1.0000
  C   C37       1.0  0.5963197982633304  0.46853711266098236  0.051249067211664064  1.0000
  C   C38       1.0  0.41051432521813785  0.4558073901565792  0.008669227006748796  1.0000
  C   C39       1.0  0.4229805505995401  0.5415938415773808  0.9426203886645297  1.0000
  C   C40       1.0  0.5035462959857284  0.5316950912307733  0.16916816731932016  1.0000
  C   C41       1.0  0.515851336827481  0.4761432724854515  0.8259784198532072  1.0000
  C   C42       1.0  0.29398377084948635  0.0625498060922212  0.5603600369787853  1.0000
  Br  Br1       1.0  0.8557404809994296  0.988762400517885  0.4620238226873497  1.0000
  Br  Br2       1.0  0.44379441566535144  0.7268026573812206  0.6747652318788367  1.0000
  Br  Br3       1.0  0.916349715310666  0.21255924378840524  0.6583687255126165  1.0000
  Br  Br4       1.0  0.8622066263351799  0.6194432005476856  0.32713439728686927  1.0000
  Br  Br5       1.0  0.7180387785325877  0.4155975304517979  0.12791396673050315  1.0000
  N   N1        1.0  0.7626405571187364  0.4395333682374132  0.5297892942437699  1.0000
  N   N2        1.0  0.2231315061261796  0.5510338459876819  0.4536001526261372  1.0000
  N   N3        1.0  0.3296645683247307  0.5688583446782758  0.8805316350464237  1.0000
  N   N4        1.0  0.5018884989592821  0.30108987484363325  0.9593380365310438  1.0000
  O   O1        1.0  0.6409109696658533  0.631635028346807  0.5600012037272961  1.0000
  O   O2        1.0  0.4641568458598897  0.6597166110489285  0.4948794130316401  1.0000
  O   O3        1.0  0.5918168266160393  0.5342409779511926  0.3906867755210327  1.0000
  O   O4        1.0  0.4007713560642969  0.521160559159874  0.3496510410988449  1.0000
  O   O5        1.0  0.5186224078437577  0.34219995583774215  0.4661500178393112  1.0000
  O   O6        1.0  0.34042259525492113  0.3558216045062039  0.4652178632239767  1.0000
  O   O7        1.0  0.5940665534910962  0.4384348835896292  0.6367384685496801  1.0000
  O   O8        1.0  0.42594333923532457  0.49364396028625623  0.6082619585741041  1.0000
