data_image0
_chemical_formula_structural       K2H2C6N8O8
_chemical_formula_sum              "K2 H2 C6 N8 O8"
_cell_length_a       6.981535816410747
_cell_length_b       6.782186746851495
_cell_length_c       8.073430767916257
_cell_angle_alpha    99.23825545915945
_cell_angle_beta     97.62921604306631
_cell_angle_gamma    115.51942873890592

_space_group_name_H-M_alt    "P 1"
_space_group_IT_number       1

loop_
  _space_group_symop_operation_xyz
  'x, y, z'

loop_
  _atom_site_type_symbol
  _atom_site_label
  _atom_site_symmetry_multiplicity
  _atom_site_fract_x
  _atom_site_fract_y
  _atom_site_fract_z
  _atom_site_occupancy
  K   K1        1.0  0.9821530821741009  0.20015566133814383  0.32420560595628695  1.0000
  K   K2        1.0  0.017806502830154614  0.799884232492303  0.6757911181595303  1.0000
  H   H1        1.0  0.4846969932763372  0.7838762090734759  0.8703285519420729  1.0000
  H   H2        1.0  0.515311904849945  0.21611608131826893  0.129666181592377  1.0000
  C   C1        1.0  0.4347500347513675  0.6927801527580897  0.2382989654279584  1.0000
  C   C2        1.0  0.5652489311474298  0.3072189507999212  0.7616980203171548  1.0000
  C   C3        1.0  0.2571485629253161  0.5206721858347263  0.9889792194002139  1.0000
  C   C4        1.0  0.7428560867894876  0.47932350379301164  0.011017960942346885  1.0000
  C   C5        1.0  0.4373626260292555  0.7215189569800413  0.9817916560267077  1.0000
  C   C6        1.0  0.5626457444832269  0.2784817742982426  0.018207877705037814  1.0000
  N   N1        1.0  0.25643471537431145  0.503217718846706  0.15313975170361258  1.0000
  N   N2        1.0  0.743564164232865  0.4967780010228393  0.8468592421804073  1.0000
  N   N3        1.0  0.5521075796058027  0.8305588158505582  0.14401504316023755  1.0000
  N   N4        1.0  0.447895023648009  0.16944194852305824  0.8559850661965953  1.0000
  N   N5        1.0  0.5009494308976414  0.7453788476764414  0.4215410620926932  1.0000
  N   N6        1.0  0.499049532152199  0.25462025302804386  0.5784571615687922  1.0000
  N   N7        1.0  0.09760885028317291  0.3466585073924263  0.8491563697234382  1.0000
  N   N8        1.0  0.9023993504950314  0.6533354593624665  0.15084594236974172  1.0000
  O   O1        1.0  0.09626012026024004  0.3848872458550119  0.702085919765878  1.0000
  O   O2        1.0  0.9037448067403632  0.6150898603813956  0.2979087710469699  1.0000
  O   O3        1.0  0.9698277892601227  0.1659395781816499  0.8776355623987513  1.0000
  O   O4        1.0  0.030180472169114132  0.8340577465799509  0.12237588280287778  1.0000
  O   O5        1.0  0.6870762653133797  0.9029651348374657  0.4926615200283492  1.0000
  O   O6        1.0  0.31292626304463067  0.09703225726180154  0.5073356458019019  1.0000
  O   O7        1.0  0.3722559697510875  0.631714827235676  0.5027939640260753  1.0000
  O   O8        1.0  0.6277445121459381  0.36828763960946276  0.4972061308184407  1.0000
