data_image0
_chemical_formula_structural       Cd2H38C46N6O12
_chemical_formula_sum              "Cd2 H38 C46 N6 O12"
_cell_length_a       10.027827871436154
_cell_length_b       10.363320217478298
_cell_length_c       13.648
_cell_angle_alpha    100.96543886672903
_cell_angle_beta     92.7852864717405
_cell_angle_gamma    113.17256305557405

_space_group_name_H-M_alt    "P 1"
_space_group_IT_number       1

loop_
  _space_group_symop_operation_xyz
  'x, y, z'

loop_
  _atom_site_type_symbol
  _atom_site_label
  _atom_site_symmetry_multiplicity
  _atom_site_fract_x
  _atom_site_fract_y
  _atom_site_fract_z
  _atom_site_occupancy
  Cd  Cd1       1.0  0.5553758651566554  0.652821863477314  0.9153311625032714  1.0000
  Cd  Cd2       1.0  0.4446266492784972  0.3471793171583144  0.08467005031967291  1.0000
  H   H1        1.0  0.485818460881852  0.8921981088888984  0.08918614832980151  1.0000
  H   H2        1.0  0.5141806085899177  0.1078019937375743  0.9108155184985166  1.0000
  H   H3        1.0  0.339147873075845  0.0797252452361121  0.3473602207876851  1.0000
  H   H4        1.0  0.6608517450501452  0.9202737793812047  0.6526398445089258  1.0000
  H   H5        1.0  0.3901504763757373  0.6815712896929255  0.3365013894844679  1.0000
  H   H6        1.0  0.6098495915004277  0.31842881293354697  0.6634981148663783  1.0000
  H   H7        1.0  0.024384937667569852  0.9867632281841806  0.5818623283469934  1.0000
  H   H8        1.0  0.9756161286130051  0.0132368744422919  0.4181372116506452  1.0000
  H   H9        1.0  0.9351878922557476  0.9418296504902628  0.742168896676212  1.0000
  H   H10       1.0  0.0648130751207887  0.05817260815452839  0.2578309511992884  1.0000
  H   H11       1.0  0.2649962584660912  0.7850547787464208  0.8000029246735282  1.0000
  H   H12       1.0  0.7350033596598919  0.2149442458708961  0.1999964079149876  1.0000
  H   H13       1.0  0.3484990229353926  0.8222126763888511  0.6380039644400313  1.0000
  H   H14       1.0  0.6514991470360058  0.17778527021931004  0.3619951607393617  1.0000
  H   H15       1.0  0.8114459295224421  0.7507546833799522  0.8064091163914995  1.0000
  H   H16       1.0  0.18855313994932738  0.2492454192465203  0.19358961960445953  1.0000
  H   H17       1.0  0.8406589178834024  0.7727654743533776  0.11224619428144679  1.0000
  H   H18       1.0  0.1593411499927626  0.22723462827308788  0.8877525773613115  1.0000
  H   H19       1.0  0.1168423074665412  0.8689066430366168  0.12939493356284973  1.0000
  H   H20       1.0  0.8831572117554031  0.1310945375990116  0.8706047069035279  1.0000
  H   H21       1.0  0.24167225688498203  0.9122296750495521  0.9772070307054932  1.0000
  H   H22       1.0  0.7583272623369695  0.0877715055860762  0.022793342468979506  1.0000
  H   H23       1.0  0.32848231079596246  0.7949681509568052  0.4811758301214866  1.0000
  H   H24       1.0  0.6715177570802027  0.2050319516696675  0.5188244069374477  1.0000
  H   H25       1.0  0.1521549807579277  0.39963308673345205  0.6898286013883637  1.0000
  H   H26       1.0  0.8478450871182446  0.6003670158930206  0.3101723683786588  1.0000
  H   H27       1.0  0.9722054496765153  0.2733885123330566  0.7000971492057816  1.0000
  H   H28       1.0  0.027794168449467704  0.7266105122842601  0.29990438150700527  1.0000
  H   H29       1.0  0.9948116719604696  0.4339579763105377  0.6596709127488795  1.0000
  H   H30       1.0  0.005189844070287121  0.5660432043250907  0.34033099713535364  1.0000
  H   H31       1.0  0.19041171249195799  0.5879515844285805  0.9470237979755893  1.0000
  H   H32       1.0  0.8095888051343963  0.4120495962070478  0.05297734355376352  1.0000
  H   H33       1.0  0.9600047631582243  0.5376656912687423  0.929052203221602  1.0000
  H   H34       1.0  0.03999730152674627  0.46233441135772313  0.070949570547107  1.0000
  H   H35       1.0  0.8703213953412502  0.5050343540777504  0.8055398353287302  1.0000
  H   H36       1.0  0.12967757522648776  0.49496790456703366  0.19446067396126673  1.0000
  H   H37       1.0  0.8554266694899441  0.3565806350189931  0.858086616770322  1.0000
  H   H38       1.0  0.14457574604117698  0.6434227016349539  0.14191710205474814  1.0000
  C   C1        1.0  0.4261491760163238  0.1233878501335894  0.1706578147472726  1.0000
  C   C2        1.0  0.5738494437052566  0.8766111744837274  0.8293429476106271  1.0000
  C   C3        1.0  0.46742525825032294  0.6500287417507876  0.15160731791819163  1.0000
  C   C4        1.0  0.5325748096258491  0.3499713608756848  0.8483929191407427  1.0000
  C   C5        1.0  0.44054964862799295  0.7748266278621116  0.2081698359356992  1.0000
  C   C6        1.0  0.5594504192481722  0.225173474764361  0.7918296684151471  1.0000
  C   C7        1.0  0.45018489038637444  0.8882482833366083  0.16318747390028682  1.0000
  C   C8        1.0  0.5498151774897977  0.1117518192898643  0.8368134958667355  1.0000
  C   C9        1.0  0.41312515617309487  0.9970689957278154  0.2145010160819254  1.0000
  C   C10       1.0  0.5868749117030703  0.0029311068986573  0.785499220977009  1.0000
  C   C11       1.0  0.3675012761924633  0.9938651525123702  0.3096528699797574  1.0000
  C   C12       1.0  0.6324993403379223  0.006133872104946599  0.6903464982555577  1.0000
  C   C13       1.0  0.36005563712842553  0.8811377349351588  0.3553295093043403  1.0000
  C   C14       1.0  0.6399454291521423  0.11886236769131389  0.6446707634013933  1.0000
  C   C15       1.0  0.39715666934529276  0.7720043998883382  0.3038843623259808  1.0000
  C   C16       1.0  0.6028429487806903  0.2279946247289786  0.6961149702625349  1.0000
  C   C17       1.0  0.2380542414796594  0.9429238297849025  0.5003271733873191  1.0000
  C   C18       1.0  0.7619453766463238  0.0570751948324144  0.4996721592011967  1.0000
  C   C19       1.0  0.19166677498996884  0.9074066620798646  0.5977840807783181  1.0000
  C   C20       1.0  0.8083318447316118  0.0925923625374523  0.40221448345531746  1.0000
  C   C21       1.0  0.07648117583965328  0.9421573652740775  0.6296015692022081  1.0000
  C   C22       1.0  0.9235193417867008  0.0578438153615579  0.3703988396190496  1.0000
  C   C23       1.0  0.026783137181794762  0.9167249732354249  0.7199092022854074  1.0000
  C   C24       1.0  0.9732178301947414  0.0832772854093591  0.2800906455901  1.0000
  C   C25       1.0  0.09396058819639554  0.860544526003558  0.7831087395479559  1.0000
  C   C26       1.0  0.9060370331207892  0.1394544986137518  0.21689052174696855  1.0000
  C   C27       1.0  0.21023458101687711  0.8272491351716837  0.7518436531721662  1.0000
  C   C28       1.0  0.7897640387047034  0.1727498894456332  0.2481549110614623  1.0000
  C   C29       1.0  0.2567351522461364  0.8479059466435571  0.6591106042899995  1.0000
  C   C30       1.0  0.7432639172256259  0.1520941559829083  0.3408888644140546  1.0000
  C   C31       1.0  0.03607013227829723  0.8353191117231091  0.8782314348129034  1.0000
  C   C32       1.0  0.963929386943654  0.1646820689125192  0.121767472945379  1.0000
  C   C33       1.0  0.8837161012331124  0.7793057559106273  0.8767313813224931  1.0000
  C   C34       1.0  0.1162819698342545  0.2206943467158453  0.12326731902667383  1.0000
  C   C35       1.0  0.8999220269621657  0.7895931972985863  0.0475707945261306  1.0000
  C   C36       1.0  0.10007759116381722  0.21040582731873056  0.9524270726462092  1.0000
  C   C37       1.0  0.052359829997804724  0.8427465948168018  0.05608235504819701  1.0000
  C   C38       1.0  0.9476396892241467  0.15725458581883336  0.9439172854181807  1.0000
  C   C39       1.0  0.12213973056284999  0.8661232233925062  0.970848953265687  1.0000
  C   C40       1.0  0.8778596897550699  0.1338801132614407  0.029149529662376498  1.0000
  C   C41       1.0  0.04423319711853677  0.3882342179043262  0.7096469626362776  1.0000
  C   C42       1.0  0.9557668707576354  0.6117658847221463  0.2903554725469277  1.0000
  C   C43       1.0  0.1927707552901552  0.5308569854313419  0.8703759520822629  1.0000
  C   C44       1.0  0.8072307607405946  0.46914419520429357  0.12962522509388924  1.0000
  C   C45       1.0  0.9298126947457417  0.4660136566115368  0.8537416652943365  1.0000
  C   C46       1.0  0.07018872238097631  0.5339896800424029  0.14625835434349455  1.0000
  N   N1        1.0  0.3149423150695512  0.8718970404389168  0.45080071219820184  1.0000
  N   N2        1.0  0.685057303056432  0.128101984178393  0.549198620390321  1.0000
  N   N3        1.0  0.8171753906326131  0.7573467093767476  0.9584787673498811  1.0000
  N   N4        1.0  0.1828256756479547  0.242653393249725  0.04152150535585261  1.0000
  N   N5        1.0  0.06098107734442242  0.4652331779816663  0.8135630929732615  1.0000
  N   N6        1.0  0.9390204386863346  0.5347680026539621  0.1864388169109716  1.0000
  O   O1        1.0  0.3986859417653222  0.22321257610726516  0.222969498808375  1.0000
  O   O2        1.0  0.6013121293020447  0.7767875265192075  0.7770321323731437  1.0000
  O   O3        1.0  0.4650861567734381  0.1260494547429261  0.08278487873315041  1.0000
  O   O4        1.0  0.5349129126983243  0.8739506478835466  0.9172160553870727  1.0000
  O   O5        1.0  0.5480139994939606  0.6690717735142185  0.0820146152764494  1.0000
  O   O6        1.0  0.45198706678660727  0.33092832911225395  0.9179856574292842  1.0000
  O   O7        1.0  0.4049637571402727  0.5308979497793159  0.17761285265556384  1.0000
  O   O8        1.0  0.5950373091402952  0.4691021528471566  0.8223866873420747  1.0000
  O   O9        1.0  0.20541726448705333  0.030577729746369197  0.4659198386330985  1.0000
  O   O10       1.0  0.7945848001979172  0.9694223728801035  0.5340790043032514  1.0000
  O   O11       1.0  0.3080962647787544  0.5296312890195054  0.840748182630314  1.0000
  O   O12       1.0  0.6919048015018133  0.47036881360696725  0.1592528227835075  1.0000
