data_image0
_chemical_formula_structural       Ag2H12C16S2N14O6
_chemical_formula_sum              "Ag2 H12 C16 S2 N14 O6"
_cell_length_a       7.407485191502796
_cell_length_b       8.17449732723122
_cell_length_c       10.476557353467404
_cell_angle_alpha    90.56263560117331
_cell_angle_beta     107.90673778694193
_cell_angle_gamma    96.53225947595897

_space_group_name_H-M_alt    "P 1"
_space_group_IT_number       1

loop_
  _space_group_symop_operation_xyz
  'x, y, z'

loop_
  _atom_site_type_symbol
  _atom_site_label
  _atom_site_symmetry_multiplicity
  _atom_site_fract_x
  _atom_site_fract_y
  _atom_site_fract_z
  _atom_site_occupancy
  Ag  Ag1       1.0  0.7697670368689913  0.17408268518030204  0.2519582615297437  1.0000
  Ag  Ag2       1.0  0.2302357430865456  0.8259148291194903  0.7480396184180262  1.0000
  H   H1        1.0  0.5728002945662922  0.24985456233669365  0.9236101484351875  1.0000
  H   H2        1.0  0.42719866671569656  0.7501465940065868  0.07638882035793418  1.0000
  H   H3        1.0  0.8905358122398327  0.8642296228981792  0.08724339720631488  1.0000
  H   H4        1.0  0.1094631490421563  0.13577153344510146  0.9127555715868069  1.0000
  H   H5        1.0  0.7019482350605841  0.5748936571119501  0.9457934333609401  1.0000
  H   H6        1.0  0.2980518246764703  0.425105049252643  0.054206714423599964  1.0000
  H   H7        1.0  0.7668545445999512  0.5919323391055328  0.524361725936231  1.0000
  H   H8        1.0  0.23314628192065362  0.408072528092532  0.4756395975893993  1.0000
  H   H9        1.0  0.9753018791013304  0.2801880283537129  0.5874838700626197  1.0000
  H   H10       1.0  0.024702245264812506  0.71980828481594  0.4125076175307142  1.0000
  H   H11       1.0  0.6000130667628981  0.8593413381079098  0.40083466618662555  1.0000
  H   H12       1.0  0.39998632534312156  0.14065242982491807  0.5991691106600996  1.0000
  C   C1        1.0  0.6427685828414557  0.13897737296240104  0.9325958081967937  1.0000
  C   C2        1.0  0.3572278477148956  0.8610262141223683  0.06740261714460156  1.0000
  C   C3        1.0  0.8031906395120246  0.9435689589152145  0.018556471005446412  1.0000
  C   C4        1.0  0.1968072120223638  0.05643464537237718  0.9814422708077327  1.0000
  C   C5        1.0  0.7204744693199814  0.6150294615406434  0.8510706865480556  1.0000
  C   C6        1.0  0.27952432505424707  0.3849704601947008  0.1489291895106177  1.0000
  C   C7        1.0  0.7308195066539086  0.7728552349162356  0.807019502107657  1.0000
  C   C8        1.0  0.2691748578784471  0.22714340060269217  0.19298033180120194  1.0000
  C   C9        1.0  0.7489549731840057  0.7782241621209136  0.6748255423059888  1.0000
  C   C10       1.0  0.2510459863667336  0.22178193358197967  0.3251777299885106  1.0000
  C   C11       1.0  0.7498167748679239  0.623991284386342  0.6210070283681544  1.0000
  C   C12       1.0  0.2501850170776053  0.37600990432821374  0.378993525380018  1.0000
  C   C13       1.0  0.8902726256631368  0.1600131019964692  0.5725269350850865  1.0000
  C   C14       1.0  0.10972702369097219  0.8399819168192832  0.42746831840431543  1.0000
  C   C15       1.0  0.6989173728551138  0.9480075627411962  0.4743148650237216  1.0000
  C   C16       1.0  0.30108079905824786  0.051987428699867194  0.5256848320512545  1.0000
  S   S1        1.0  0.7309801150509757  0.47589808284092056  0.7314926145892995  1.0000
  S   S2        1.0  0.26902183250977174  0.5241043384472092  0.26850798390479713  1.0000
  N   N1        1.0  0.7550153428001141  0.0868606406031347  0.05133799678592515  1.0000
  N   N2        1.0  0.2449853506903565  0.9131429980901087  0.9486613779708362  1.0000
  N   N3        1.0  0.6186572068594743  0.03603010641155889  0.8284999101277535  1.0000
  N   N4        1.0  0.38133431571679915  0.9639684947017241  0.17149929083752363  1.0000
  N   N5        1.0  0.7227783080548846  0.9120760135768718  0.8848043992020961  1.0000
  N   N6        1.0  0.2772173218402898  0.08792140657131138  0.11519570643261544  1.0000
  N   N7        1.0  0.7714498225181574  0.9236980504264946  0.6068043393253432  1.0000
  N   N8        1.0  0.22854768390817531  0.07630308261084909  0.393197169030408  1.0000
  N   N9        1.0  0.895013875374289  0.05839612514800048  0.6710376702590606  1.0000
  N   N10       1.0  0.1049841430678597  0.9416087137475411  0.3289601642885741  1.0000
  N   N11       1.0  0.7719003667216596  0.09699845506404607  0.44988022329543026  1.0000
  N   N12       1.0  0.2281035342740196  0.902996613325797  0.5501169316208062  1.0000
  N   N13       1.0  0.7397040344572899  0.5444333255523757  0.23401023184000982  1.0000
  N   N14       1.0  0.2602975792879434  0.4555666265198609  0.7659921811851828  1.0000
  O   O1        1.0  0.8062411185226994  0.48638172770933596  0.3495613763212758  1.0000
  O   O2        1.0  0.19376161626266963  0.5136157784529585  0.6504403116723834  1.0000
  O   O3        1.0  0.7071537798922733  0.45101485683913706  0.12956090964080857  1.0000
  O   O4        1.0  0.2928484676063761  0.5489900275617501  0.8704407303566126  1.0000
  O   O5        1.0  0.7071701098869811  0.6926186436400457  0.2240239190096247  1.0000
  O   O6        1.0  0.29283160301076094  0.3073825308339053  0.7759832988188577  1.0000
