data_image0
_chemical_formula_structural       Cu4H64C40S8N8Cl4
_chemical_formula_sum              "Cu4 H64 C40 S8 N8 Cl4"
_cell_length_a       9.84309610322385
_cell_length_b       10.643431518826056
_cell_length_c       14.146991528952707
_cell_angle_alpha    77.96280772355539
_cell_angle_beta     69.62892937292592
_cell_angle_gamma    62.45415080469207

_space_group_name_H-M_alt    "P 1"
_space_group_IT_number       1

loop_
  _space_group_symop_operation_xyz
  'x, y, z'

loop_
  _atom_site_type_symbol
  _atom_site_label
  _atom_site_symmetry_multiplicity
  _atom_site_fract_x
  _atom_site_fract_y
  _atom_site_fract_z
  _atom_site_occupancy
  Cu  Cu1       1.0  0.14562985074159215  0.3966781734122194  0.9605673247697624  1.0000
  Cu  Cu2       1.0  0.502716445166385  0.10332937162754523  0.539476792265944  1.0000
  Cu  Cu3       1.0  0.8543690130420956  0.6033231583367498  0.03943341033753708  1.0000
  Cu  Cu4       1.0  0.4972826211844745  0.8966730174403994  0.46052319012710535  1.0000
  H   H1        1.0  0.49314183562149355  0.19042511835468198  0.8752720200705965  1.0000
  H   H2        1.0  0.5584981009967435  0.30932923656676087  0.6249205297041415  1.0000
  H   H3        1.0  0.5068573004560547  0.8095761870127663  0.12472413029201589  1.0000
  H   H4        1.0  0.4414998173683389  0.6906731342819584  0.37507628075807997  1.0000
  H   H5        1.0  0.4996437381027121  0.13672080620020213  0.7628165166065699  1.0000
  H   H6        1.0  0.39852889922939744  0.3633254072213461  0.7372604624243948  1.0000
  H   H7        1.0  0.5003537751280045  0.8632794500105596  0.23718179928415142  1.0000
  H   H8        1.0  0.6014736013358899  0.6366737742526001  0.2627356005009745  1.0000
  H   H9        1.0  0.7459325683965619  0.951201540879673  0.7725159057245818  1.0000
  H   H10       1.0  0.46948204783212333  0.5486006653995833  0.7275323031887453  1.0000
  H   H11       1.0  0.2540659670026529  0.04879977414401542  0.2274819206294012  1.0000
  H   H12       1.0  0.5305188298863399  0.4513974669176763  0.27246592526472574  1.0000
  H   H13       1.0  0.6970975220798294  0.9539732789586424  0.9058787958443303  1.0000
  H   H14       1.0  0.5570375339420861  0.5456103685194053  0.5941741581002304  1.0000
  H   H15       1.0  0.3029013253480528  0.046029098959117214  0.09411924737983668  1.0000
  H   H16       1.0  0.44296193051992827  0.45439095357332354  0.4058249010156985  1.0000
  H   H17       1.0  0.6137178320107065  0.806196150339979  0.7879353336151026  1.0000
  H   H18       1.0  0.2077711277865361  0.6937717082366178  0.7119204519708832  1.0000
  H   H19       1.0  0.3862820305624624  0.19380410477752727  0.21206280222371277  1.0000
  H   H20       1.0  0.7922282435697882  0.30622856211222443  0.2880803294437442  1.0000
  H   H21       1.0  0.6368962969925888  0.7589311934395725  0.9125832271720569  1.0000
  H   H22       1.0  0.30870404214986996  0.7409245377508145  0.5873174840072507  1.0000
  H   H23       1.0  0.3631033700366118  0.24107118597213179  0.08741507922962201  1.0000
  H   H24       1.0  0.6912963513749519  0.25907679141095497  0.41268280787063116  1.0000
  H   H25       1.0  0.1998235750877553  0.9148445558070721  0.9828660831475204  1.0000
  H   H26       1.0  0.09761863449557501  0.5854085863397458  0.5169239202424265  1.0000
  H   H27       1.0  0.800177631015174  0.0851535932354608  0.01713505405926701  1.0000
  H   H28       1.0  0.9023779894071424  0.41459275207756724  0.48307796450121276  1.0000
  H   H29       1.0  0.3758964976233654  0.7531957566873971  0.985226307467478  1.0000
  H   H30       1.0  0.1144350945898224  0.7470088480718574  0.5146974902317751  1.0000
  H   H31       1.0  0.6241076585003497  0.24680238160565438  0.014772973696047053  1.0000
  H   H32       1.0  0.8855606072732987  0.252995664889589  0.4853025795985246  1.0000
  H   H33       1.0  0.4270555428299475  0.735379360340474  0.7989154848117012  1.0000
  H   H34       1.0  0.9616160628132631  0.7645029014018834  0.7010215726140103  1.0000
  H   H35       1.0  0.5729441335318486  0.2646187912892657  0.20108609562450402  1.0000
  H   H36       1.0  0.03838045162796521  0.23549843144033397  0.29897934254518793  1.0000
  H   H37       1.0  0.2553351723698118  0.7135275253946249  0.8807114292507946  1.0000
  H   H38       1.0  0.8496781714633953  0.7864302447367849  0.6193342622063297  1.0000
  H   H39       1.0  0.7446634888466905  0.28647274903536163  0.1192900585707549  1.0000
  H   H40       1.0  0.15031700878066795  0.21356896639843378  0.3806669256194155  1.0000
  H   H41       1.0  0.9998649095149545  0.04044348484319472  0.8865326425442958  1.0000
  H   H42       1.0  0.9270039032114995  0.4593766144050095  0.613491809933464  1.0000
  H   H43       1.0  0.00013547698665663607  0.9595546627053936  0.11346823148497982  1.0000
  H   H44       1.0  0.07299229920105431  0.5406236555431293  0.38650888835555014  1.0000
  H   H45       1.0  0.9935703662184421  0.8849352111671679  0.8630735910995925  1.0000
  H   H46       1.0  0.741860897084443  0.615079732869994  0.6368570670007686  1.0000
  H   H47       1.0  0.006431948135471523  0.11506186681900492  0.1369259164231593  1.0000
  H   H48       1.0  0.25813492357275447  0.3849205578845771  0.3631472464484915  1.0000
  H   H49       1.0  0.872686345142583  0.14179095295337876  0.7523524530657113  1.0000
  H   H50       1.0  0.7666275640474114  0.3583975001170004  0.7477343247259327  1.0000
  H   H51       1.0  0.1273132217577171  0.8582071931012651  0.24764815778604543  1.0000
  H   H52       1.0  0.23337264326603  0.6416017255569957  0.25226941174933154  1.0000
  H   H53       1.0  0.9670615037503016  0.9785809011030013  0.6950863670163159  1.0000
  H   H54       1.0  0.6406570215985212  0.5217112276472664  0.8048711330410114  1.0000
  H   H55       1.0  0.03294049857493771  0.021415113989100103  0.3049129236362447  1.0000
  H   H56       1.0  0.35934552803416875  0.47828481532030065  0.1951330055337479  1.0000
  H   H57       1.0  0.1490821500704129  0.07401157578212292  0.5859178239965034  1.0000
  H   H58       1.0  0.8086676128857916  0.42634190730616695  0.9141218566486272  1.0000
  H   H59       1.0  0.8509182434544088  0.9259897533796461  0.4140824678813857  1.0000
  H   H60       1.0  0.19133839434032743  0.5736530635117847  0.0858804721901976  1.0000
  H   H61       1.0  0.12037642961124131  0.1775005209029104  0.6810161255218147  1.0000
  H   H62       1.0  0.97857736009285  0.32248628985837513  0.8191849622829325  1.0000
  H   H63       1.0  0.8796222316052673  0.8224997535270763  0.3189853622997347  1.0000
  H   H64       1.0  0.02142914537332529  0.6775118473414211  0.18081413882869413  1.0000
  C   C1        1.0  0.3630788263603506  0.0657635875177149  0.8933613962405786  1.0000
  C   C2        1.0  0.32206679937808536  0.43422638356340576  0.6065525001174734  1.0000
  C   C3        1.0  0.6369179907769578  0.934243036000538  0.10663646175429156  1.0000
  C   C4        1.0  0.6779318454826181  0.5657749370353786  0.3934462958209437  1.0000
  C   C5        1.0  0.5029230952634124  0.10159977975266093  0.8413699780047991  1.0000
  C   C6        1.0  0.4455474944025756  0.3982604562321797  0.6587036185773273  1.0000
  C   C7        1.0  0.4970788977292384  0.8984004631214123  0.15862603861324234  1.0000
  C   C8        1.0  0.5544525707377801  0.601740856204309  0.34129376454723837  1.0000
  C   C9        1.0  0.6509631232293953  0.9616138090937627  0.8436409054810454  1.0000
  C   C10       1.0  0.4561651740912964  0.5381187864967956  0.6563957217717017  1.0000
  C   C11       1.0  0.3490389792247442  0.038386439355399204  0.15635608072143733  1.0000
  C   C12       1.0  0.5438324556241199  0.46188465690223535  0.34360298155206687  1.0000
  C   C13       1.0  0.5902795381378353  0.8477923118625345  0.8597208992382263  1.0000
  C   C14       1.0  0.29787561852257477  0.6521019296684545  0.6401706822422993  1.0000
  C   C15       1.0  0.40971910672286793  0.15220900873625  0.14027789670019084  1.0000
  C   C16       1.0  0.7021234478282922  0.34790045939949016  0.35982930015075004  1.0000
  C   C17       1.0  0.3188804032947558  0.8455870767373102  0.937522162661523  1.0000
  C   C18       1.0  0.10214578139778736  0.6545391039866004  0.5623155861533178  1.0000
  C   C19       1.0  0.6811182579217459  0.15441319769267645  0.06247932516002658  1.0000
  C   C20       1.0  0.8978502254708048  0.3454632902557365  0.4376852826985528  1.0000
  C   C21       1.0  0.3069994709427276  0.7908748642190988  0.8498345123252167  1.0000
  C   C22       1.0  0.9478829304540644  0.7090681719339359  0.6501326063211439  1.0000
  C   C23       1.0  0.6930017351602018  0.20912328482343412  0.15016662488157104  1.0000
  C   C24       1.0  0.05211276438585347  0.29093315941433673  0.3498680456605427  1.0000
  C   C25       1.0  0.03630984261330634  0.9673655439374403  0.8282405754862339  1.0000
  C   C26       1.0  0.8321234881229247  0.5326112956234398  0.6717150304989019  1.0000
  C   C27       1.0  0.963690543888305  0.032632603611148205  0.17176029854304192  1.0000
  C   C28       1.0  0.1678754780990416  0.46738686008743735  0.32828725634422534  1.0000
  C   C29       1.0  0.9852038716264032  0.04599998093414831  0.7341836250264819  1.0000
  C   C30       1.0  0.7653089213539489  0.4541650832187046  0.7658166134164619  1.0000
  C   C31       1.0  0.014798552188992014  0.9539971026271207  0.2658168520807109  1.0000
  C   C32       1.0  0.2346938144901216  0.5458330632366357  0.23418408056091522  1.0000
  C   C33       1.0  0.12880867061362988  0.07555370304755371  0.6671377729764743  1.0000
  C   C34       1.0  0.8712908682246548  0.42454185957707585  0.832908096196313  1.0000
  C   C35       1.0  0.8711924260278111  0.9244444404198904  0.332862394645872  1.0000
  C   C36       1.0  0.12871441250584328  0.575454161490818  0.16709224716630192  1.0000
  C   C37       1.0  0.26778683617531157  0.9595534642948566  0.6999669349926662  1.0000
  C   C38       1.0  0.9275165768504647  0.5403123449636739  0.7999790378967332  1.0000
  C   C39       1.0  0.7322141743836427  0.04044680904188171  0.30003437277699163  1.0000
  C   C40       1.0  0.0724867760277377  0.4596847456666355  0.20002267197240542  1.0000
  S   S1        1.0  0.16958394020193177  0.18288351846824474  0.9315431835219384  1.0000
  S   S2        1.0  0.2838239554428626  0.31717470586314533  0.5683616604132524  1.0000
  S   S3        1.0  0.8304180855023164  0.8171146320682398  0.06845821686236063  1.0000
  S   S4        1.0  0.7161709268189469  0.6828298056043567  0.4316381462395285  1.0000
  S   S5        1.0  0.006863828643915437  0.5913774670337588  0.8648245762338006  1.0000
  S   S6        1.0  0.4630679379839363  0.9084698798609597  0.635102809206785  1.0000
  S   S7        1.0  0.9931377989491708  0.4086217504779486  0.135177747427619  1.0000
  S   S8        1.0  0.5369317454010627  0.09153145338195401  0.36489818907802635  1.0000
  N   N1        1.0  0.41579428750295444  0.9246602962124941  0.9023443530564563  1.0000
  N   N2        1.0  0.242947410163531  0.5753461772091343  0.5974418765300413  1.0000
  N   N3        1.0  0.5842063015658426  0.07533890865507692  0.09765576825856927  1.0000
  N   N4        1.0  0.7570496188735518  0.4246572758461299  0.4025585027850909  1.0000
  N   N5        1.0  0.21208554248053688  0.9017448472820607  0.789888773059161  1.0000
  N   N6        1.0  0.903996360172066  0.5981419717479498  0.7100506698130361  1.0000
  N   N7        1.0  0.787915756728083  0.09825435350436613  0.21011064184893513  1.0000
  N   N8        1.0  0.09600413579103417  0.4018561813757346  0.2899511738006808  1.0000
  Cl  Cl1       1.0  0.36882892305877846  0.43441412983016664  0.9337404756826828  1.0000
  Cl  Cl2       1.0  0.7368524767131321  0.06565849732687921  0.5662737968720535  1.0000
  Cl  Cl3       1.0  0.631171158437368  0.5655861364375313  0.06625959932501498  1.0000
  Cl  Cl4       1.0  0.26314771424451094  0.9343417745159073  0.43372724772008553  1.0000
