data_image0
_chemical_formula_structural       Cd4Ni4H44C40N28
_chemical_formula_sum              "Cd4 Ni4 H44 C40 N28"
_cell_length_a       7.744028607
_cell_length_b       12.326080644
_cell_length_c       13.7768
_cell_angle_alpha    90.0
_cell_angle_beta     90.0
_cell_angle_gamma    90.0

_space_group_name_H-M_alt    "P 1"
_space_group_IT_number       1

loop_
  _space_group_symop_operation_xyz
  'x, y, z'

loop_
  _atom_site_type_symbol
  _atom_site_label
  _atom_site_symmetry_multiplicity
  _atom_site_fract_x
  _atom_site_fract_y
  _atom_site_fract_z
  _atom_site_occupancy
  Cd  Cd1       1.0  0.7499998120810145  0.4775005267278516  0.6419727367748678  1.0000
  Cd  Cd2       1.0  0.2499990764819771  0.0224970132849975  0.1419727367748678  1.0000
  Cd  Cd3       1.0  0.7500011033985599  0.9775005006043855  0.8580272632251322  1.0000
  Cd  Cd4       1.0  0.2499990764819771  0.5224961758736342  0.3580265373671666  1.0000
  Ni  Ni1       1.0  0.7499998120810145  0.7604371795638584  0.25602607281807377  1.0000
  Ni  Ni2       1.0  0.2499990764819771  0.7395635533536264  0.7560209918123206  1.0000
  Ni  Ni3       1.0  0.7499985207634694  0.2604363943994343  0.2439732013239677  1.0000
  Ni  Ni4       1.0  0.2500003677995224  0.2395635794770996  0.7439775564717481  1.0000
  H   H1        1.0  0.8558646069577944  0.5705260417408624  0.16591879101097362  1.0000
  H   H2        1.0  0.14413428160518996  0.9294755024645127  0.6659187910109737  1.0000
  H   H3        1.0  0.6441350172042277  0.0705260678643356  0.3340819348469921  1.0000
  H   H4        1.0  0.3558664539938475  0.4294747173000886  0.8340812089890266  1.0000
  H   H5        1.0  0.1441355729227354  0.4294747173000886  0.8340812089890266  1.0000
  H   H6        1.0  0.8558646069577944  0.0705268791522258  0.3340812089890265  1.0000
  H   H7        1.0  0.3558651626763023  0.9294755024645127  0.6659195168689394  1.0000
  H   H8        1.0  0.6441350172042277  0.5705260417408624  0.1659180651530079  1.0000
  H   H9        1.0  0.7499998120810145  0.4349127800497925  0.44082878462342734  1.0000
  H   H10       1.0  0.2500003677995224  0.0650863825388441  0.9408316880552834  1.0000
  H   H11       1.0  0.7499998120810145  0.9349127539263263  0.05917048951861401  1.0000
  H   H12       1.0  0.2500003677995224  0.565086356415371  0.559168311944717  1.0000
  H   H13       1.0  0.8556592874683346  0.5489871594580151  0.4541323093896993  1.0000
  H   H14       1.0  0.1443408924122025  0.951011139595785  0.9541308576737677  1.0000
  H   H15       1.0  0.64434162801124  0.0489871855814883  0.0458676906103008  1.0000
  H   H16       1.0  0.3556585518692899  0.4510119770071483  0.5458691423262323  1.0000
  H   H17       1.0  0.1443408924122025  0.4510119770071483  0.5458698681841909  1.0000
  H   H18       1.0  0.8556592874683346  0.0489871855814883  0.0458684164682666  1.0000
  H   H19       1.0  0.3556598431868351  0.951011139595785  0.9541308576737677  1.0000
  H   H20       1.0  0.64434162801124  0.5489871594580151  0.4541323093896993  1.0000
  H   H21       1.0  0.7499998120810145  0.622972558899967  0.8410189594100219  1.0000
  H   H22       1.0  0.2500003677995224  0.8770257401538402  0.3410189594100217  1.0000
  H   H23       1.0  0.7500011033985599  0.1229742075992206  0.658981766447944  1.0000
  H   H24       1.0  0.24999520252934093  0.3770265775652035  0.15898031473201266  1.0000
  H   H25       1.0  0.7500036860336436  0.4136067373923638  0.09317330584751463  1.0000
  H   H26       1.0  0.2500016591170606  0.0863940477720604  0.5931718541315834  1.0000
  H   H27       1.0  0.7499998120810145  0.9136075225567879  0.4068288717263826  1.0000
  H   H28       1.0  0.2500016591170606  0.5863940216485872  0.9068281458684171  1.0000
  H   H29       1.0  0.7500036860336436  0.2560968154574397  0.9806224957900229  1.0000
  H   H30       1.0  0.2500003677995224  0.2439031584190872  0.4806203182161326  1.0000
  H   H31       1.0  0.7499985207634694  0.756098411909754  0.5193789559259017  1.0000
  H   H32       1.0  0.25000424175215125  0.7439023210077238  0.019378955925901706  1.0000
  H   H33       1.0  0.7499998120810145  0.2890545748404065  0.8016266476975816  1.0000
  H   H34       1.0  0.2499990764819771  0.2109445877482301  0.3016244701236843  1.0000
  H   H35       1.0  0.7499998120810145  0.789056171292728  0.6983748040183501  1.0000
  H   H36       1.0  0.2500003677995224  0.7109478067763321  0.19837770745020586  1.0000
  H   H37       1.0  0.8631050244259482  0.684017916441597  0.0223143255327827  1.0000
  H   H38       1.0  0.13689515545458159  0.8159811939001003  0.5223150513907413  1.0000
  H   H39       1.0  0.6368958910536193  0.18401956514085782  0.47768567446721744  1.0000
  H   H40       1.0  0.3631055801444559  0.3159828425993538  0.9776856744672174  1.0000
  H   H41       1.0  0.13689644677212695  0.3159836538872511  0.9776856744672174  1.0000
  H   H42       1.0  0.8631063157434935  0.1840187538529605  0.47768567446721744  1.0000
  H   H43       1.0  0.36310687146200127  0.8159828164758807  0.5223157772487073  1.0000
  H   H44       1.0  0.6368958910536193  0.6840187277294946  0.0223143255327827  1.0000
  C   C1        1.0  0.9191908193063296  0.8428883681738171  0.20007476337030286  1.0000
  C   C2        1.0  0.08081194320929087  0.6571131760315653  0.7000675047906597  1.0000
  C   C3        1.0  0.5808023482679798  0.3428932620246457  0.2999245107717315  1.0000
  C   C4        1.0  0.41919783161255697  0.1571083344276687  0.7999295917774847  1.0000
  C   C5        1.0  0.0808106518917455  0.1571132021550312  0.7999303176354433  1.0000
  C   C6        1.0  0.9191946932589656  0.3428892055851804  0.2999252366296972  1.0000
  C   C7        1.0  0.4191991229301023  0.6571099308799901  0.7000675047906597  1.0000
  C   C8        1.0  0.5808062222206087  0.8428899907496046  0.20007694094419295  1.0000
  C   C9        1.0  0.5785386686136746  0.7002096002188054  0.3301332675222143  1.0000
  C   C10       1.0  0.42146151126685527  0.799789510122892  0.8301289123744269  1.0000
  C   C11       1.0  0.9214622468659  0.2002080037664911  0.16986673247778586  1.0000
  C   C12       1.0  0.07854309828481117  0.2997903475342554  0.6698710876255731  1.0000
  C   C13       1.0  0.4214666765370295  0.2997879136705706  0.6698689100516833  1.0000
  C   C14       1.0  0.5785360859785909  0.2002096263422786  0.16986600661982726  1.0000
  C   C15       1.0  0.0785353503795463  0.799789510122892  0.8301303640903586  1.0000
  C   C16       1.0  0.9214648295009835  0.7002096002188054  0.3301347192381386  1.0000
  C   C17       1.0  0.7499998120810145  0.5430387966233425  0.8752424365600151  1.0000
  C   C18       1.0  0.2499990764819771  0.956960313718355  0.3752438882759392  1.0000
  C   C19       1.0  0.7500011033985599  0.0430404453225961  0.6247575634399851  1.0000
  C   C20       1.0  0.2499990764819771  0.4569611511297182  0.12475756343998513  1.0000
  C   C21       1.0  0.7499998120810145  0.5329918073510242  0.9767101213634535  1.0000
  C   C22       1.0  0.2500003677995224  0.9670089255664608  0.4767108472214191  1.0000
  C   C23       1.0  0.7499998120810145  0.0329910221866001  0.5232884269206226  1.0000
  C   C24       1.0  0.2500003677995224  0.46701057426572135  0.0232898786365467  1.0000
  C   C25       1.0  0.7499998120810145  0.4277507305265331  0.0148045990360615  1.0000
  C   C26       1.0  0.2500003677995224  0.0722500546378839  0.5148053248940272  1.0000
  C   C27       1.0  0.7500023947161052  0.9277515156909573  0.4851946751059729  1.0000
  C   C28       1.0  0.2499990764819771  0.5722467833628428  0.985194675105973  1.0000
  C   C29       1.0  0.7500011033985599  0.3385804555831342  0.952433075895712  1.0000
  C   C30       1.0  0.2499990764819771  0.1614195182933926  0.4524323500377463  1.0000
  C   C31       1.0  0.7499998120810145  0.8385812407475584  0.547566924104288  1.0000
  C   C32       1.0  0.2500003677995224  0.6614227373214945  0.04757200511004101  1.0000
  C   C33       1.0  0.7500023947161052  0.3563776781014525  0.8527793101445911  1.0000
  C   C34       1.0  0.2499990764819771  0.1436190506234993  0.352779310144591  1.0000
  C   C35       1.0  0.7499998120810145  0.8563792745537738  0.6472206898554093  1.0000
  C   C36       1.0  0.2500003677995224  0.6436174019242458  0.14721923813947776  1.0000
  C   C37       1.0  0.7500011033985599  0.6337659330342476  0.0403373787817216  1.0000
  C   C38       1.0  0.2500003677995224  0.866236422459025  0.5403381046396875  1.0000
  C   C39       1.0  0.7500011033985599  0.1337659591577136  0.4596633470762441  1.0000
  C   C40       1.0  0.2500003677995224  0.3662348260067105  0.9596633470762443  1.0000
  N   N1        1.0  0.4649220945213911  0.6597036182753017  0.3737130538296257  1.0000
  N   N2        1.0  0.535075502724055  0.8402954920663888  0.8737116021137012  1.0000
  N   N3        1.0  0.035070893172388685  0.1597028331108845  0.12628984960223025  1.0000
  N   N4        1.0  0.9649279953906029  0.3402963294777521  0.6262891237442647  1.0000
  N   N5        1.0  0.5350716287714261  0.3402938956140744  0.6262891237442647  1.0000
  N   N6        1.0  0.4649272597915654  0.1597036443987747  0.12628694617037442  1.0000
  N   N7        1.0  0.9649305780256936  0.8402938694906013  0.873709424539804  1.0000
  N   N8        1.0  0.035070893172388685  0.659704429563199  0.3737123279716599  1.0000
  N   N9        1.0  0.030642965314655195  0.8947158726702256  0.16577579699204392  1.0000
  N   N10       1.0  0.9693546319307911  0.6052832376714719  0.6657714418442566  1.0000
  N   N11       1.0  0.4693616442370114  0.3947150875058014  0.33422057371813463  1.0000
  N   N12       1.0  0.5306398269610637  0.10528326379494499  0.8342249288659218  1.0000
  N   N13       1.0  0.9693533406132457  0.10528569765862268  0.8342285581557434  1.0000
  N   N14       1.0  0.030640382679564492  0.3947126536421166  0.3342227512920246  1.0000
  N   N15       1.0  0.5306398269610637  0.6052881053988344  0.6657721677022224  1.0000
  N   N16       1.0  0.4693577702843824  0.8947166839581159  0.16577724870797544  1.0000
  N   N17       1.0  0.7499985207634694  0.4571615392394008  0.8149548516346314  1.0000
  N   N18       1.0  0.2499990764819771  0.0428384346371331  0.3149541257766657  1.0000
  N   N19       1.0  0.7500011033985599  0.957162324403825  0.6850451483653686  1.0000
  N   N20       1.0  0.24999778516443164  0.5428392198015572  0.18504660008129295  1.0000
  N   N21       1.0  0.7499998120810145  0.6142901558644027  0.14524345276116435  1.0000
  N   N22       1.0  0.2500003677995224  0.8857113883409725  0.6452434527611646  1.0000
  N   N23       1.0  0.7499998120810145  0.1142909932757732  0.3547558213808699  1.0000
  N   N24       1.0  0.2500003677995224  0.3857106031765483  0.8547565472388359  1.0000
  N   N25       1.0  0.7499998120810145  0.5066314411174773  0.4777205156494945  1.0000
  N   N26       1.0  0.2500003677995224  0.9933668579363228  0.9777205156494945  1.0000
  N   N27       1.0  0.7499998120810145  0.0066314672409504  0.0222794843505056  1.0000
  N   N28       1.0  0.2499990764819771  0.4933660727718987  0.5222794843505056  1.0000
