data_image0
_chemical_formula_structural       Cu4H20C16Br4N12Cl8
_chemical_formula_sum              "Cu4 H20 C16 Br4 N12 Cl8"
_cell_length_a       6.8965610357873155
_cell_length_b       7.513176736422743
_cell_length_c       16.710460311851378
_cell_angle_alpha    89.99812514293424
_cell_angle_beta     89.99920412372774
_cell_angle_gamma    90.55809924526477

_space_group_name_H-M_alt    "P 1"
_space_group_IT_number       1

loop_
  _space_group_symop_operation_xyz
  'x, y, z'

loop_
  _atom_site_type_symbol
  _atom_site_label
  _atom_site_symmetry_multiplicity
  _atom_site_fract_x
  _atom_site_fract_y
  _atom_site_fract_z
  _atom_site_occupancy
  Cu  Cu1       1.0  0.17495111257154156  0.4082715016121482  0.22535965285969442  1.0000
  Cu  Cu2       1.0  0.3250405171297714  0.5917395789218816  0.7253716880374415  1.0000
  Cu  Cu3       1.0  0.825038500170294  0.5917279289263248  0.7746477998706923  1.0000
  Cu  Cu4       1.0  0.674962339475002  0.408267683815751  0.2746273866144763  1.0000
  H   H1        1.0  0.31819182891278797  0.8743660624947011  0.2195853170763371  1.0000
  H   H2        1.0  0.18178949560147128  0.12563093579388607  0.7195909861808192  1.0000
  H   H3        1.0  0.6817935004595628  0.12563608173246624  0.7804083718130032  1.0000
  H   H4        1.0  0.8181987656743389  0.8743725047021941  0.2804158680974496  1.0000
  H   H5        1.0  0.24504393389950252  0.08713854666164879  0.18022832013984674  1.0000
  H   H6        1.0  0.2549415735472423  0.912857412146721  0.6802326170681071  1.0000
  H   H7        1.0  0.7549525999890678  0.9128474890803202  0.8197755421004446  1.0000
  H   H8        1.0  0.7450539363825189  0.08714594326339407  0.31976466234941375  1.0000
  H   H9        1.0  0.33315323158870314  0.8240745857477166  0.3509051729968178  1.0000
  H   H10       1.0  0.16683656267274932  0.17591362167436836  0.85090662440512  1.0000
  H   H11       1.0  0.666847618766731  0.1759100680261341  0.6490921065379426  1.0000
  H   H12       1.0  0.8331558186916512  0.824080451299821  0.14909005665927574  1.0000
  H   H13       1.0  0.10282576255552563  0.4162537298951249  0.3994088646386587  1.0000
  H   H14       1.0  0.39718710435771254  0.583735828333836  0.8994277883792068  1.0000
  H   H15       1.0  0.8971824672361424  0.5837361622000045  0.6005890132658679  1.0000
  H   H16       1.0  0.6028097568489841  0.41626351670984  0.10058086118652913  1.0000
  H   H17       1.0  0.29601939931019683  0.9046068188182941  0.48849158207324467  1.0000
  H   H18       1.0  0.2039918556738556  0.09537862300057748  0.9884885777969644  1.0000
  H   H19       1.0  0.7039884702760659  0.09536843270880979  0.5115098865011944  1.0000
  H   H20       1.0  0.7959920567625363  0.9046248693102328  0.011503914231710204  1.0000
  C   C1        1.0  0.24826617989879207  0.06158090175962629  0.30174878284786644  1.0000
  C   C2        1.0  0.2517336780339932  0.9383962937323032  0.8017581223610862  1.0000
  C   C3        1.0  0.7517493312660409  0.9384102361524496  0.6982407170415358  1.0000
  C   C4        1.0  0.7482615697639404  0.06159641363683478  0.19825112568368305  1.0000
  C   C5        1.0  0.157059228848297  0.281922139084699  0.39061995810981653  1.0000
  C   C6        1.0  0.3429510801338936  0.7180694517723438  0.8906295073210162  1.0000
  C   C7        1.0  0.8429536119356205  0.7180783492821091  0.6093791165619324  1.0000
  C   C8        1.0  0.6570429145657358  0.2819312587173997  0.10937076425727103  1.0000
  C   C9        1.0  0.19743687804109566  0.17175367176815828  0.4563333556787868  1.0000
  C   C10       1.0  0.30260350831552796  0.8282525191546737  0.9563439672886107  1.0000
  C   C11       1.0  0.8025967823677436  0.8282678725593012  0.5436645219304097  1.0000
  C   C12       1.0  0.697408308362512  0.17176528856230533  0.04365690254622481  1.0000
  C   C13       1.0  0.2629289644841962  0.002339381923505399  0.4419834782712116  1.0000
  C   C14       1.0  0.23709307960481144  0.9976681204402807  0.9419938573574173  1.0000
  C   C15       1.0  0.7370944826060041  0.9976796202272379  0.5580120056744278  1.0000
  C   C16       1.0  0.762901340728135  0.0023498924006091  0.05800581566975892  1.0000
  Br  Br1       1.0  0.16917723444402108  0.2620277639943395  0.561003761367985  1.0000
  Br  Br2       1.0  0.33081108360163824  0.7379213449926565  0.06100892720317572  1.0000
  Br  Br3       1.0  0.8308209784282855  0.7379675715232635  0.43899411652621023  1.0000
  Br  Br4       1.0  0.6691814940464912  0.2620807133308887  0.9389967302176103  1.0000
  N   N1        1.0  0.1844496803766233  0.2302565624991146  0.31494010501054964  1.0000
  N   N2        1.0  0.3155282309829064  0.769730535779864  0.8149448886358215  1.0000
  N   N3        1.0  0.8155569686099472  0.7697280225745471  0.6850661509217987  1.0000
  N   N4        1.0  0.6844597030167989  0.23025959550535896  0.1850547846067556  1.0000
  N   N5        1.0  0.2726726754845643  0.0024456961972561006  0.22801148682302144  1.0000
  N   N6        1.0  0.2273067398711676  0.9975440249668281  0.7280135444609785  1.0000
  N   N7        1.0  0.7273256356609185  0.9975536322789366  0.771983398904851  1.0000
  N   N8        1.0  0.7726828730177292  0.0024554058896199956  0.2719855302835584  1.0000
  N   N9        1.0  0.2857512483005494  0.9510989671161311  0.3647609981497979  1.0000
  N   N10       1.0  0.21424237582833433  0.048886806245725695  0.8647645780196954  1.0000
  N   N11       1.0  0.7142588241234196  0.048906879382776894  0.6352338874989203  1.0000
  N   N12       1.0  0.7857501363708794  0.9511125902492736  0.1352392841374126  1.0000
  Cl  Cl1       1.0  0.9222636354768172  0.6144371431533172  0.23789913553278552  1.0000
  Cl  Cl2       1.0  0.5777287390869007  0.38557734956643935  0.7378927369606033  1.0000
  Cl  Cl3       1.0  0.07773342223420343  0.3855701877166877  0.7621059234105517  1.0000
  Cl  Cl4       1.0  0.4222682860624902  0.6144286507413312  0.2621021487237059  1.0000
  Cl  Cl5       1.0  0.18337998696917884  0.28813847232310497  0.1005943165922218  1.0000
  Cl  Cl6       1.0  0.3165969150349782  0.7118716535520307  0.6006029048318811  1.0000
  Cl  Cl7       1.0  0.8166071193344352  0.7118769639341946  0.8994089470390991  1.0000
  Cl  Cl8       1.0  0.6833987257926141  0.28813702551516934  0.3993979651129821  1.0000
