data_image0
_chemical_formula_structural       Al2H6C27S6O18
_chemical_formula_sum              "Al2 H6 C27 S6 O18"
_cell_length_a       4.057217324169564
_cell_length_b       20.079446777631993
_cell_length_c       20.079705755081704
_cell_angle_alpha    119.99923120682135
_cell_angle_beta     89.99899807004763
_cell_angle_gamma    90.00028717475136

_space_group_name_H-M_alt    "P 1"
_space_group_IT_number       1

loop_
  _space_group_symop_operation_xyz
  'x, y, z'

loop_
  _atom_site_type_symbol
  _atom_site_label
  _atom_site_symmetry_multiplicity
  _atom_site_fract_x
  _atom_site_fract_y
  _atom_site_fract_z
  _atom_site_occupancy
  Al  Al1       1.0  0.9495391771550531  0.5000003002623216  0.5000008345726384  1.0000
  Al  Al2       1.0  0.9637946416745821  0.16666618071464234  0.8333342875923007  1.0000
  H   H1        1.0  0.17565993848571543  0.19464091490442548  0.6300172247853195  1.0000
  H   H2        1.0  0.17564356647125837  0.935370316418158  0.8053565912386131  1.0000
  H   H3        1.0  0.17565875198905456  0.3699881201155506  0.06462906279001153  1.0000
  H   H4        1.0  0.6976238465097283  0.4946972661419832  0.8199228080696482  1.0000
  H   H5        1.0  0.6977813773848569  0.8252447767124026  0.5053100646590495  1.0000
  H   H6        1.0  0.6976747671015032  0.18007055481584186  0.17476181323836926  1.0000
  C   C1        1.0  0.44714235550871007  0.43222577185584743  0.3836878487351996  1.0000
  C   C2        1.0  0.4471323058800607  0.4514642441707223  0.5677768673507088  1.0000
  C   C3        1.0  0.4471053938488582  0.6163133843780598  0.5485380560938038  1.0000
  C   C4        1.0  0.45987854172477693  0.22429967697950542  0.7737393998147367  1.0000
  C   C5        1.0  0.4598814261165459  0.049438157293216815  0.7757005849144745  1.0000
  C   C6        1.0  0.45986860625554027  0.22625922546047375  0.9505591716173708  1.0000
  C   C7        1.0  0.5512724391459473  0.43220102547434164  0.6839344163446552  1.0000
  C   C8        1.0  0.30212261121820216  0.2491396631125937  0.6645342028023791  1.0000
  C   C9        1.0  0.4267071294638214  0.4083739636959506  0.6109238559592923  1.0000
  C   C10       1.0  0.4447767543149155  0.269415181373567  0.7346947973595376  1.0000
  C   C11       1.0  0.3496418713629552  0.30717622013862184  0.6452030753177593  1.0000
  C   C12       1.0  0.5143614549473058  0.37250178376289955  0.7023544627436278  1.0000
  C   C13       1.0  0.5513129872861242  0.751733789424321  0.5677986426746527  1.0000
  C   C14       1.0  0.30213628762955846  0.915390676182973  0.750860554997402  1.0000
  C   C15       1.0  0.4267063183439816  0.7025527355497942  0.5916292240136938  1.0000
  C   C16       1.0  0.4447798066628508  0.965278695162844  0.7305869114032432  1.0000
  C   C17       1.0  0.3496359507782572  0.8380263022010652  0.6928228787528425  1.0000
  C   C18       1.0  0.5143771528239968  0.8298516147806722  0.6274971949818064  1.0000
  C   C19       1.0  0.5513142450168547  0.3160646109096632  0.24826294707292357  1.0000
  C   C20       1.0  0.30214076007873564  0.3354690677614514  0.08460412978924842  1.0000
  C   C21       1.0  0.42672759069973415  0.38907795669271644  0.2974475936250868  1.0000
  C   C22       1.0  0.44478911643798114  0.2653076121204733  0.0347180126196633  1.0000
  C   C23       1.0  0.3496406999149925  0.3547949037766145  0.16196957843268925  1.0000
  C   C24       1.0  0.5143930263079142  0.297646288992091  0.17014535928001348  1.0000
  C   C25       1.0  0.6973295477917675  0.5096617405556856  0.7310177379771758  1.0000
  C   C26       1.0  0.6973716987197847  0.7213822915630104  0.4903455762369119  1.0000
  C   C27       1.0  0.697378058950136  0.26897224761665933  0.27862470424425106  1.0000
  S   S1        1.0  0.25605160349157785  0.31778129772344216  0.5669065052183908  1.0000
  S   S2        1.0  0.6348348007924116  0.35919676790418703  0.7770879075204318  1.0000
  S   S3        1.0  0.256024444665819  0.749125420539535  0.6822210447240806  1.0000
  S   S4        1.0  0.6348443797320797  0.9178954374340477  0.6408055941170969  1.0000
  S   S5        1.0  0.25606135977605504  0.43309539695125204  0.25087196287944374  1.0000
  S   S6        1.0  0.6348553272850737  0.22291103226405798  0.08210304691080236  1.0000
  O   O1        1.0  0.6914812049590752  0.5885006181514995  0.5657519211966358  1.0000
  O   O2        1.0  0.6914963520738128  0.47725986421239247  0.4115026646017341  1.0000
  O   O3        1.0  0.6914985497668127  0.4342440165429338  0.5227452571450968  1.0000
  O   O4        1.0  0.2168062360208367  0.5793496430431728  0.5022975199862214  1.0000
  O   O5        1.0  0.21682926437404865  0.49770472506820324  0.5770529050383714  1.0000
  O   O6        1.0  0.2168399825246041  0.4229510001087249  0.42065310080047164  1.0000
  O   O7        1.0  0.7003791196450068  0.17968775602350445  0.9183263193927756  1.0000
  O   O8        1.0  0.7003913287080367  0.23863820104822472  0.8203107954804235  1.0000
  O   O9        1.0  0.7003945301359807  0.0816742549360967  0.7613640594733438  1.0000
  O   O10       1.0  0.23240399432087602  0.24122015859581572  0.9159229648773176  1.0000
  O   O11       1.0  0.23242578922599932  0.0840771217883042  0.8252998460388878  1.0000
  O   O12       1.0  0.23243208952339967  0.1747001514207155  0.7587806654818223  1.0000
  O   O13       1.0  0.7859021389670957  0.5306031503237134  0.8048990324610015  1.0000
  O   O14       1.0  0.7429189456911871  0.5540050980062715  0.7073078102350577  1.0000
  O   O15       1.0  0.785995497061464  0.7743091444610498  0.46940282583832255  1.0000
  O   O16       1.0  0.7429163448232288  0.6533096583769832  0.4459884368516283  1.0000
  O   O17       1.0  0.7859475657619159  0.1950943939968184  0.22569110311747656  1.0000
  O   O18       1.0  0.7429929134052459  0.2926927419679329  0.3466902509006217  1.0000
