data_image0
_chemical_formula_structural       Cd10H36C16Br8N40O4
_chemical_formula_sum              "Cd10 H36 C16 Br8 N40 O4"
_cell_length_a       9.311333303415122
_cell_length_b       10.425822060000888
_cell_length_c       13.988985239206729
_cell_angle_alpha    89.99996520053203
_cell_angle_beta     95.33577525459471
_cell_angle_gamma    89.99997150620588

_space_group_name_H-M_alt    "P 1"
_space_group_IT_number       1

loop_
  _space_group_symop_operation_xyz
  'x, y, z'

loop_
  _atom_site_type_symbol
  _atom_site_label
  _atom_site_symmetry_multiplicity
  _atom_site_fract_x
  _atom_site_fract_y
  _atom_site_fract_z
  _atom_site_occupancy
  Cd  Cd1       1.0  0.9999950211359587  0.5000013947104235  0.5000020798039202  1.0000
  Cd  Cd2       1.0  4.8163189844994345e-06  2.4707878197e-06  0.9999987537104715  1.0000
  Cd  Cd3       1.0  0.18728893396842483  0.1736062035721062  0.514291257717872  1.0000
  Cd  Cd4       1.0  0.8127097159809366  0.6736096111777813  0.9857094217730519  1.0000
  Cd  Cd5       1.0  0.8127051134133582  0.826395848162612  0.48570701149218815  1.0000
  Cd  Cd6       1.0  0.1872951015618156  0.3263962771804501  0.014293820988733302  1.0000
  Cd  Cd7       1.0  0.526114985627764  0.45486756325819766  0.1202369666616647  1.0000
  Cd  Cd8       1.0  0.47388407014744155  0.9548673704875625  0.3797637340180344  1.0000
  Cd  Cd9       1.0  0.4738876881090945  0.545131611003157  0.8797625656096456  1.0000
  Cd  Cd10      1.0  0.5261110451029722  0.045132762931764596  0.6202374624576165  1.0000
  H   H1        1.0  0.8259386222959506  0.3047612474025669  0.3671473867245822  1.0000
  H   H2        1.0  0.17406053030693866  0.8047623474209686  0.1328526731810769  1.0000
  H   H3        1.0  0.1740586582872936  0.6952398451740791  0.6328518028080196  1.0000
  H   H4        1.0  0.8259432166774373  0.19524258178142162  0.8671483569951945  1.0000
  H   H5        1.0  0.7502243765841426  0.30585283166490035  0.2519449323900957  1.0000
  H   H6        1.0  0.2497769299050744  0.8058528452870705  0.24805597875304386  1.0000
  H   H7        1.0  0.2497761345096237  0.6941482609103672  0.7480558921441798  1.0000
  H   H8        1.0  0.7502268251509321  0.19415304307316467  0.7519429073848939  1.0000
  H   H9        1.0  0.4690345379763556  0.20554225252187316  0.4637723125412876  1.0000
  H   H10       1.0  0.5309625195897067  0.7055423138885074  0.03622765912032827  1.0000
  H   H11       1.0  0.5309627345355707  0.7944569217399434  0.5362290210298895  1.0000
  H   H12       1.0  0.4690369182553482  0.2944568603736428  0.9637716675080411  1.0000
  H   H13       1.0  0.6696797382317924  0.468509448500903  0.5448609302374052  1.0000
  H   H14       1.0  0.3303219680466185  0.9685092580123965  0.9551383803414308  1.0000
  H   H15       1.0  0.33030999193813665  0.5314887666066711  0.45513777946238315  1.0000
  H   H16       1.0  0.669691483924943  0.03148799793146401  0.04486398144491938  1.0000
  H   H17       1.0  0.5620893367034014  0.3684242960600627  0.6011397985354918  1.0000
  H   H18       1.0  0.43791134833097084  0.8684221853765665  0.8988609221323569  1.0000
  H   H19       1.0  0.4379036185957687  0.6315739190455503  0.39886197552470287  1.0000
  H   H20       1.0  0.5620977944997633  0.1315741114119575  0.1011397361049049  1.0000
  H   H21       1.0  0.6300942442553036  0.8312848141379092  0.23389867329105837  1.0000
  H   H22       1.0  0.3699059676538994  0.331284957458209  0.2661021567828286  1.0000
  H   H23       1.0  0.3699062722194526  0.1687172375949189  0.76610072188425  1.0000
  H   H24       1.0  0.6300934513551512  0.6687190125868128  0.7339021725999259  1.0000
  H   H25       1.0  0.4808730118783445  0.7413821127927064  0.21302373603866434  1.0000
  H   H26       1.0  0.5191283377335694  0.24138217303819687  0.28697649216758947  1.0000
  H   H27       1.0  0.5191275153589812  0.25861993894128693  0.7869728004191786  1.0000
  H   H28       1.0  0.4808753957975895  0.7586227561627439  0.7130281114055137  1.0000
  H   H29       1.0  0.0004135480999777998  0.9691568942667886  0.6299993779561248  1.0000
  H   H30       1.0  0.9995849111177223  0.4691576333259916  0.8700025853782307  1.0000
  H   H31       1.0  0.999581577912707  0.0308441983106817  0.3699989598018191  1.0000
  H   H32       1.0  0.0004155945944575001  0.5308444184056781  0.129999668514543  1.0000
  H   H33       1.0  0.8352487648837083  0.9522822453389924  0.667596470592528  1.0000
  H   H34       1.0  0.16474863435794157  0.4522833847603067  0.832403288464306  1.0000
  H   H35       1.0  0.16474744245113018  0.047715969767566015  0.3324012210344023  1.0000
  H   H36       1.0  0.8352518767361303  0.5477167486579833  0.16759753607021108  1.0000
  C   C1        1.0  0.7291768188433351  0.4707050351139871  0.3248788322275473  1.0000
  C   C2        1.0  0.2708233083207503  0.9707050987358842  0.1751212145227043  1.0000
  C   C3        1.0  0.2708193777283299  0.5292950983053687  0.6751217181163796  1.0000
  C   C4        1.0  0.7291836933905316  0.0292979121537726  0.8248750185414123  1.0000
  C   C5        1.0  0.8630533072710591  0.1145545635003558  0.5924514763529487  1.0000
  C   C6        1.0  0.13694646103328978  0.6145573748440327  0.9075485860807858  1.0000
  C   C7        1.0  0.13694182143377992  0.88544173329251  0.4075461467268083  1.0000
  C   C8        1.0  0.863056212702368  0.38544563604524035  0.0924509461895795  1.0000
  C   C9        1.0  0.747294646762299  0.2894875687143639  0.5647402526762306  1.0000
  C   C10       1.0  0.2527050091451102  0.7894874287735408  0.9352604383084042  1.0000
  C   C11       1.0  0.25269724066883725  0.7105106463926776  0.4352585941188494  1.0000
  C   C12       1.0  0.7473009004838573  0.2105107863300333  0.0647392996060816  1.0000
  C   C13       1.0  0.6429863926078738  0.6599467364635033  0.2999759904882069  1.0000
  C   C14       1.0  0.3570150080749527  0.15994789839616888  0.20002427781292195  1.0000
  C   C15       1.0  0.35701304792752336  0.34005339695591624  0.7000226214605616  1.0000
  C   C16       1.0  0.6429887335281349  0.8400570308056388  0.799978181722082  1.0000
  Br  Br1       1.0  0.25194090188816887  0.9672586597417022  0.6475960859757633  1.0000
  Br  Br2       1.0  0.7480575639009359  0.4672604836822103  0.8524044489342018  1.0000
  Br  Br3       1.0  0.748054221433577  0.03274339199246161  0.3524029664613124  1.0000
  Br  Br4       1.0  0.2519451044528367  0.5327444455204501  0.1475965126944274  1.0000
  Br  Br5       1.0  0.13707827845728096  0.3485900792499948  0.3644680496132935  1.0000
  Br  Br6       1.0  0.8629230012292194  0.848591831122384  0.13553284048750666  1.0000
  Br  Br7       1.0  0.8629028199762914  0.6514110133303674  0.6355308263839775  1.0000
  Br  Br8       1.0  0.1370947679535846  0.1514111797625759  0.8644690808086466  1.0000
  N   N1        1.0  0.6350572209912214  0.5384100540842881  0.2628431818229657  1.0000
  N   N2        1.0  0.3649453345428455  0.038410223145000116  0.2371572148652845  1.0000
  N   N3        1.0  0.3649443821866639  0.4615900793351814  0.7371541378623618  1.0000
  N   N4        1.0  0.6350562524902797  0.9615927877436763  0.7628443928955306  1.0000
  N   N5        1.0  0.7463545913560806  0.3407191202989068  0.3198092245421477  1.0000
  N   N6        1.0  0.253646695957471  0.8407201465627313  0.1801909547547709  1.0000
  N   N7        1.0  0.2536437678580654  0.6592810131204913  0.680190033538338  1.0000
  N   N8        1.0  0.74635705909823  0.15928670095448894  0.8198079313829325  1.0000
  N   N9        1.0  0.954926741148128  0.1945770243957129  0.5570189016121532  1.0000
  N   N10       1.0  0.045071895650409  0.6945779293001164  0.9429817675542935  1.0000
  N   N11       1.0  0.0450651462821128  0.8054240681822691  0.4429799451822234  1.0000
  N   N12       1.0  0.954932935346157  0.30542604074560137  0.05701790181112897  1.0000
  N   N13       1.0  0.731105580643778  0.1682856047064263  0.5995161647643812  1.0000
  N   N14       1.0  0.2688941512737485  0.668286445037289  0.9004845858944462  1.0000
  N   N15       1.0  0.2688884640488709  0.8317116512431044  0.4004828191262319  1.0000
  N   N16       1.0  0.7311117556639813  0.3317136883799563  0.0995158666989369  1.0000
  N   N17       1.0  0.8919893117843927  0.9861807806279118  0.6138156029516821  1.0000
  N   N18       1.0  0.1080091448284861  0.4861828605950578  0.8861842079624438  1.0000
  N   N19       1.0  0.10800581961048289  0.013817434479200598  0.38618130544823964  1.0000
  N   N20       1.0  0.8919913689553312  0.513820150294464  0.1138159018919893  1.0000
  N   N21       1.0  0.6356139368093777  0.37619538961035914  0.5520041147378406  1.0000
  N   N22       1.0  0.36438782198175096  0.8761942306852148  0.9479966706512855  1.0000
  N   N23       1.0  0.3643779452407756  0.6238018663391215  0.4479961614162064  1.0000
  N   N24       1.0  0.6356245513595055  0.12380206610193063  0.052005622587657285  1.0000
  N   N25       1.0  0.8802417583068234  0.309495564241722  0.5392401615394959  1.0000
  N   N26       1.0  0.1197578823618457  0.8094964216041304  0.960761234273214  1.0000
  N   N27       1.0  0.11975012374212209  0.6905055283356774  0.4607601146136062  1.0000
  N   N28       1.0  0.880250179145534  0.19050658928323122  0.039240070094116695  1.0000
  N   N29       1.0  0.7340010091739514  0.6666157026919421  0.37889707958641583  1.0000
  N   N30       1.0  0.26600038463583087  0.1666169691298762  0.12110390011055469  1.0000
  N   N31       1.0  0.2659919515062014  0.33338347157123144  0.6211032651148116  1.0000
  N   N32       1.0  0.7340076795621969  0.8333860417577769  0.8788966895774095  1.0000
  N   N33       1.0  0.5638587155264503  0.7658271488982606  0.2629527958655089  1.0000
  N   N34       1.0  0.4361415401241189  0.265828245669141  0.2370473517572051  1.0000
  N   N35       1.0  0.4361407303902353  0.23417298452174862  0.7370443867245199  1.0000
  N   N36       1.0  0.5638600388358768  0.7341786018465798  0.7629564000407711  1.0000
  N   N37       1.0  0.7931251437561997  0.5454568921422194  0.393820445183934  1.0000
  N   N38       1.0  0.206874166085079  0.045458196906864104  0.10618117175028631  1.0000
  N   N39       1.0  0.20686780885202438  0.4545422821200873  0.6061820435553926  1.0000
  N   N40       1.0  0.7931317516140195  0.9545457731394648  0.8938164221246864  1.0000
  O   O1        1.0  0.4189169626474794  0.12642619442571149  0.47781021699259435  1.0000
  O   O2        1.0  0.5810823017959094  0.6264281633246754  0.02218993071706169  1.0000
  O   O3        1.0  0.5810770766626729  0.873574898151155  0.5221901962557993  1.0000
  O   O4        1.0  0.4189225292012537  0.3735738884070869  0.9778097386488367  1.0000
