data_image0
_chemical_formula_structural       Cu4H40C36N8Cl8O8
_chemical_formula_sum              "Cu4 H40 C36 N8 Cl8 O8"
_cell_length_a       8.496871963942995
_cell_length_b       10.006310037467358
_cell_length_c       13.961091399041495
_cell_angle_alpha    90.00021364645568
_cell_angle_beta     89.99975850682084
_cell_angle_gamma    105.48560914280428

_space_group_name_H-M_alt    "P 1"
_space_group_IT_number       1

loop_
  _space_group_symop_operation_xyz
  'x, y, z'

loop_
  _atom_site_type_symbol
  _atom_site_label
  _atom_site_symmetry_multiplicity
  _atom_site_fract_x
  _atom_site_fract_y
  _atom_site_fract_z
  _atom_site_occupancy
  Cu  Cu1       1.0  0.6702789800472148  0.6476763536954098  0.44133363209594006  1.0000
  Cu  Cu2       1.0  0.8297247777041578  0.8523297637288041  0.9413375739262193  1.0000
  Cu  Cu3       1.0  0.3297263831021624  0.35231163131762605  0.5586655075614289  1.0000
  Cu  Cu4       1.0  0.17027773240354094  0.14768252952853092  0.058663714596100584  1.0000
  H   H1        1.0  0.5767839759673522  0.16402766209197495  0.09997657311330238  1.0000
  H   H2        1.0  0.9232253757205979  0.335978551089113  0.5999752041264513  1.0000
  H   H3        1.0  0.42323213590197634  0.8359735481421566  0.9000232828232269  1.0000
  H   H4        1.0  0.07676326586066305  0.6640248536092203  0.4000260844030237  1.0000
  H   H5        1.0  0.6197658986776274  0.5071292101003666  0.1675741163438573  1.0000
  H   H6        1.0  0.8802311483970725  0.9928792777211444  0.6675754252633863  1.0000
  H   H7        1.0  0.3802382092328713  0.492874602938052  0.8324307535470508  1.0000
  H   H8        1.0  0.1197679561918932  0.0071205365581690026  0.3324222818652629  1.0000
  H   H9        1.0  0.6767396213406373  0.4364112395499618  0.273577836277525  1.0000
  H   H10       1.0  0.8232595200748563  0.06359922820490742  0.7735796043116423  1.0000
  H   H11       1.0  0.3232583417427435  0.5635854670639375  0.726424168506874  1.0000
  H   H12       1.0  0.17674072600844684  0.9364036937486305  0.22641810281954375  1.0000
  H   H13       1.0  0.3394325691717199  0.48227316463184167  0.23556699964829153  1.0000
  H   H14       1.0  0.16056672160622304  0.017727143013694  0.7355655075846456  1.0000
  H   H15       1.0  0.6605680953120653  0.5177244813230433  0.7644335725809127  1.0000
  H   H16       1.0  0.83943394288692  0.9822705029338369  0.264431483262662  1.0000
  H   H17       1.0  0.39084171671691337  0.39868960314291263  0.3385952981521854  1.0000
  H   H18       1.0  0.10915935625272512  0.10131103076463432  0.838593449080605  1.0000
  H   H19       1.0  0.6091570642293503  0.6012997074084083  0.6614059903450025  1.0000
  H   H20       1.0  0.8908450942591487  0.8987001300508628  0.1614064068848435  1.0000
  H   H21       1.0  0.3879606098348702  0.7121165936559423  0.2375957304775795  1.0000
  H   H22       1.0  0.11202519719727637  0.7878815759673047  0.7375900662582495  1.0000
  H   H23       1.0  0.6120323688575551  0.2878729582699792  0.7624084231333228  1.0000
  H   H24       1.0  0.8879800711662396  0.2121221887944316  0.2624133710782672  1.0000
  H   H25       1.0  0.4258313785858407  0.9730589239488768  0.25921109423720873  1.0000
  H   H26       1.0  0.07416125916374479  0.5269422006873228  0.7592062796493761  1.0000
  H   H27       1.0  0.5741658613905685  0.026929399002419505  0.7407987895773258  1.0000
  H   H28       1.0  0.9258289233574073  0.4730621916345542  0.24079787398482466  1.0000
  H   H29       1.0  0.5567376078757604  0.1905061504279857  0.3528279272717398  1.0000
  H   H30       1.0  0.9432615375690645  0.30949936655160576  0.8528300156540565  1.0000
  H   H31       1.0  0.44326193406298847  0.8094852319091005  0.6471747937798965  1.0000
  H   H32       1.0  0.0567131786303322  0.6905046174243028  0.14716769151318937  1.0000
  H   H33       1.0  0.7588761604215788  0.17935576385292515  0.47946601830467017  1.0000
  H   H34       1.0  0.7411331284362107  0.32065403021601924  0.9794744151389878  1.0000
  H   H35       1.0  0.24113186622021487  0.8206394723955769  0.520530972529471  1.0000
  H   H36       1.0  0.2588496729963481  0.6793559277411064  0.020524008301514095  1.0000
  H   H37       1.0  0.8091524207614851  0.947811123158715  0.5186078825478687  1.0000
  H   H38       1.0  0.6908558302988722  0.5521994748217697  0.018612229239039393  1.0000
  H   H39       1.0  0.19085908723747738  0.05218396826120403  0.4813855268994657  1.0000
  H   H40       1.0  0.30914782131441143  0.4478159261009795  0.981384761627538  1.0000
  C   C1        1.0  0.513022700023292  0.28898053729781037  0.18582756188835248  1.0000
  C   C2        1.0  0.9869827214297544  0.21102617301807672  0.6858242588204462  1.0000
  C   C3        1.0  0.48698532660539223  0.7110146989609804  0.8141744428804427  1.0000
  C   C4        1.0  0.013007461100762951  0.7889782192964533  0.314176313431858  1.0000
  C   C5        1.0  0.572767566272951  0.43303981375301975  0.22576509214647433  1.0000
  C   C6        1.0  0.9272353064931593  0.06697031296339162  0.7257658704029737  1.0000
  C   C7        1.0  0.42723425866009995  0.5669577839281177  0.7742354800810887  1.0000
  C   C8        1.0  0.07276455909016027  0.933031573100209  0.27423255300374894  1.0000
  C   C9        1.0  0.44079015918318026  0.4755758559349845  0.28266489027230784  1.0000
  C   C10       1.0  0.0592119672263252  0.0244266202280414  0.7826636910641369  1.0000
  C   C11       1.0  0.5592090022611985  0.524414490507745  0.7173363982257255  1.0000
  C   C12       1.0  0.9407917412442475  0.9755793128566599  0.21733616489544255  1.0000
  C   C13       1.0  0.47205914160038276  0.7163831274550889  0.2976761683202652  1.0000
  C   C14       1.0  0.027941018702122778  0.7836199371873749  0.7976771677483256  1.0000
  C   C15       1.0  0.5279319156502921  0.28360440095881506  0.7023265527378298  1.0000
  C   C16       1.0  0.9720700329509382  0.2163867421550876  0.2023269858605374  1.0000
  C   C17       1.0  0.5434553872097608  0.8482867949865214  0.3447320214436971  1.0000
  C   C18       1.0  0.9565369285728876  0.65171206094535  0.8447329428293812  1.0000
  C   C19       1.0  0.45655151690385753  0.151702177630952  0.6552606717254646  1.0000
  C   C20       1.0  0.043458656754673135  0.34829421005408534  0.1552661968652984  1.0000
  C   C21       1.0  0.5094270343099793  0.9718763798208913  0.3180745720339573  1.0000
  C   C22       1.0  0.9905700626499794  0.5281221736220092  0.8180772250357646  1.0000
  C   C23       1.0  0.49057674997280276  0.028116929477775426  0.681928149014446  1.0000
  C   C24       1.0  0.009421280320438544  0.47188217042612024  0.18192692859679474  1.0000
  C   C25       1.0  0.5842382546057792  0.09252717688768546  0.36834732149771543  1.0000
  C   C26       1.0  0.915761627548619  0.4074710077233163  0.868351174595908  1.0000
  C   C27       1.0  0.41576708957743597  0.9074639640821476  0.6316561158221032  1.0000
  C   C28       1.0  0.0842223722355656  0.5925325900699934  0.1316501139401254  1.0000
  C   C29       1.0  0.6951949865861095  0.08672316405755251  0.4405019805661894  1.0000
  C   C30       1.0  0.8048068012878458  0.41328153200539947  0.9405025688656179  1.0000
  C   C31       1.0  0.3048111375463877  0.9132668927485955  0.5595021730275249  1.0000
  C   C32       1.0  0.1951798809436838  0.5867261610754042  0.05949657084301659  1.0000
  C   C33       1.0  0.7234503245729726  0.9592261894526216  0.4631166502512655  1.0000
  C   C34       1.0  0.77655408027875  0.5407820891467525  0.9631199177218193  1.0000
  C   C35       1.0  0.2765492363412961  0.04076203692031301  0.5368781917560241  1.0000
  C   C36       1.0  0.22345461257153698  0.4592309986347447  0.036882087069528786  1.0000
  N   N1        1.0  0.5104101224877411  0.6084589436455233  0.32844219375736117  1.0000
  N   N2        1.0  0.9895907442130749  0.8915468552991683  0.8284393580134972  1.0000
  N   N3        1.0  0.4895874980073742  0.3915304151810164  0.6715598110178433  1.0000
  N   N4        1.0  0.010412964255621705  0.10845907778699633  0.1715612142224643  1.0000
  N   N5        1.0  0.647359337436491  0.842446984914517  0.4174468181704185  1.0000
  N   N6        1.0  0.8526379440580668  0.6575635159659755  0.917451618464632  1.0000
  N   N7        1.0  0.35263483963566244  0.15753620682553307  0.5825494563903248  1.0000
  N   N8        1.0  0.1473680284368939  0.3424517884225153  0.0825518188860883  1.0000
  Cl  Cl1       1.0  0.6737304664438283  0.4252697091138914  0.4617400492146402  1.0000
  Cl  Cl2       1.0  0.8262808744597547  0.07473572381914553  0.9617461359920652  1.0000
  Cl  Cl3       1.0  0.32627679920361174  0.5747234553503234  0.5382562253414348  1.0000
  Cl  Cl4       1.0  0.1737232145220348  0.9252712451466752  0.038248706033705594  1.0000
  Cl  Cl5       1.0  0.8671931005372855  0.7217558903560077  0.554818142784093  1.0000
  Cl  Cl6       1.0  0.6328033756513278  0.7782521830146366  0.05482252490929799  1.0000
  Cl  Cl7       1.0  0.132809884845031  0.278241659051389  0.4451824294418287  1.0000
  Cl  Cl8       1.0  0.3671886904185797  0.22176054470198642  0.9451766147986405  1.0000
  O   O1        1.0  0.6272421055599439  0.25324007303513707  0.13153575910205006  1.0000
  O   O2        1.0  0.8727632003052718  0.24676853454284506  0.6315371578061785  1.0000
  O   O3        1.0  0.3727697260648668  0.7467655221260047  0.8684605154641643  1.0000
  O   O4        1.0  0.12722390033047046  0.7532338825363497  0.36846341444771  1.0000
  O   O5        1.0  0.37796489001535605  0.20980710619646473  0.20104421664569827  1.0000
  O   O6        1.0  0.12204032666001301  0.29020228624457906  0.7010406801679918  1.0000
  O   O7        1.0  0.6220388942805286  0.7901862030919206  0.7989534904680509  1.0000
  O   O8        1.0  0.8779564191261786  0.7098039364737618  0.29895487814314947  1.0000
