data_image0
_chemical_formula_structural       Mn2H56C56S4N12O4
_chemical_formula_sum              "Mn2 H56 C56 S4 N12 O4"
_cell_length_a       7.1600228308227996
_cell_length_b       12.065466772607136
_cell_length_c       17.099399385705347
_cell_angle_alpha    89.99902168475174
_cell_angle_beta     90.0004101453872
_cell_angle_gamma    92.52948755343239

_space_group_name_H-M_alt    "P 1"
_space_group_IT_number       1

loop_
  _space_group_symop_operation_xyz
  'x, y, z'

loop_
  _atom_site_type_symbol
  _atom_site_label
  _atom_site_symmetry_multiplicity
  _atom_site_fract_x
  _atom_site_fract_y
  _atom_site_fract_z
  _atom_site_occupancy
  Mn  Mn1       1.0  1.9807153066176387e-05  0.9999956060328898  0.9999957475679723  1.0000
  Mn  Mn2       1.0  0.9999899048356794  0.500005524308719  0.49999967897515774  1.0000
  H   H1        1.0  0.13526153360705706  0.9118166398348749  0.14482843667828865  1.0000
  H   H2        1.0  0.135235546980411  0.4118200785436415  0.355179781949964  1.0000
  H   H3        1.0  0.8647578561920568  0.08818698992386942  0.855174671859345  1.0000
  H   H4        1.0  0.8647456249355087  0.58817796067995  0.6448256658270851  1.0000
  H   H5        1.0  0.4559914940184057  0.29731536985048024  0.1362978325713158  1.0000
  H   H6        1.0  0.4560005380510148  0.7973143245692428  0.3637080618892625  1.0000
  H   H7        1.0  0.5440065800370489  0.7026842323485312  0.8637023518790985  1.0000
  H   H8        1.0  0.5439879897461138  0.20268782249141987  0.6362944617947833  1.0000
  H   H9        1.0  0.28231552223062545  0.1155984616684194  0.1193928109675042  1.0000
  H   H10       1.0  0.2823043341629372  0.6156021131169213  0.38061183005489607  1.0000
  H   H11       1.0  0.7177085490383277  0.884395181142871  0.8806009405837616  1.0000
  H   H12       1.0  0.7176759681366462  0.3844017412380012  0.6193901087905189  1.0000
  H   H13       1.0  0.3189465230375035  0.3687229725970696  0.8945513117905863  1.0000
  H   H14       1.0  0.3189183714454487  0.868730735892413  0.6054486623216775  1.0000
  H   H15       1.0  0.6810740371024554  0.6312781604664368  0.1054459486052863  1.0000
  H   H16       1.0  0.6810608356633594  0.13127644481532744  0.3945526916861155  1.0000
  H   H17       1.0  0.15966517423880325  0.18352432591736806  0.8884496364320569  1.0000
  H   H18       1.0  0.15961934342007567  0.6835361966502022  0.611548000251446  1.0000
  H   H19       1.0  0.8403717616619061  0.8164725630318446  0.11154411511905953  1.0000
  H   H20       1.0  0.8403531845751574  0.3164743424866145  0.38845335372595013  1.0000
  H   H21       1.0  0.5602729309468797  0.4734714795203488  0.084512650845511  1.0000
  H   H22       1.0  0.5602845325001483  0.9734733455096601  0.41549084532361763  1.0000
  H   H23       1.0  0.43972903029400373  0.5265247802356825  0.9154922121578792  1.0000
  H   H24       1.0  0.4397069376539021  0.0265304446788903  0.584511093539085  1.0000
  H   H25       1.0  0.3966451515822342  0.8298236699194848  0.12644096242527783  1.0000
  H   H26       1.0  0.3966215165789961  0.32983413070641626  0.3735567568557202  1.0000
  H   H27       1.0  0.6033599448243548  0.17016095162941267  0.8735644854690464  1.0000
  H   H28       1.0  0.6033631240681885  0.6701713587417262  0.6264457668022416  1.0000
  H   H29       1.0  0.35074691984900136  0.8179737262909725  0.0234958283154327  1.0000
  H   H30       1.0  0.3507144402618465  0.3179593939998854  0.47650657396980023  1.0000
  H   H31       1.0  0.6492733395531475  0.18202408835725956  0.9765090347062471  1.0000
  H   H32       1.0  0.6492680524148399  0.6820378076563215  0.5234959497349935  1.0000
  H   H33       1.0  0.44781424945525566  0.944674851822747  0.06295098131918311  1.0000
  H   H34       1.0  0.44779207129586496  0.4446738430643011  0.4370636340795003  1.0000
  H   H35       1.0  0.5522220098020156  0.05531457066607001  0.937062069199492  1.0000
  H   H36       1.0  0.5521880054514695  0.5553275224774268  0.5629441529392383  1.0000
  H   H37       1.0  0.9389960610921548  0.7665052802794535  0.2426959564169806  1.0000
  H   H38       1.0  0.938982216094601  0.2664918723438774  0.257314695964439  1.0000
  H   H39       1.0  0.0610030657607652  0.23350593603657196  0.7573059824124331  1.0000
  H   H40       1.0  0.06100790050642499  0.733496985340139  0.7426907518816253  1.0000
  H   H41       1.0  0.17806275773587998  0.10215719979913021  0.3794948526726856  1.0000
  H   H42       1.0  0.17803265375874133  0.6021405480411418  0.12050261766219712  1.0000
  H   H43       1.0  0.8219451961567543  0.8978589459491249  0.6205012379816639  1.0000
  H   H44       1.0  0.8219514276686157  0.39784336432167333  0.8794958124142697  1.0000
  H   H45       1.0  0.246987909925906  0.06635030797176712  0.24025577979988808  1.0000
  H   H46       1.0  0.24693410412377403  0.5663537412945348  0.2597464253921374  1.0000
  H   H47       1.0  0.753043742874091  0.9336499313371577  0.7597420654340257  1.0000
  H   H48       1.0  0.7530353735012341  0.43363855509589655  0.7402531742432998  1.0000
  H   H49       1.0  0.8618906964563353  0.7871383758752729  0.38296146044675794  1.0000
  H   H50       1.0  0.8618873298849863  0.28711328323063173  0.11704461564325194  1.0000
  H   H51       1.0  0.138101107276583  0.21288450272415105  0.6170387238535116  1.0000
  H   H52       1.0  0.13810577147513917  0.7128622770975781  0.8829602474718217  1.0000
  H   H53       1.0  0.8870607765400746  0.8880663969631473  0.5018410875297762  1.0000
  H   H54       1.0  0.8870521315390293  0.3880489258034886  0.998160956754333  1.0000
  H   H55       1.0  0.11293419514637289  0.11196061350798912  0.498158511934456  1.0000
  H   H56       1.0  0.11294119538665369  0.6119291233170969  0.0018398126350049999  1.0000
  C   C1        1.0  0.49512695532589385  0.459293836039457  0.027349811480363008  1.0000
  C   C2        1.0  0.4951254641918368  0.9592944260183601  0.47265248927967457  1.0000
  C   C3        1.0  0.5048714195339059  0.5407090844707695  0.9726515425821846  1.0000
  C   C4        1.0  0.5048675523373306  0.04071101531887682  0.5273488647595245  1.0000
  C   C5        1.0  0.293423909630839  0.17494423916628674  0.07137382349613121  1.0000
  C   C6        1.0  0.29341080840965367  0.6749484265602564  0.4286283794419532  1.0000
  C   C7        1.0  0.7066001616469818  0.8250494036311268  0.9286210976868576  1.0000
  C   C8        1.0  0.7065750778215971  0.32505539570454545  0.5713741442279672  1.0000
  C   C9        1.0  0.3149255925392183  0.3167326730995512  0.9467107618425317  1.0000
  C   C10       1.0  0.3148993664852425  0.8167408282741204  0.5532909980803924  1.0000
  C   C11       1.0  0.6850973083578396  0.683263466455543  0.0532847441394679  1.0000
  C   C12       1.0  0.6850857253507102  0.1832696386685911  0.4467109407323093  1.0000
  C   C13       1.0  0.4000247005538426  0.3516796778784085  0.0174166356649437  1.0000
  C   C14       1.0  0.4000153602003778  0.8516842282249684  0.482584923462568  1.0000
  C   C15       1.0  0.5999857869179764  0.6483181930055866  0.9825806247353982  1.0000
  C   C16       1.0  0.5999723731970261  0.14832456352053924  0.5174164305484014  1.0000
  C   C17       1.0  0.38964953053071827  0.2765692172219474  0.08042045635549043  1.0000
  C   C18       1.0  0.3896416504166069  0.776571098410628  0.4195831488000722  1.0000
  C   C19       1.0  0.6103609569499752  0.7234286536481703  0.9195779736765745  1.0000
  C   C20       1.0  0.6103456318053231  0.22343271581949156  0.5804205445037383  1.0000
  C   C21       1.0  0.23683182226304914  0.923739704205204  0.8463356139440636  1.0000
  C   C22       1.0  0.23684296140331182  0.42374437308428287  0.6536570138942609  1.0000
  C   C23       1.0  0.7631934945589265  0.0762522714713043  0.15365404390811935  1.0000
  C   C24       1.0  0.7631288145810587  0.5762578702744962  0.34634141605281604  1.0000
  C   C25       1.0  0.224478606338991  0.213186154121054  0.9426286511940988  1.0000
  C   C26       1.0  0.22443342483673226  0.7132001318344764  0.5573705775454983  1.0000
  C   C27       1.0  0.7755525200511856  0.7868082781467152  0.0573668548106596  1.0000
  C   C28       1.0  0.7755394039584188  0.28681372562049035  0.4426313612281661  1.0000
  C   C29       1.0  0.3492706412320814  0.8737626559254326  0.07416393528414741  1.0000
  C   C30       1.0  0.3492372002405446  0.37376280707581355  0.4258401274546416  1.0000
  C   C31       1.0  0.6507479214105274  0.12623184839074503  0.9258432670184151  1.0000
  C   C32       1.0  0.6507510267788633  0.6262360216320034  0.5741647355124471  1.0000
  C   C33       1.0  0.9710094355016565  0.9571535811145896  0.4769440161458365  1.0000
  C   C34       1.0  0.9709952473260799  0.45713492239968906  0.02305624157011721  1.0000
  C   C35       1.0  0.028988027321887003  0.042870095038424004  0.5230514896312783  1.0000
  C   C36       1.0  0.028992570875665487  0.5428439883784222  0.9769451126215359  1.0000
  C   C37       1.0  0.9901345934195264  0.8400241627818519  0.27488560903596954  1.0000
  C   C38       1.0  0.9901106386049107  0.34001323393605537  0.22512021580018177  1.0000
  C   C39       1.0  0.009871814120174299  0.15999033178302113  0.7251139905211943  1.0000
  C   C40       1.0  0.009875365236254683  0.6599764774124351  0.7748834775869184  1.0000
  C   C41       1.0  0.012500959827605101  0.9469430016727431  0.3942748118791287  1.0000
  C   C42       1.0  0.012492288815359099  0.4469231871535798  0.10571974499735153  1.0000
  C   C43       1.0  0.9874988437752136  0.0530756809371695  0.6057218635634244  1.0000
  C   C44       1.0  0.9874968501604543  0.5530548860363356  0.8942804395696414  1.0000
  C   C45       1.0  0.12140086953185399  0.026441410952706704  0.352017651193549  1.0000
  C   C46       1.0  0.12137918226287782  0.526419911257726  0.14797880837898703  1.0000
  C   C47       1.0  0.8786030468130903  0.9735764180204857  0.647978439444522  1.0000
  C   C48       1.0  0.8786072399171373  0.4735590076036119  0.852017282467749  1.0000
  C   C49       1.0  0.15956480691876612  0.007253103906776901  0.2738671267264935  1.0000
  C   C50       1.0  0.15952928298683128  0.5072489266032677  0.22613318899512794  1.0000
  C   C51       1.0  0.840457675608384  0.9927538281840286  0.7261318880848223  1.0000
  C   C52       1.0  0.8404566456111056  0.49273995523332575  0.7738646562382386  1.0000
  C   C53       1.0  0.9452754871255779  0.8522705216137042  0.3533759433398131  1.0000
  C   C54       1.0  0.9452680381688836  0.3522563733195839  0.1466243344597942  1.0000
  C   C55       1.0  0.05472144932806339  0.14774734743571122  0.6466224865509105  1.0000
  C   C56       1.0  0.054724193579332295  0.6477250021330151  0.8533776045395103  1.0000
  S   S1        1.0  0.35927885518702846  0.9069099358747152  0.7679647271529576  1.0000
  S   S2        1.0  0.3593166116491489  0.4069159193017456  0.7320273049777343  1.0000
  S   S3        1.0  0.6407455920230376  0.09308785492618908  0.23202200658345626  1.0000
  S   S4        1.0  0.6406706705018194  0.593087895039382  0.26796703127227073  1.0000
  N   N1        1.0  0.1463362410223752  0.9339958622007389  0.904095923353964  1.0000
  N   N2        1.0  0.14633673209257836  0.4340019576242257  0.595897476323124  1.0000
  N   N3        1.0  0.8537042060117699  0.0659935364893158  0.0958949041684107  1.0000
  N   N4        1.0  0.8536404774035519  0.5659985945165715  0.4040986143789454  1.0000
  N   N5        1.0  0.2105261918604953  0.14296034369299093  0.0039890684154429  1.0000
  N   N6        1.0  0.21049105792873493  0.6429705349357492  0.4960115157312472  1.0000
  N   N7        1.0  0.7895132352039271  0.8570332108964749  0.9960040983437257  1.0000
  N   N8        1.0  0.7894811692887701  0.35703668584822895  0.5039921775291988  1.0000
  N   N9        1.0  0.09675533248876178  0.9155793068454086  0.23555610378264194  1.0000
  N   N10       1.0  0.096728312730086  0.4155732760162111  0.2644490288381008  1.0000
  N   N11       1.0  0.9032548869975798  0.08443101575765159  0.7644429109896367  1.0000
  N   N12       1.0  0.9032579167121214  0.5844189240691621  0.7355552493501564  1.0000
  O   O1        1.0  0.1634029381908846  0.9090236786201235  0.0855012661401702  1.0000
  O   O2        1.0  0.1633786034725659  0.4090340056404713  0.41450005356180963  1.0000
  O   O3        1.0  0.8366193187485395  0.09098076471298815  0.9144989183175769  1.0000
  O   O4        1.0  0.8366099243334446  0.5909681414063144  0.5855036397539594  1.0000
