data_image0
_chemical_formula_structural       AgH19C20N4O4
_chemical_formula_sum              "Ag1 H19 C20 N4 O4"
_cell_length_a       6.475649221846669
_cell_length_b       7.9163550126820565
_cell_length_c       9.013598452745287
_cell_angle_alpha    83.90990119621101
_cell_angle_beta     83.17170530719187
_cell_angle_gamma    88.74784635487977

_space_group_name_H-M_alt    "P 1"
_space_group_IT_number       1

loop_
  _space_group_symop_operation_xyz
  'x, y, z'

loop_
  _atom_site_type_symbol
  _atom_site_label
  _atom_site_symmetry_multiplicity
  _atom_site_fract_x
  _atom_site_fract_y
  _atom_site_fract_z
  _atom_site_occupancy
  Ag  Ag1       1.0  0.5000179598682735  0.5000165030456784  0.49996041245921674  1.0000
  H   H1        1.0  0.499694062545899  0.0003640447760489047  0.9997814925409544  1.0000
  H   H2        1.0  0.8488868854444005  0.7116733093035493  0.2545885669007149  1.0000
  H   H3        1.0  0.1510567814505706  0.28826055417175667  0.7453835790174637  1.0000
  H   H4        1.0  0.2532660311984287  0.7251658983224372  0.7448643486405901  1.0000
  H   H5        1.0  0.7467400096335766  0.2748316640347852  0.25513295658933544  1.0000
  H   H6        1.0  0.953825887639546  0.8784676800434141  0.8766614172937396  1.0000
  H   H7        1.0  0.0461313008407274  0.12149401014124808  0.12334972003006332  1.0000
  H   H8        1.0  0.6428892531176587  0.9607620237508171  0.7509155334165458  1.0000
  H   H9        1.0  0.35710819100272306  0.039204841608572794  0.249080396913719  1.0000
  H   H10       1.0  0.6190955175395769  0.8978847177220358  0.4877191637440036  1.0000
  H   H11       1.0  0.380905850957923  0.10211132169858668  0.512269843809719  1.0000
  H   H12       1.0  0.10210301443946429  0.5133220885318082  0.12996124863282432  1.0000
  H   H13       1.0  0.8979042730004207  0.4866867862476524  0.8700291388484164  1.0000
  H   H14       1.0  0.3368075336290203  0.46075260322535866  0.20729970075598916  1.0000
  H   H15       1.0  0.6632004386178282  0.5392340443142557  0.7927197344946535  1.0000
  H   H16       1.0  0.3767983205238039  0.635773499202365  0.9549542944520724  1.0000
  H   H17       1.0  0.6232755704085946  0.3642547284636848  0.04506914909334371  1.0000
  H   H18       1.0  0.24736678128403605  0.8086036814521194  0.03687826481422014  1.0000
  H   H19       1.0  0.7526790942146846  0.19136628280573828  0.9631718819722083  1.0000
  C   C1        1.0  0.10126170398135059  0.7261513973974728  0.5431795576499995  1.0000
  C   C2        1.0  0.8987365107636052  0.2738472602733922  0.4568138738716527  1.0000
  C   C3        1.0  0.1162478816240835  0.7633263050719633  0.6896478992444274  1.0000
  C   C4        1.0  0.8837520144193929  0.23666728607945936  0.31034594896527073  1.0000
  C   C5        1.0  0.9487976876100319  0.8479653993318977  0.7620714883957262  1.0000
  C   C6        1.0  0.0511945061931272  0.15202563544753636  0.23792554002349683  1.0000
  C   C7        1.0  0.7705204610063987  0.8944623298324005  0.6908370124774735  1.0000
  C   C8        1.0  0.22947947875260158  0.10552861544456249  0.3091526878525102  1.0000
  C   C9        1.0  0.7546881927454689  0.8593663672351182  0.5442868617377671  1.0000
  C   C10       1.0  0.2453084669809726  0.14063227662363428  0.45570670782799994  1.0000
  C   C11       1.0  0.9227929107183213  0.7753713815006477  0.47171027814286504  1.0000
  C   C12       1.0  0.07720392143691872  0.22461810750617414  0.5282731990897034  1.0000
  C   C13       1.0  0.14600226693642782  0.6402157563404244  0.31809484706763413  1.0000
  C   C14       1.0  0.8539803563411467  0.3597839804378679  0.6818976135892143  1.0000
  C   C15       1.0  0.2312542808868869  0.5661603320357782  0.17835112660586117  1.0000
  C   C16       1.0  0.7687598483044411  0.43382602719904634  0.821653374419519  1.0000
  C   C17       1.0  0.34568855859475167  0.6965046944834442  0.05990628857030339  1.0000
  C   C18       1.0  0.6543957091045057  0.3034846134661747  0.9401361142448653  1.0000
  C   C19       1.0  0.5546826015768787  0.7483257053013189  0.10097331162922533  1.0000
  C   C20       1.0  0.445437018684018  0.2516876274883444  0.8990988218429834  1.0000
  N   N1        1.0  0.237983827276345  0.6414571251770197  0.4439404252365692  1.0000
  N   N2        1.0  0.7620110782993236  0.3585490725126021  0.556050237652194  1.0000
  N   N3        1.0  0.9585503979854693  0.7205385181366281  0.33051631124649833  1.0000
  N   N4        1.0  0.0414370554870587  0.27945350744481356  0.6694710358190009  1.0000
  O   O1        1.0  0.6124785019507186  0.9052265012142299  0.06984944913091343  1.0000
  O   O2        1.0  0.3875604580931977  0.0947192344024046  0.9302561581748351  1.0000
  O   O3        1.0  0.6675635009681073  0.6375929943580728  0.162467471525531  1.0000
  O   O4        1.0  0.3324768846237518  0.36228407907974247  0.8375890640974291  1.0000
