data_image0
_chemical_formula_structural       Tb4H52C76O32
_chemical_formula_sum              "Tb4 H52 C76 O32"
_cell_length_a       13.509365735960966
_cell_length_b       13.822472515139237
_cell_length_c       16.034549737001353
_cell_angle_alpha    115.52735075776468
_cell_angle_beta     98.42267658102888
_cell_angle_gamma    89.98230470483269

_space_group_name_H-M_alt    "P 1"
_space_group_IT_number       1

loop_
  _space_group_symop_operation_xyz
  'x, y, z'

loop_
  _atom_site_type_symbol
  _atom_site_label
  _atom_site_symmetry_multiplicity
  _atom_site_fract_x
  _atom_site_fract_y
  _atom_site_fract_z
  _atom_site_occupancy
  Tb  Tb1       1.0  0.5401362156405015  0.016343260116435852  0.6277156239371776  1.0000
  Tb  Tb2       1.0  0.9597019936391865  0.3889321313500105  0.37245848271287235  1.0000
  Tb  Tb3       1.0  0.45988439350145455  0.983661373496986  0.3722825186141208  1.0000
  Tb  Tb4       1.0  0.040290305723445385  0.6110607174709983  0.6275304054210621  1.0000
  H   H1        1.0  0.298602743747658  0.7214732973048115  0.5399932688349833  1.0000
  H   H2        1.0  0.20173951155889117  0.18097183320901425  0.4597614088260542  1.0000
  H   H3        1.0  0.7014125754432643  0.27854746705889966  0.46000794833148007  1.0000
  H   H4        1.0  0.7982664910330758  0.8190419794766869  0.5402393165039071  1.0000
  H   H5        1.0  0.429270843795834  0.698499783076585  0.3032417461903095  1.0000
  H   H6        1.0  0.07108990375343181  0.3950824865142763  0.6964437303307277  1.0000
  H   H7        1.0  0.5707392296628772  0.3015147070009833  0.6967644141978369  1.0000
  H   H8        1.0  0.9289065685584535  0.6049175468505582  0.30356885255145727  1.0000
  H   H9        1.0  0.21377432254437426  0.4498479026844536  0.27341015098722465  1.0000
  H   H10       1.0  0.2857930593463181  0.1753816994482944  0.7262148962006164  1.0000
  H   H11       1.0  0.7862375617536017  0.5501556898885057  0.7266123137415973  1.0000
  H   H12       1.0  0.714196383544973  0.8245886416526674  0.2737662346303437  1.0000
  H   H13       1.0  0.35447654886782953  0.6344004332575822  0.14343740889994192  1.0000
  H   H14       1.0  0.14512515308479124  0.4904547461562602  0.8562197287035005  1.0000
  H   H15       1.0  0.6454985975247284  0.365591156734034  0.8565509774833728  1.0000
  H   H16       1.0  0.8548899021063863  0.5095359330504508  0.14377187810340084  1.0000
  H   H17       1.0  0.3957275189427919  0.5238569909596651  0.9864815056531951  1.0000
  H   H18       1.0  0.10403202349102267  0.5370781971695636  0.013265784994239058  1.0000
  H   H19       1.0  0.6042492740413936  0.47612765757508413  0.013513575339935413  1.0000
  H   H20       1.0  0.8959725028219129  0.46291173075156433  0.9867242551774922  1.0000
  H   H21       1.0  0.446991564579939  0.34895781745665744  0.8710022218031951  1.0000
  H   H22       1.0  0.05261018380069524  0.47798756587327074  0.12887957896449356  1.0000
  H   H23       1.0  0.5529894069207659  0.6510390691987952  0.12897788840516006  1.0000
  H   H24       1.0  0.9473862089947008  0.5220310398789466  0.8711162851892097  1.0000
  H   H25       1.0  0.43557508437977094  0.07017024621219285  0.9236581758608862  1.0000
  H   H26       1.0  0.06330213426133473  0.14655768500555416  0.07629825328663031  1.0000
  H   H27       1.0  0.564446200577436  0.9298305364378693  0.07633540894370587  1.0000
  H   H28       1.0  0.9366616488333012  0.8534503412045923  0.9237029989608345  1.0000
  H   H29       1.0  0.37065500747394264  0.17636624664925904  0.0730475957904986  1.0000
  H   H30       1.0  0.12800978840752464  0.10290605243267945  0.9267770457108853  1.0000
  H   H31       1.0  0.6293748145660346  0.8236225376753908  0.9269612412044309  1.0000
  H   H32       1.0  0.8719417405510588  0.8970666774353903  0.07320945400993387  1.0000
  H   H33       1.0  0.3348038477328502  0.3521485066975815  0.19272696409741738  1.0000
  H   H34       1.0  0.16441134109991404  0.15888350716522837  0.8071719523240757  1.0000
  H   H35       1.0  0.6652209261424249  0.6478332788448571  0.8072781791037754  1.0000
  H   H36       1.0  0.8355719487896639  0.8411219428245008  0.19283874493908124  1.0000
  H   H37       1.0  0.7145311362147526  0.933046701698217  0.7213111810639035  1.0000
  H   H38       1.0  0.7853188452290428  0.21189079020619064  0.27910752197634997  1.0000
  H   H39       1.0  0.28546728790603754  0.06695722644252557  0.2786790535697179  1.0000
  H   H40       1.0  0.21469793938305062  0.7881112897020514  0.7209087235909732  1.0000
  H   H41       1.0  0.6124543335932344  0.9465818533821491  0.7602359554250241  1.0000
  H   H42       1.0  0.8870569917667697  0.186627407124675  0.23959127359850638  1.0000
  H   H43       1.0  0.3875481920722594  0.05341344709690075  0.23976250486148126  1.0000
  H   H44       1.0  0.11296598833716599  0.813377186368264  0.7604195248007527  1.0000
  H   H45       1.0  0.7399581505255597  0.07979294051907  0.6426186583878106  1.0000
  H   H46       1.0  0.7599047829402183  0.4372152202764  0.35762281429646947  1.0000
  H   H47       1.0  0.2600395759540178  0.9202060214696743  0.35737860883818934  1.0000
  H   H48       1.0  0.2401175138034121  0.5627875695056447  0.6423981105142501  1.0000
  H   H49       1.0  0.7085168309474315  0.19285766070733243  0.7099001889493975  1.0000
  H   H50       1.0  0.7915952295427645  0.4833285959563158  0.2906096430213552  1.0000
  H   H51       1.0  0.291477043249671  0.8071405696014368  0.2900947625059018  1.0000
  H   H52       1.0  0.20839889962892505  0.5166615399872255  0.7093924558437549  1.0000
  C   C1        1.0  0.2481194709470388  0.581594507175275  0.4101062158730144  1.0000
  C   C2        1.0  0.2518677111223937  0.17091981221573588  0.5896297758312058  1.0000
  C   C3        1.0  0.7518756448312021  0.4184201100472648  0.5899000138263516  1.0000
  C   C4        1.0  0.7481319034517003  0.8290690984172217  0.4103640084467628  1.0000
  C   C5        1.0  0.3044612131904005  0.6785375658452892  0.4661243021830756  1.0000
  C   C6        1.0  0.19579549387653125  0.2120422131812418  0.5336129559390486  1.0000
  C   C7        1.0  0.6955437785694587  0.3214785980153963  0.5338747550528211  1.0000
  C   C8        1.0  0.8042096832168968  0.7879625493230905  0.4663892203747579  1.0000
  C   C9        1.0  0.3680808814556897  0.7208552921712155  0.42694039231664493  1.0000
  C   C10       1.0  0.13219167371854476  0.29359398911362433  0.5727035619561178  1.0000
  C   C11       1.0  0.6319351938761886  0.279151195749158  0.5730587546830179  1.0000
  C   C12       1.0  0.8678132437114104  0.7064138455698911  0.42729765437645273  1.0000
  C   C13       1.0  0.3765826440545653  0.6659402351814805  0.33186146838549746  1.0000
  C   C14       1.0  0.12358060952443853  0.33367253596517804  0.6677762055569616  1.0000
  C   C15       1.0  0.6234341024036781  0.3340573795894882  0.6681393082960411  1.0000
  C   C16       1.0  0.8764253244499827  0.666334212519793  0.3322279163973078  1.0000
  C   C17       1.0  0.3234773069738851  0.5657339564070583  0.27583849757447604  1.0000
  C   C18       1.0  0.17632818440669248  0.2892448447797095  0.7238504838520186  1.0000
  C   C19       1.0  0.6765449994309382  0.4342588581134805  0.7241734615280322  1.0000
  C   C20       1.0  0.8236788682638765  0.7107592091421112  0.2761565564581474  1.0000
  C   C21       1.0  0.2581045235676599  0.5256211675242498  0.31577116471798666  1.0000
  C   C22       1.0  0.24163501470497564  0.20904232001602444  0.683916730540254  1.0000
  C   C23       1.0  0.7419136412367494  0.4743795353394732  0.6842421529940879  1.0000
  C   C24       1.0  0.7583731910050915  0.7909585136847211  0.316082406335731  1.0000
  C   C25       1.0  0.17645353475464284  0.5381817229993616  0.4507074662200239  1.0000
  C   C26       1.0  0.3234831220575814  0.08688044764410548  0.5489042098229006  1.0000
  C   C27       1.0  0.8235372182661681  0.46182018473266606  0.5492997931865418  1.0000
  C   C28       1.0  0.676525613380669  0.9131205288607376  0.4510918971146082  1.0000
  C   C29       1.0  0.43002732832351853  0.8219639221352821  0.4899554412908314  1.0000
  C   C30       1.0  0.0702509797546256  0.3316566249680264  0.5095852185799358  1.0000
  C   C31       1.0  0.5699900096754292  0.1780515073902365  0.5100484932999478  1.0000
  C   C32       1.0  0.9297538440230401  0.6683628310613303  0.4904360882657244  1.0000
  C   C33       1.0  0.34168408581069803  0.5001081870332699  0.17919288466111283  1.0000
  C   C34       1.0  0.15784714837982255  0.3203542185250328  0.8205128286157758  1.0000
  C   C35       1.0  0.6583185791368468  0.49989372742803784  0.8208136322891874  1.0000
  C   C36       1.0  0.8421338240752052  0.6796470264373939  0.17949295350464206  1.0000
  C   C37       1.0  0.3590668626265698  0.547960533472761  0.11940390027936593  1.0000
  C   C38       1.0  0.14060187508439276  0.42808044701214953  0.8803056313295983  1.0000
  C   C39       1.0  0.6409153096595192  0.4520357383539562  0.8805930566282426  1.0000
  C   C40       1.0  0.8593914779530683  0.5719195379571859  0.11969420635561795  1.0000
  C   C41       1.0  0.382923727102167  0.4865868641635559  0.031988027462254806  1.0000
  C   C42       1.0  0.11680166366078742  0.4542434903493415  0.9677826297807995  1.0000
  C   C43       1.0  0.6170642026980178  0.5134038829166627  0.9680114748509111  1.0000
  C   C44       1.0  0.8831941243364699  0.5457503809976246  0.03221440760079021  1.0000
  C   C45       1.0  0.3946932598101327  0.37489829838069977  0.000499150760425913  1.0000
  C   C46       1.0  0.10483774339274282  0.3741459423611743  0.9993418753083816  1.0000
  C   C47       1.0  0.6053141261137612  0.6250947501151175  0.9995026746270312  1.0000
  C   C48       1.0  0.895151832715627  0.6258578828957584  0.0006609124656549519  1.0000
  C   C49       1.0  0.4300791960611507  0.3121709536679589  0.9157450724471801  1.0000
  C   C50       1.0  0.06947803596428061  0.39640139896049936  0.08415982939624202  1.0000
  C   C51       1.0  0.5699211332912599  0.6878267180463171  0.08424539182128396  1.0000
  C   C52       1.0  0.9305177727663013  0.6036131622280012  0.9158455551393132  1.0000
  C   C53       1.0  0.4468828075783834  0.20497885964162083  0.890111875391284  1.0000
  C   C54       1.0  0.052464795194460116  0.31496886413381736  0.10987259001682051  1.0000
  C   C55       1.0  0.5531035510527149  0.7950152853464802  0.10986795121573316  1.0000
  C   C56       1.0  0.9475141317234236  0.6850357804824087  0.890117480848744  1.0000
  C   C57       1.0  0.4234914385931817  0.1551796691099625  0.9467269411981292  1.0000
  C   C58       1.0  0.07562527122021832  0.20843564894834546  0.053260432393095386  1.0000
  C   C59       1.0  0.5765200104381237  0.8448203062204627  0.053264231807482014  1.0000
  C   C60       1.0  0.9243344974604357  0.7915599716938005  0.9467254973093516  1.0000
  C   C61       1.0  0.3880082923410911  0.21400332023409163  0.02895812761572359  1.0000
  C   C62       1.0  0.11095191393049934  0.18476312545370618  0.9709079606111786  1.0000
  C   C63       1.0  0.6120226530839193  0.7859877917134455  0.9710474403065347  1.0000
  C   C64       1.0  0.8890110161964204  0.8152176529666949  0.02907773298234425  1.0000
  C   C65       1.0  0.374980309678968  0.32548056772515815  0.059386447732137526  1.0000
  C   C66       1.0  0.12425844769162354  0.26575464223709816  0.9404422965475091  1.0000
  C   C67       1.0  0.6250295837019312  0.6745103066276384  0.9406172244474006  1.0000
  C   C68       1.0  0.8757172465896947  0.7342371282783449  0.05955419743641948  1.0000
  C   C69       1.0  0.3472478903401993  0.3898884117521107  0.14738081431057992  1.0000
  C   C70       1.0  0.15208304625249983  0.24204827422056488  0.8524457554149264  1.0000
  C   C71       1.0  0.6527534212133262  0.6101086994215451  0.8526233773696532  1.0000
  C   C72       1.0  0.8478863664989124  0.7579501432137123  0.14755246062955507  1.0000
  C   C73       1.0  0.49139330736051096  0.14199526528265247  0.8044788875413502  1.0000
  C   C74       1.0  0.008017284189868702  0.33797179184796283  0.19560770617173517  1.0000
  C   C75       1.0  0.5085843179272302  0.8579878256837435  0.19550515799590323  1.0000
  C   C76       1.0  0.9919759313290801  0.6620340843535005  0.8043955156131517  1.0000
  O   O1        1.0  0.12583340087669376  0.4508640348703353  0.39657127045116164  1.0000
  O   O2        1.0  0.3739332338118331  0.05329504007399779  0.6028476809141878  1.0000
  O   O3        1.0  0.8741632022178583  0.549132599495529  0.6034292658475237  1.0000
  O   O4        1.0  0.6260787917392249  0.9467033251458903  0.39713954037433996  1.0000
  O   O5        1.0  0.6426264064152251  0.9150645798669788  0.7029782756695296  1.0000
  O   O6        1.0  0.8573117272780097  0.21239065943377256  0.29707938641081444  1.0000
  O   O7        1.0  0.3573724052263573  0.08494036012395162  0.2970185005538609  1.0000
  O   O8        1.0  0.14270750840749005  0.7876128589910252  0.7029303464795688  1.0000
  O   O9        1.0  0.17054347466080344  0.5929681545240157  0.5376380438185037  1.0000
  O   O10       1.0  0.32954357444224786  0.05510536865133991  0.4620380964488504  1.0000
  O   O11       1.0  0.8294438375404244  0.40702722055782203  0.4623675695180012  1.0000
  O   O12       1.0  0.6704696898337661  0.9449087509941027  0.5379597843199235  1.0000
  O   O13       1.0  0.7106104972392446  0.11803444846938754  0.6996576935673885  1.0000
  O   O14       1.0  0.7893901122100718  0.4186443961913754  0.30068804314117875  1.0000
  O   O15       1.0  0.28939937974460866  0.8819688933780728  0.3003462818365321  1.0000
  O   O16       1.0  0.21060332972164286  0.5813470607626527  0.6993161384153693  1.0000
  O   O17       1.0  0.4508593843808698  0.8471031295704422  0.5766054764716345  1.0000
  O   O18       1.0  0.04936299678237791  0.2702430285374007  0.4229297034640922  1.0000
  O   O19       1.0  0.5491589891323375  0.15291939838367347  0.42339827013133663  1.0000
  O   O20       1.0  0.9506424367657333  0.7297861644496635  0.577087651874052  1.0000
  O   O21       1.0  0.46245355298862745  0.8827399738823232  0.45579548357899563  1.0000
  O   O22       1.0  0.03783175949632071  0.4266325117008592  0.5437389180401127  1.0000
  O   O23       1.0  0.537566560768504  0.11726399126908392  0.5441948671206943  1.0000
  O   O24       1.0  0.9621769615226871  0.5733815333960238  0.4562905889900292  1.0000
  O   O25       1.0  0.49874381347294167  0.04045357155253253  0.7776782400277041  1.0000
  O   O26       1.0  0.0008008871934208967  0.26339712644578844  0.22262937532970986  1.0000
  O   O27       1.0  0.5012388485547776  0.9595339882431875  0.22230702424803175  1.0000
  O   O28       1.0  0.9992054525315343  0.736602556092528  0.777374178797558  1.0000
  O   O29       1.0  0.5210484309618695  0.1880363812348945  0.7574748090667284  1.0000
  O   O30       1.0  0.9783934394582378  0.4310486173307667  0.24253777042174104  1.0000
  O   O31       1.0  0.4789461976126433  0.8119350674161512  0.24250663145829773  1.0000
  O   O32       1.0  0.021603848760150902  0.5689623259603708  0.7574640802289423  1.0000
