data_image0
_chemical_formula_structural       Co4H24C16O24
_chemical_formula_sum              "Co4 H24 C16 O24"
_cell_length_a       7.709440220464107
_cell_length_b       9.00355587563882
_cell_length_c       8.825400961422934
_cell_angle_alpha    90.0008619317877
_cell_angle_beta     90.00068101394581
_cell_angle_gamma    90.00106898382006

_space_group_name_H-M_alt    "P 1"
_space_group_IT_number       1

loop_
  _space_group_symop_operation_xyz
  'x, y, z'

loop_
  _atom_site_type_symbol
  _atom_site_label
  _atom_site_symmetry_multiplicity
  _atom_site_fract_x
  _atom_site_fract_y
  _atom_site_fract_z
  _atom_site_occupancy
  Co  Co1       1.0  0.09459471743166152  0.07396950450500839  0.8924341488887964  1.0000
  Co  Co2       1.0  0.4054067933203243  0.9260147821528549  0.3924284940849888  1.0000
  Co  Co3       1.0  0.594592065895725  0.42602383833964547  0.10757644713973492  1.0000
  Co  Co4       1.0  0.9054043110958788  0.5739772284685924  0.6075791190256086  1.0000
  H   H1        1.0  0.0278002692158736  0.35404916921639534  0.8581971782728248  1.0000
  H   H2        1.0  0.4722059724596761  0.6459501395204438  0.35819718756796  1.0000
  H   H3        1.0  0.5278048311966046  0.14596200767874729  0.1418047806535228  1.0000
  H   H4        1.0  0.9721958947000501  0.8540395863940943  0.641800933318855  1.0000
  H   H5        1.0  0.9945950092361356  0.3378612584369947  0.036191921937856406  1.0000
  H   H6        1.0  0.5054081961815129  0.6621464835222426  0.5362018586930406  1.0000
  H   H7        1.0  0.4945759264670215  0.1621361350290087  0.9638059032627951  1.0000
  H   H8        1.0  0.005408378928123599  0.8378492509541431  0.4637992626667258  1.0000
  H   H9        1.0  0.7650996115194744  0.08955870176022526  0.0398997690437994  1.0000
  H   H10       1.0  0.7349010491570951  0.9104502078508857  0.5398942419273924  1.0000
  H   H11       1.0  0.2650924751405697  0.41044842130457226  0.9601024304477908  1.0000
  H   H12       1.0  0.23491383176828148  0.589541350593052  0.46010930384287735  1.0000
  H   H13       1.0  0.8477565069753864  0.9904728728129655  0.25969965668065254  1.0000
  H   H14       1.0  0.6522444979061747  0.009516098740206798  0.7597049754816895  1.0000
  H   H15       1.0  0.3477569914610115  0.5095093484738128  0.7403084804461886  1.0000
  H   H16       1.0  0.15224378265081379  0.4904870333736183  0.24029263252821664  1.0000
  H   H17       1.0  0.8601460785772658  0.7438552441918559  0.02215289964006221  1.0000
  H   H18       1.0  0.639832294334525  0.2561689415195545  0.5221798329786083  1.0000
  H   H19       1.0  0.3601578061580284  0.7561593807191046  0.977824775156947  1.0000
  H   H20       1.0  0.139847440683937  0.24384177088170836  0.4778289749774204  1.0000
  H   H21       1.0  0.9094618010914388  0.7059687401000402  0.21339291867340654  1.0000
  H   H22       1.0  0.590548961727258  0.2940128544037819  0.7134312173014977  1.0000
  H   H23       1.0  0.4094640297766432  0.7940266658894188  0.7865796114414537  1.0000
  H   H24       1.0  0.09054384875730652  0.2059804250167971  0.2865838683459714  1.0000
  C   C1        1.0  0.9093485974120057  0.9403523848613419  0.15931550695382413  1.0000
  C   C2        1.0  0.5906510655203546  0.059647257679124294  0.6593209100076296  1.0000
  C   C3        1.0  0.4093411595257379  0.5596496835466026  0.8406876154737761  1.0000
  C   C4        1.0  0.09065836247252429  0.4403537980061714  0.3406760473531208  1.0000
  C   C5        1.0  0.6489738690361264  0.7706564443664732  0.18091417248706426  1.0000
  C   C6        1.0  0.8510234884600933  0.229342420247157  0.6809248141397292  1.0000
  C   C7        1.0  0.1489763936962802  0.7293348773098314  0.8190918647670175  1.0000
  C   C8        1.0  0.35102802787008613  0.27065716484731445  0.3190760268766369  1.0000
  C   C9        1.0  0.10497260457398032  0.9395610477562145  0.18718987244709245  1.0000
  C   C10       1.0  0.3950248653597654  0.060438958661343585  0.6871985025382018  1.0000
  C   C11       1.0  0.6049647830637284  0.5604406905977014  0.8128156999970317  1.0000
  C   C12       1.0  0.8950317434604997  0.43955576305593513  0.31280280328772403  1.0000
  C   C13       1.0  0.8389615749046726  0.7827617154910695  0.13871774855073946  1.0000
  C   C14       1.0  0.6610378127867805  0.21724094187922557  0.6387386697427929  1.0000
  C   C15       1.0  0.33896698929516583  0.717244802514564  0.8612642347312588  1.0000
  C   C16       1.0  0.1610418877118889  0.282762328217288  0.3612669628374263  1.0000
  O   O1        1.0  0.5714120961187703  0.8890482507779468  0.22012531377167482  1.0000
  O   O2        1.0  0.9285870827126672  0.11095232853762128  0.7201327728205699  1.0000
  O   O3        1.0  0.0714153605828045  0.610950740001172  0.7798708394319365  1.0000
  O   O4        1.0  0.4286028049883655  0.3890395875847971  0.27987908542148443  1.0000
  O   O5        1.0  0.574576682400959  0.6443502297122095  0.18366400338707936  1.0000
  O   O6        1.0  0.925425900182624  0.3556464558478111  0.6836602864363074  1.0000
  O   O7        1.0  0.07456770506283308  0.8556388146824432  0.8163503125977132  1.0000
  O   O8        1.0  0.4254327884826594  0.1443520745128879  0.3163311427387755  1.0000
  O   O9        1.0  0.0789247931803061  0.3133308416328545  0.95414066600884  1.0000
  O   O10       1.0  0.4210866225446566  0.6866699451354635  0.45414073225352075  1.0000
  O   O11       1.0  0.5789185989163242  0.18666336598614205  0.04584936879551551  1.0000
  O   O12       1.0  0.9210743585582506  0.8133334178871008  0.5458523163222466  1.0000
  O   O13       1.0  0.15670935922236848  0.8810788529229255  0.3117630938787742  1.0000
  O   O14       1.0  0.3432897762541316  0.11892640457899968  0.8117754341856057  1.0000
  O   O15       1.0  0.6567128440650691  0.6189203647811395  0.6882452913423833  1.0000
  O   O16       1.0  0.843283314185726  0.38108305521964775  0.18822645823869522  1.0000
  O   O17       1.0  0.8757463634904994  0.03145356168732148  0.0300102918738716  1.0000
  O   O18       1.0  0.6242554621364675  0.9685618596013159  0.5300021816582972  1.0000
  O   O19       1.0  0.3757341633981  0.4685641817706737  0.9699998751048968  1.0000
  O   O20       1.0  0.12425671059683913  0.5314457344288285  0.4699877312798648  1.0000
  O   O21       1.0  0.2040264864098376  0.9978536005161444  0.09005302677410043  1.0000
  O   O22       1.0  0.2959787645440031  0.0021382455401237994  0.5900597557772687  1.0000
  O   O23       1.0  0.7040238584268936  0.5021541337523489  0.9099490597798551  1.0000
  O   O24       1.0  0.7959778581393451  0.49785159096673925  0.4099359712715299  1.0000
