data_image0
_chemical_formula_structural       H26Pb2C20N4Cl2O8
_chemical_formula_sum              "H26 Pb2 C20 N4 Cl2 O8"
_cell_length_a       7.317837971222328
_cell_length_b       7.433243053149514
_cell_length_c       13.1549270226774
_cell_angle_alpha    89.35035037389939
_cell_angle_beta     76.50417413269491
_cell_angle_gamma    67.09441869329935

_space_group_name_H-M_alt    "P 1"
_space_group_IT_number       1

loop_
  _space_group_symop_operation_xyz
  'x, y, z'

loop_
  _atom_site_type_symbol
  _atom_site_label
  _atom_site_symmetry_multiplicity
  _atom_site_fract_x
  _atom_site_fract_y
  _atom_site_fract_z
  _atom_site_occupancy
  H   H1        1.0  0.6396665432267739  0.8269534251341427  0.6691330265299628  1.0000
  H   H2        1.0  0.3603299159480855  0.17304822232343753  0.3308643201854267  1.0000
  H   H3        1.0  0.8515920143589284  0.8468102151102102  0.6854181773405301  1.0000
  H   H4        1.0  0.14840693492262597  0.15318556096023886  0.3145796300416634  1.0000
  H   H5        1.0  0.9778747466613704  0.978720590737446  0.7578152283541256  1.0000
  H   H6        1.0  0.022114424065037507  0.021275068504195395  0.24218689899741008  1.0000
  H   H7        1.0  0.9336620771263284  0.1482821948764439  0.8574911224901313  1.0000
  H   H8        1.0  0.06634532915789755  0.851673810465229  0.1425179187567025  1.0000
  H   H9        1.0  0.6235209412288184  0.2952398303450466  0.9872642743353167  1.0000
  H   H10       1.0  0.37648020931404613  0.7047441505645439  0.012737858734908498  1.0000
  H   H11       1.0  0.0981128717767774  0.200167507501682  0.9518714738866476  1.0000
  H   H12       1.0  0.9018770114776089  0.7998562316646345  0.04811827251066349  1.0000
  H   H13       1.0  0.30898056544749153  0.9970120255177694  0.7814296508981541  1.0000
  H   H14       1.0  0.6910185465347637  0.0029866891560602006  0.21856888231832977  1.0000
  H   H15       1.0  0.5376986508957416  0.4035099588377307  0.18097200551854087  1.0000
  H   H16       1.0  0.46230530120656976  0.5965005622197949  0.8190273626119478  1.0000
  H   H17       1.0  0.8121088402876566  0.3227185898002602  0.1558767802094465  1.0000
  H   H18       1.0  0.1878861119590313  0.6772932935005896  0.8441267994824811  1.0000
  H   H19       1.0  0.6453782827758302  0.5603346804598317  0.2171193909347124  1.0000
  H   H20       1.0  0.35462272245142396  0.4396728562601667  0.7828818961887904  1.0000
  H   H21       1.0  0.9247791146043695  0.4754103875695962  0.4096605386480121  1.0000
  H   H22       1.0  0.07522705964841954  0.5245883117173876  0.5903461932789895  1.0000
  H   H23       1.0  0.13945663465437255  0.5261083895355158  0.34364949837961944  1.0000
  H   H24       1.0  0.8605573039861624  0.4738786127113458  0.6563555100536647  1.0000
  H   H25       1.0  0.9237767003388697  0.5768046617277491  0.28730660548763615  1.0000
  H   H26       1.0  0.07623661708056065  0.42318380670278805  0.7126984776607301  1.0000
  Pb  Pb1       1.0  0.6700332510465755  0.17700998577584676  0.5352469593741844  1.0000
  Pb  Pb2       1.0  0.3299502921339013  0.8229989156858653  0.46475052372323933  1.0000
  C   C1        1.0  0.5838682648037049  0.027494091052183495  0.7901561093930596  1.0000
  C   C2        1.0  0.4161214836134589  0.9725134157368988  0.20983828791599277  1.0000
  C   C3        1.0  0.6748127501873427  0.11524578215487945  0.8473399430552249  1.0000
  C   C4        1.0  0.32518746764785084  0.8847470282860929  0.1526615125323971  1.0000
  C   C5        1.0  0.5550717100498161  0.22843703200997828  0.9422720078136209  1.0000
  C   C6        1.0  0.4449208451828995  0.7715572333918319  0.05772436188703979  1.0000
  C   C7        1.0  0.3505209593997235  0.2574822732822711  0.9779826365962021  1.0000
  C   C8        1.0  0.6494761558002222  0.7425311219364162  0.022018372983488597  1.0000
  C   C9        1.0  0.2586179081195467  0.17476010126661387  0.9219014207815092  1.0000
  C   C10       1.0  0.7413729496208177  0.8252547551489259  0.07809507931535355  1.0000
  C   C11       1.0  0.3774853207976037  0.06066609246931882  0.8280667266660373  1.0000
  C   C12       1.0  0.6225117752652238  0.939334068847316  0.17193282391562545  1.0000
  C   C13       1.0  0.6542492018772279  0.3325132318632739  0.31861788027946153  1.0000
  C   C14       1.0  0.34575257682724464  0.6674957905812635  0.6813825389090268  1.0000
  C   C15       1.0  0.6644857535451009  0.4061510957951598  0.21091493248533064  1.0000
  C   C16       1.0  0.33550663548285087  0.5938667520267417  0.7890775531601335  1.0000
  C   C17       1.0  0.8685199149191333  0.7776550097136052  0.41723383473734527  1.0000
  C   C18       1.0  0.13149585952123027  0.22234088775606867  0.5827655728046537  1.0000
  C   C19       1.0  0.9726202199066876  0.5770601929305315  0.3598880951963038  1.0000
  C   C20       1.0  0.027385180868876133  0.422937020631899  0.6401195046657193  1.0000
  N   N1        1.0  0.697859046981307  0.919925435944485  0.6924185551048792  1.0000
  N   N2        1.0  0.3021377236801186  0.08006884816538928  0.3075795438081883  1.0000
  N   N3        1.0  0.873723882361581  0.09754200107867923  0.8080449020510442  1.0000
  N   N4        1.0  0.1262809833112826  0.9024464565454127  0.1919536845640195  1.0000
  Cl  Cl1       1.0  0.20643298941235597  0.4020276754057265  0.09488614672748241  1.0000
  Cl  Cl2       1.0  0.7935604863314223  0.5979710342812796  0.9051078022910913  1.0000
  O   O1        1.0  0.8210961381282684  0.220402488569107  0.3415193908920743  1.0000
  O   O2        1.0  0.1789085978958482  0.7796095049081231  0.6584806283576297  1.0000
  O   O3        1.0  0.4803618394941153  0.3860870139350753  0.3846571820591222  1.0000
  O   O4        1.0  0.5196313874305502  0.6139189792705652  0.6153451290871956  1.0000
  O   O5        1.0  0.6825633576706807  0.8839970133942217  0.4183502619001728  1.0000
  O   O6        1.0  0.3174578589737249  0.11599599037343475  0.5816484468427205  1.0000
  O   O7        1.0  0.9651186167709437  0.8406376982783076  0.467483502747605  1.0000
  O   O8        1.0  0.034897931146638035  0.15935968491591268  0.5325150368593725  1.0000
