data_image0
_chemical_formula_structural       Ag2H32C44N12O4F6
_chemical_formula_sum              "Ag2 H32 C44 N12 O4 F6"
_cell_length_a       10.096337057116015
_cell_length_b       10.992590932813064
_cell_length_c       11.26601516825844
_cell_angle_alpha    64.35498250526824
_cell_angle_beta     77.2813080796753
_cell_angle_gamma    72.87020321623491

_space_group_name_H-M_alt    "P 1"
_space_group_IT_number       1

loop_
  _space_group_symop_operation_xyz
  'x, y, z'

loop_
  _atom_site_type_symbol
  _atom_site_label
  _atom_site_symmetry_multiplicity
  _atom_site_fract_x
  _atom_site_fract_y
  _atom_site_fract_z
  _atom_site_occupancy
  Ag  Ag1       1.0  0.5103454177058921  0.4097169442124553  0.16751381486746214  1.0000
  Ag  Ag2       1.0  0.4896544574955827  0.5902848560268338  0.8324857604130429  1.0000
  H   H1        1.0  0.05331216895969961  0.044754619400762904  0.6810722909608343  1.0000
  H   H2        1.0  0.9466859126436022  0.9552461434869671  0.3189280801193206  1.0000
  H   H3        1.0  0.11873667893296869  0.36154131632219594  0.2617969880122573  1.0000
  H   H4        1.0  0.8812671810987284  0.638456346916179  0.7382017546663845  1.0000
  H   H5        1.0  0.009642205564880211  0.2538622017190377  0.3806343682487281  1.0000
  H   H6        1.0  0.9903609480408024  0.7461385670461098  0.6193640967476741  1.0000
  H   H7        1.0  0.8315273022294676  0.3571038894491565  0.5409970218901492  1.0000
  H   H8        1.0  0.16847483206969827  0.6428968812904188  0.4590007588201743  1.0000
  H   H9        1.0  0.1857688407841636  0.5253068006768303  0.3105572119914655  1.0000
  H   H10       1.0  0.8142332935150024  0.4746939700627451  0.6894405687188582  1.0000
  H   H11       1.0  0.08330402435859706  0.6281943943394523  0.09549841853333164  1.0000
  H   H12       1.0  0.9167000602461217  0.37180224072314155  0.904498048922001  1.0000
  H   H13       1.0  0.19213305617233103  0.9120143459092488  0.3569275674191985  1.0000
  H   H14       1.0  0.8078650213426003  0.08798641960341061  0.6430719157419348  1.0000
  H   H15       1.0  0.6198504207272891  0.7023701491451464  0.9416833496797921  1.0000
  H   H16       1.0  0.3801494585625563  0.2976316484692205  0.058317113519734703  1.0000
  H   H17       1.0  0.7731880369543517  0.867589516019912  0.8189708514462879  1.0000
  H   H18       1.0  0.22681231192337492  0.132410212118252  0.18102950090172953  1.0000
  H   H19       1.0  0.9993041074150144  0.8332544976219793  0.8942813140169789  1.0000
  H   H20       1.0  0.0006967069622306073  0.1667431636649113  0.10571803956050022  1.0000
  H   H21       1.0  0.3245317351120818  0.0008083616968193003  0.7826647006991649  1.0000
  H   H22       1.0  0.6754648535084516  0.9991944752664709  0.21733420902740622  1.0000
  H   H23       1.0  0.47132778174167816  0.43936086839536864  0.4501164080634015  1.0000
  H   H24       1.0  0.5286735741774609  0.560638865643142  0.549881964813622  1.0000
  H   H25       1.0  0.3064575621068855  0.890492830275072  0.6456306599470308  1.0000
  H   H26       1.0  0.6935412978764434  0.10950896931372259  0.35436911896642437  1.0000
  H   H27       1.0  0.3567830720540925  0.8912567882336476  0.4843059079617902  1.0000
  H   H28       1.0  0.6432147686227196  0.10874501332957458  0.5156931866655867  1.0000
  H   H29       1.0  0.38744956621174265  0.15811346473198282  0.8560151917472751  1.0000
  H   H30       1.0  0.6125472633352871  0.8418883335558149  0.14398499443207424  1.0000
  H   H31       1.0  0.46131316324824934  0.37067452957271035  0.6957515992899631  1.0000
  H   H32       1.0  0.5386856844699749  0.6293272778908658  0.30424551586642684  1.0000
  C   C1        1.0  0.8963379616135401  0.5512489871362475  0.12984697020445427  1.0000
  C   C2        1.0  0.10366465045024852  0.44874970887727283  0.8701524754924037  1.0000
  C   C3        1.0  0.030429003714651508  0.0244060877262342  0.6019652833701272  1.0000
  C   C4        1.0  0.9695680585821336  0.9755946771359238  0.3980344034239566  1.0000
  C   C5        1.0  0.019385116044141223  0.3614965929444196  0.3253770275083383  1.0000
  C   C6        1.0  0.9806172510047805  0.6385031443695155  0.6746202538167196  1.0000
  C   C7        1.0  0.7671784727145051  0.5704778792417713  0.08778671638459198  1.0000
  C   C8        1.0  0.23282195220559748  0.4295259884992929  0.9122136540335006  1.0000
  C   C9        1.0  0.1388873691170503  0.975278990579021  0.5211545567230617  1.0000
  C   C10       1.0  0.8611094563416087  0.024722810333699396  0.47884474153726597  1.0000
  C   C11       1.0  0.35619247121432823  0.13849874172245794  0.5744264506564889  1.0000
  C   C12       1.0  0.6438063846806303  0.8615030604912592  0.42557244033793745  1.0000
  C   C13       1.0  0.9056642028220241  0.41969959103353466  0.5229368655620377  1.0000
  C   C14       1.0  0.09433917535668715  0.5803001495558249  0.47705932421104796  1.0000
  C   C15       1.0  0.3267421959483556  0.7298678426751765  0.036610022750068104  1.0000
  C   C16       1.0  0.6732599113688309  0.27012875696237865  0.9633983949184285  1.0000
  C   C17       1.0  0.010278056043119927  0.4323707252990515  0.4165338917359733  1.0000
  C   C18       1.0  0.9897255630620805  0.5676279766148227  0.5834635744898903  1.0000
  C   C19       1.0  0.10452362145962014  0.5133300189013283  0.3938663764030324  1.0000
  C   C20       1.0  0.8954785087511823  0.48667075446317654  0.6061305163882693  1.0000
  C   C21       1.0  0.9836719026449503  0.644335818530223  0.06246791778422519  1.0000
  C   C22       1.0  0.016333903603928925  0.35565771165610016  0.9375286237204037  1.0000
  C   C23       1.0  0.10760183160102353  0.9511047896853384  0.4193718930221523  1.0000
  C   C24       1.0  0.8923942236543425  0.048895969276472294  0.5806297732429188  1.0000
  C   C25       1.0  0.7199089133851617  0.685633770079832  0.9747230637360006  1.0000
  C   C26       1.0  0.2800909618163132  0.314368030159457  0.02527651154450449  1.0000
  C   C27       1.0  0.8062607433027936  0.7776672264714718  0.9076218496197086  1.0000
  C   C28       1.0  0.19374163601123232  0.2223325029676814  0.09237809546240783  1.0000
  C   C29       1.0  0.9357132994749691  0.7574916032912214  0.9506644343899422  1.0000
  C   C30       1.0  0.06429001492646343  0.24250398982046312  0.049334401070133496  1.0000
  C   C31       1.0  0.3980053884028223  0.260214130686883  0.4811920376382376  1.0000
  C   C32       1.0  0.601995971604687  0.7397856007267053  0.5188072231578077  1.0000
  C   C33       1.0  0.3512783764428633  0.09764426474336571  0.7112986666164716  1.0000
  C   C34       1.0  0.6487182121776699  0.9023585722199171  0.2887002431100998  1.0000
  C   C35       1.0  0.24131081131646698  0.8549515122965871  0.07306169418274791  1.0000
  C   C36       1.0  0.7586892532993232  0.145045093914753  0.9269444669945841  1.0000
  C   C37       1.0  0.4370468511487431  0.34688230633948797  0.5226404000146232  1.0000
  C   C38       1.0  0.5629509895280691  0.6531194952237344  0.4773586946127608  1.0000
  C   C39       1.0  0.28879026393013874  0.9499952173637778  0.5410127341674666  1.0000
  C   C40       1.0  0.7112060199866262  0.050004510797315  0.45898754479331677  1.0000
  C   C41       1.0  0.3891050110588595  0.18499016912807056  0.7506742755997281  1.0000
  C   C42       1.0  0.6108918143997998  0.8150116317846569  0.24932502266059944  1.0000
  C   C43       1.0  0.4316594609303763  0.30736193374860227  0.6580705156331632  1.0000
  C   C44       1.0  0.5683393908762115  0.6926398710900442  0.34192748744224855  1.0000
  N   N1        1.0  0.9076014269799304  0.42946456403695527  0.2392372535606456  1.0000
  N   N2        1.0  0.09240016168897114  0.5705341365759155  0.7607606199311121  1.0000
  N   N3        1.0  0.7095832268421843  0.460477555296805  0.17486694954971688  1.0000
  N   N4        1.0  0.2904166483592904  0.5395242449424843  0.825132625730788  1.0000
  N   N5        1.0  0.33398141584928004  0.0788709093344906  0.4982003979823376  1.0000
  N   N6        1.0  0.6660143943912329  0.9211308909277349  0.5017991039109336  1.0000
  N   N7        1.0  0.39824342011598896  0.2656651013432949  0.3565506600770831  1.0000
  N   N8        1.0  0.6017566837468848  0.7343356680952835  0.6434475278991344  1.0000
  N   N9        1.0  0.7945454919068382  0.37662214694427826  0.2653313889737278  1.0000
  N   N10       1.0  0.2054556230858182  0.6233786257697247  0.7346657074505246  1.0000
  N   N11       1.0  0.3596092212443622  0.15667641504523996  0.3677981521967624  1.0000
  N   N12       1.0  0.6403876001259333  0.8433253884924098  0.6322002581445434  1.0000
  O   O1        1.0  0.329762464063748  0.6116669362046563  0.12814589267259194  1.0000
  O   O2        1.0  0.670241685954835  0.38832965685912063  0.8718647814870764  1.0000
  O   O3        1.0  0.3837617060365944  0.7656636937354833  0.9192092636572868  1.0000
  O   O4        1.0  0.6162400965768244  0.23432979709988894  0.08080052324542211  1.0000
  F   F1        1.0  0.3296903071029861  0.9271313113705019  0.07596327980584082  1.0000
  F   F2        1.0  0.6703092797481816  0.0728673695668931  0.9240412163849571  1.0000
  F   F3        1.0  0.15105933623029702  0.9452888673448002  0.9821529346790072  1.0000
  F   F4        1.0  0.8489404032398795  0.054704643188983895  0.017850156137427593  1.0000
  F   F5        1.0  0.16431633131707465  0.8176193013213435  0.19356368805269847  1.0000
  F   F6        1.0  0.8356762086959649  0.1823835251651715  0.806438699962726  1.0000
