data_image0
_chemical_formula_structural       ZnH20C27N6O12
_chemical_formula_sum              "Zn1 H20 C27 N6 O12"
_cell_length_a       5.2931544540740045
_cell_length_b       11.045741497336065
_cell_length_c       12.526587053097705
_cell_angle_alpha    112.64906411476395
_cell_angle_beta     102.16286445380574
_cell_angle_gamma    90.01869946753474

_space_group_name_H-M_alt    "P 1"
_space_group_IT_number       1

loop_
  _space_group_symop_operation_xyz
  'x, y, z'

loop_
  _atom_site_type_symbol
  _atom_site_label
  _atom_site_symmetry_multiplicity
  _atom_site_fract_x
  _atom_site_fract_y
  _atom_site_fract_z
  _atom_site_occupancy
  Zn  Zn1       1.0  0.8681547209112421  0.49997066697034137  0.9999663154256949  1.0000
  H   H1        1.0  0.08277184379820565  0.7443107856736119  0.9123966621905665  1.0000
  H   H2        1.0  0.1701394702052639  0.25555912349371807  0.08760042987054108  1.0000
  H   H3        1.0  0.36693600263437526  0.5617196647870839  0.874656482390229  1.0000
  H   H4        1.0  0.4920495947831397  0.4381371726063036  0.12514289351829425  1.0000
  H   H5        1.0  0.928668354352645  0.7739687655574057  0.17703296503561453  1.0000
  H   H6        1.0  0.7524307517420114  0.22570272261935287  0.8229628336891324  1.0000
  H   H7        1.0  0.6723796083558966  0.968684948965503  0.22654185115880662  1.0000
  H   H8        1.0  0.4466308518125075  0.030958157387196598  0.7735682048147012  1.0000
  H   H9        1.0  0.3362517645062866  0.08180037071323909  0.142505753766514  1.0000
  H   H10       1.0  0.19318138460877063  0.9179828525012962  0.8574188036544041  1.0000
  H   H11       1.0  0.10396808257696916  0.9945994117293605  0.17339779805921285  1.0000
  H   H12       1.0  0.9305578356817323  0.0055886019283661985  0.8269833983241099  1.0000
  H   H13       1.0  0.8827570835497199  0.08573323720883509  0.0361479431962692  1.0000
  H   H14       1.0  0.8466520795825828  0.9142267851341965  0.9642100082705339  1.0000
  H   H15       1.0  0.6501783703464383  0.426200912881292  0.546556207950772  1.0000
  H   H16       1.0  0.10311027794973165  0.5739978149665744  0.4534216421850275  1.0000
  H   H17       1.0  0.13669600064194753  0.16762438525537954  0.33952066635645645  1.0000
  H   H18       1.0  0.7966413018872418  0.8324586722706325  0.6604745646789352  1.0000
  H   H19       1.0  0.27453420321593563  0.2661754339516732  0.7168897594816741  1.0000
  H   H20       1.0  0.5573380480594848  0.7341471595812477  0.28305348033158845  1.0000
  C   C1        1.0  0.2680269738334998  0.7566877150670236  0.9748432547754078  1.0000
  C   C2        1.0  0.2933879229068594  0.24307395731392484  0.025234447349589576  1.0000
  C   C3        1.0  0.42459595553832946  0.6527956208477902  0.9525996433316306  1.0000
  C   C4        1.0  0.47211369674391085  0.3469874550920125  0.047341579598793294  1.0000
  C   C5        1.0  0.7403115740343083  0.7723047394770786  0.12089017854719936  1.0000
  C   C6        1.0  0.6199504611702551  0.22738178212652826  0.8790805483859641  1.0000
  C   C7        1.0  0.5960707208638851  0.8802509110212497  0.14732828072581586  1.0000
  C   C8        1.0  0.4491960606890758  0.11942158843105227  0.8527106775113608  1.0000
  C   C9        1.0  0.35327029434100865  0.8748833523951589  0.07328784834771793  1.0000
  C   C10       1.0  0.28028555743959066  0.12488159020156786  0.9267959635710952  1.0000
  C   C11       1.0  0.19849891216949078  0.9930251417954491  0.10249494547218763  1.0000
  C   C12       1.0  0.09602965259418285  0.006880502312249296  0.8976777753988188  1.0000
  C   C13       1.0  0.990671251691218  0.9999644412301122  0.0001545566966499261  1.0000
  C   C14       1.0  0.8646038532359062  0.4231717155485413  0.7581249792083966  1.0000
  C   C15       1.0  0.10613957637001187  0.5768469622080588  0.24185246896537646  1.0000
  C   C16       1.0  0.956973433578064  0.3560054521213302  0.6446218253411329  1.0000
  C   C17       1.0  0.3118880230002858  0.6442589212427945  0.3553369031268261  1.0000
  C   C18       1.0  0.8151660643285935  0.3672334386763011  0.541697149877983  1.0000
  C   C19       1.0  0.2729932414161311  0.6329522772019585  0.45825622155433615  1.0000
  C   C20       1.0  0.8818601765522873  0.2991615224177408  0.4337901344160286  1.0000
  C   C21       1.0  0.447460529642477  0.7010227013499203  0.5661745143379375  1.0000
  C   C22       1.0  0.08792427010066459  0.22076228668784376  0.4243795268087212  1.0000
  C   C23       1.0  0.6630287093075324  0.7794234950392532  0.5755999713538172  1.0000
  C   C24       1.0  0.225194205017516  0.21094039007284937  0.5278375890173734  1.0000
  C   C25       1.0  0.6968167731177815  0.7893249138383279  0.4721434190582342  1.0000
  C   C26       1.0  0.1648894776235537  0.27731836850311703  0.6380232642264118  1.0000
  C   C27       1.0  0.5264560778117087  0.7229666290198506  0.36193528398927544  1.0000
  N   N1        1.0  0.6570033787709377  0.6595240766546409  0.024411365716289813  1.0000
  N   N2        1.0  0.6328931966597722  0.3402044906597722  0.9755070036557425  1.0000
  N   N3        1.0  0.7170784912295218  0.29982560709982653  0.3237280583859102  1.0000
  N   N4        1.0  0.3927158805752597  0.7002783481652912  0.6762231778787965  1.0000
  N   N5        1.0  0.4368737832025644  0.12398610831193223  0.5173257907945441  1.0000
  N   N6        1.0  0.919064598621418  0.8762306194921406  0.48255500486700237  1.0000
  O   O1        1.0  0.013935486233648858  0.4220882198667723  0.8542602800932854  1.0000
  O   O2        1.0  0.15929427316313385  0.5779525100049268  0.14567185938457064  1.0000
  O   O3        1.0  0.6520444396726078  0.4715633688617229  0.7514379983316032  1.0000
  O   O4        1.0  0.9004813914009518  0.5282702671756424  0.2486094294634  1.0000
  O   O5        1.0  0.48295263306330594  0.06702030118328389  0.41744039012221623  1.0000
  O   O6        1.0  0.06493300948087459  0.9332459508446218  0.5823989161001462  1.0000
  O   O7        1.0  0.5590435276601016  0.11242152781576917  0.608234405796054  1.0000
  O   O8        1.0  0.95042120921957  0.887671712924593  0.39155932897753576  1.0000
  O   O9        1.0  0.7799009228695157  0.2349835526767022  0.22921638850780815  1.0000
  O   O10       1.0  0.5504099513166807  0.7648408246528005  0.7706407645965213  1.0000
  O   O11       1.0  0.5205785929763779  0.36092870204478084  0.331434322033914  1.0000
  O   O12       1.0  0.18815557358035304  0.6394859682949698  0.668679783664615  1.0000
