data_image0
_chemical_formula_structural       Zn4H60C84N8O20
_chemical_formula_sum              "Zn4 H60 C84 N8 O20"
_cell_length_a       10.26077122901645
_cell_length_b       10.49075609151867
_cell_length_c       22.405458554627344
_cell_angle_alpha    94.47433829120388
_cell_angle_beta     89.99992480991874
_cell_angle_gamma    89.99981485653693

_space_group_name_H-M_alt    "P 1"
_space_group_IT_number       1

loop_
  _space_group_symop_operation_xyz
  'x, y, z'

loop_
  _atom_site_type_symbol
  _atom_site_label
  _atom_site_symmetry_multiplicity
  _atom_site_fract_x
  _atom_site_fract_y
  _atom_site_fract_z
  _atom_site_occupancy
  Zn  Zn1       1.0  0.8782428981451743  0.9377816870356596  0.9858580589763619  1.0000
  Zn  Zn2       1.0  0.3782418245631689  0.5622201125586982  0.5141436678705347  1.0000
  Zn  Zn3       1.0  0.12175778074340121  0.062222730926649185  0.0141422502864117  1.0000
  Zn  Zn4       1.0  0.6217569051629113  0.43777765624867726  0.485858219094375  1.0000
  H   H1        1.0  0.7119204048098808  0.2469583225982248  0.9040756842837895  1.0000
  H   H2        1.0  0.21192236157629912  0.25304387960749614  0.595924822186845  1.0000
  H   H3        1.0  0.2880783249095273  0.7530479208116531  0.0959211112112257  1.0000
  H   H4        1.0  0.788073444404631  0.7469462622986428  0.4040777192427356  1.0000
  H   H5        1.0  0.6227046491264474  0.4340560297812104  0.8555760580438942  1.0000
  H   H6        1.0  0.12270318685066432  0.06595512329229078  0.6444270144891249  1.0000
  H   H7        1.0  0.37729992809163804  0.5659578947132005  0.1444223164204388  1.0000
  H   H8        1.0  0.8772994412249702  0.9340369524232273  0.3555764800396233  1.0000
  H   H9        1.0  0.9688458466664615  0.6488744700426494  0.9035125325157836  1.0000
  H   H10       1.0  0.46883968040229723  0.851125099178759  0.5964881763865648  1.0000
  H   H11       1.0  0.031168476423623297  0.35112897014943917  0.0964868535042953  1.0000
  H   H12       1.0  0.5311687951815288  0.14887171354001083  0.4035136807110575  1.0000
  H   H13       1.0  0.06100887880591441  0.4572245647232904  0.9504504380079482  1.0000
  H   H14       1.0  0.5610047237886491  0.04277331857851859  0.5495486870926101  1.0000
  H   H15       1.0  0.9389966730155949  0.5427769850130771  0.0495497816616819  1.0000
  H   H16       1.0  0.4389959551044456  0.9572273076060112  0.45045284277598796  1.0000
  H   H17       1.0  0.8512654745267767  0.4911717485683766  0.767083836759639  1.0000
  H   H18       1.0  0.3512619965598205  0.008832876598816602  0.7329171062617377  1.0000
  H   H19       1.0  0.14873520435891413  0.5088355050990502  0.23291522203351187  1.0000
  H   H20       1.0  0.6487318602512175  0.9911572436352784  0.2670845417945245  1.0000
  H   H21       1.0  0.7761251317303322  0.45811474807288016  0.661076826189678  1.0000
  H   H22       1.0  0.27612611104532186  0.0418796604245628  0.8389260755414796  1.0000
  H   H23       1.0  0.22386775046907564  0.5418906693253189  0.3389252996877162  1.0000
  H   H24       1.0  0.7238667711837081  0.9581094712256188  0.1610742025903065  1.0000
  H   H25       1.0  0.47507804697435324  0.7378420782364116  0.6958048818709558  1.0000
  H   H26       1.0  0.9750821759163204  0.7621575030818163  0.8041971626283272  1.0000
  H   H27       1.0  0.5249187335688248  0.2621633174801659  0.30419635063102396  1.0000
  H   H28       1.0  0.024920452170754  0.23782973808233984  0.19580394914638793  1.0000
  H   H29       1.0  0.5506930071300004  0.7739558113298202  0.8023474717221433  1.0000
  H   H30       1.0  0.050688911904416004  0.7260451265822353  0.6976535364524779  1.0000
  H   H31       1.0  0.4493115700987289  0.22604957353638613  0.19765331409004008  1.0000
  H   H32       1.0  0.9493137161777838  0.27394498279988255  0.3023476649136398  1.0000
  H   H33       1.0  0.6704179206605829  0.0770657389394103  0.9297785622609284  1.0000
  H   H34       1.0  0.1704184146372825  0.42293184042620174  0.570222717968683  1.0000
  H   H35       1.0  0.32958275824039873  0.9229328992364857  0.0702197810710246  1.0000
  H   H36       1.0  0.8295803150871135  0.5770650264965977  0.42978137256746146  1.0000
  H   H37       1.0  0.4362426477608423  0.04057539346955959  0.897558687351605  1.0000
  H   H38       1.0  0.9362389097333974  0.4594260744959653  0.6024416585730918  1.0000
  H   H39       1.0  0.5637599803067914  0.9594251785236948  0.1024406090812633  1.0000
  H   H40       1.0  0.06375494705391561  0.5405783759903571  0.3975599907531375  1.0000
  H   H41       1.0  0.3332704990706787  0.8316276322222862  0.9127169899672509  1.0000
  H   H42       1.0  0.8332667938177211  0.6683771286095066  0.5872826252237999  1.0000
  H   H43       1.0  0.6667301798133211  0.1683787195605717  0.0872842723971345  1.0000
  H   H44       1.0  0.16672803755851365  0.3316272676871391  0.412716790667048  1.0000
  H   H45       1.0  0.6966613906803972  0.7163378264923494  0.9904961839040851  1.0000
  H   H46       1.0  0.1966566736193442  0.7836625794502579  0.5095024863658041  1.0000
  H   H47       1.0  0.30334318656043996  0.28366271298486356  0.009501772467068298  1.0000
  H   H48       1.0  0.8033391323538838  0.21633512433619018  0.49049672047811316  1.0000
  H   H49       1.0  0.3015813920523982  0.4915585150355211  0.9433269655119646  1.0000
  H   H50       1.0  0.8015812284606483  0.0084452408157603  0.5566708563943976  1.0000
  H   H51       1.0  0.6984192868456988  0.5084429588454996  0.056670127350365404  1.0000
  H   H52       1.0  0.19841945043021522  0.9915582102362775  0.4433289763175736  1.0000
  H   H53       1.0  0.32877613428880187  0.598818732710285  0.8859359941762506  1.0000
  H   H54       1.0  0.8287754792714709  0.9011831312589891  0.614061747890915  1.0000
  H   H55       1.0  0.6712274683615506  0.40118467498649585  0.1140620517866395  1.0000
  H   H56       1.0  0.17122519962197913  0.09881841848535088  0.3859384717804629  1.0000
  H   H57       1.0  0.24727914927081676  0.6536294398807171  0.9526136569076087  1.0000
  H   H58       1.0  0.7472710716359785  0.8463727233687449  0.5473854835508263  1.0000
  H   H59       1.0  0.7527273771382993  0.3463720773412006  0.0473852227006546  1.0000
  H   H60       1.0  0.2527227851559104  0.1536297932970356  0.4526152126737983  1.0000
  C   C1        1.0  0.9459544268557921  0.2253944173304205  0.9584783227681868  1.0000
  C   C2        1.0  0.4459525710456376  0.27460509586058623  0.5415215097904849  1.0000
  C   C3        1.0  0.05404332829034789  0.7746041883374134  0.041518680503791906  1.0000
  C   C4        1.0  0.554041285745157  0.7253946501257714  0.4584831170257999  1.0000
  C   C5        1.0  0.8929641099012003  0.33963965597025236  0.930082092604529  1.0000
  C   C6        1.0  0.3929625502867183  0.16036196448823858  0.5699187309809517  1.0000
  C   C7        1.0  0.10703949275439582  0.6603618070683622  0.06991455356975251  1.0000
  C   C8        1.0  0.6070371540262373  0.8396339246850739  0.4300844363170242  1.0000
  C   C9        1.0  0.7688672475050495  0.3342611681812144  0.9035393968074885  1.0000
  C   C10       1.0  0.2688733900961608  0.16574177117957592  0.5964597587074323  1.0000
  C   C11       1.0  0.23112953304313777  0.6657450752318539  0.0964573986882229  1.0000
  C   C12       1.0  0.7311292379870623  0.8342492509247349  0.4035396857744545  1.0000
  C   C13       1.0  0.7185843441444816  0.4383286967396599  0.876584315160109  1.0000
  C   C14       1.0  0.2185819821167314  0.0616830443873511  0.6234164851806696  1.0000
  C   C15       1.0  0.2814192584862951  0.5616843258717735  0.12341626287581423  1.0000
  C   C16       1.0  0.7814186967861119  0.9383118453612412  0.3765848655051443  1.0000
  C   C17       1.0  0.7930259328489914  0.549872524432871  0.8761664867530001  1.0000
  C   C18       1.0  0.2930203344023282  0.950134301950719  0.6238341103434735  1.0000
  C   C19       1.0  0.20698156812682106  0.450138596864491  0.12383447824093002  1.0000
  C   C20       1.0  0.706983268260302  0.04985961004520329  0.3761663171034755  1.0000
  C   C21       1.0  0.9153529406153423  0.5591157839769777  0.903236972569637  1.0000
  C   C22       1.0  0.41534550180481483  0.9408858724843155  0.5967638343457722  1.0000
  C   C23       1.0  0.0846545603685982  0.4408905569571004  0.09676384310530038  1.0000
  C   C24       1.0  0.584658100851911  0.05910999500738969  0.4032384395767962  1.0000
  C   C25       1.0  0.9650345286206844  0.4531123351595951  0.9296642573095751  1.0000
  C   C26       1.0  0.46503236888200655  0.046888158352693714  0.5703391649533813  1.0000
  C   C27       1.0  0.034967124851149806  0.5468911917541704  0.0703387022110888  1.0000
  C   C28       1.0  0.5349653862591311  0.9531095996186563  0.4296622753248656  1.0000
  C   C29       1.0  0.7045413399170357  0.6342968775197592  0.7905671853078928  1.0000
  C   C30       1.0  0.20453479911781608  0.8657092932572893  0.709433891940769  1.0000
  C   C31       1.0  0.2954622627166898  0.3657151673437866  0.2094324694902099  1.0000
  C   C32       1.0  0.7954619814487885  0.13428270660448047  0.2905664757810271  1.0000
  C   C33       1.0  0.7699761955680272  0.5460093070679334  0.7511155602034094  1.0000
  C   C34       1.0  0.26997314686135354  0.9539947373773144  0.7488854104845188  1.0000
  C   C35       1.0  0.2300264324868949  0.4539979791091538  0.24888483865006353  1.0000
  C   C36       1.0  0.7300246082876072  0.04599917462817161  0.2511150169645262  1.0000
  C   C37       1.0  0.728447268229111  0.528174757515913  0.692122997426445  1.0000
  C   C38       1.0  0.22844496466571232  0.9718217851165816  0.8078782107601868  1.0000
  C   C39       1.0  0.2715504868999758  0.47182970380164574  0.3078790985854027  1.0000
  C   C40       1.0  0.7715479175627208  0.028169215328446705  0.19212034035117403  1.0000
  C   C41       1.0  0.622549686191661  0.5969542100498586  0.6715272853029292  1.0000
  C   C42       1.0  0.12255339836685414  0.9030340853794953  0.82847417658553  1.0000
  C   C43       1.0  0.3774490435276192  0.4030483174455668  0.32847385760695863  1.0000
  C   C44       1.0  0.8774492297323276  0.09694831039566759  0.171524105748162  1.0000
  C   C45       1.0  0.558777471752812  0.6858825433400497  0.7115189206908354  1.0000
  C   C46       1.0  0.05877672092852751  0.8141097742882479  0.7884822596093386  1.0000
  C   C47       1.0  0.4412222325445541  0.3141228957222211  0.2884840985581292  1.0000
  C   C48       1.0  0.941218110478964  0.18587738018772626  0.21151527867211678  1.0000
  C   C49       1.0  0.5999058407976605  0.7056276268324595  0.7708197769607564  1.0000
  C   C50       1.0  0.0999024028739726  0.7943740627177148  0.7291794391076536  1.0000
  C   C51       1.0  0.40009678725726155  0.29437965934462795  0.22918062189271646  1.0000
  C   C52       1.0  0.9000934031096719  0.2056178937951856  0.2708191418664612  1.0000
  C   C53       1.0  0.5784771098791452  0.5711953105963017  0.6081352654364309  1.0000
  C   C54       1.0  0.07847957906730578  0.928795041238352  0.8918662877229195  1.0000
  C   C55       1.0  0.4215196706633719  0.4288100959578927  0.3918664137525525  1.0000
  C   C56       1.0  0.9215142777601102  0.07118923418362749  0.1081307142804846  1.0000
  C   C57       1.0  0.6193676111933684  0.9877836668897262  0.9350463572957253  1.0000
  C   C58       1.0  0.1193616834514231  0.5122160576547401  0.5649532318041466  1.0000
  C   C59       1.0  0.3806379406324183  0.012216883423512598  0.0649520457620838  1.0000
  C   C60       1.0  0.8806311987558147  0.4877855137775952  0.4350478812440315  1.0000
  C   C61       1.0  0.49143284518674346  0.9659637616744162  0.9172893243649866  1.0000
  C   C62       1.0  0.991431547065993  0.5340347450219554  0.5827099984452389  1.0000
  C   C63       1.0  0.508567833715567  0.034034854826245506  0.0827081255929585  1.0000
  C   C64       1.0  0.008566208067016102  0.4659677933126786  0.4172915911520079  1.0000
  C   C65       1.0  0.4342004871378577  0.8484333162705721  0.9259998785408144  1.0000
  C   C66       1.0  0.9341968759003549  0.6515682134671367  0.5739982347619517  1.0000
  C   C67       1.0  0.5658011663474766  0.1515672015361957  0.0739971844573688  1.0000
  C   C68       1.0  0.06579893006046689  0.3484352701057246  0.4260029380127861  1.0000
  C   C69       1.0  0.5068179506347832  0.7554231645243591  0.9529637937986308  1.0000
  C   C70       1.0  0.006813254558139201  0.7445740493590164  0.547035339574471  1.0000
  C   C71       1.0  0.49318467743579925  0.2445764297210076  0.047034579396431304  1.0000
  C   C72       1.0  0.9931825514114722  0.25542464301294376  0.4529652371942633  1.0000
  C   C73       1.0  0.6357760188174879  0.7857104435112205  0.9698203429910068  1.0000
  C   C74       1.0  0.13577147170190776  0.7142882712504742  0.5301792045010387  1.0000
  C   C75       1.0  0.36422855842202745  0.21429011764122657  0.030178506754154504  1.0000
  C   C76       1.0  0.864221410513828  0.28570944337838  0.4698204490309266  1.0000
  C   C77       1.0  0.45300640164560235  0.6286818113033448  0.9628395001597808  1.0000
  C   C78       1.0  0.9530031438862566  0.8713187441562479  0.5371603565676467  1.0000
  C   C79       1.0  0.54699525183117  0.3713207053496745  0.0371611960620513  1.0000
  C   C80       1.0  0.0469955858366404  0.1286827947536651  0.46283941641742393  1.0000
  C   C81       1.0  0.3253630801182226  0.5898670895237788  0.9345243999052927  1.0000
  C   C82       1.0  0.8253586374764766  0.9101348181361213  0.5654746846669809  1.0000
  C   C83       1.0  0.6746414971242415  0.41013249388078066  0.0654735266020623  1.0000
  C   C84       1.0  0.1746391176601421  0.0898667316130002  0.4345255350054416  1.0000
  N   N1        1.0  0.6898614478158862  0.8985462583055149  0.9610287619521928  1.0000
  N   N2        1.0  0.18985919804194404  0.6014494220401403  0.5389711039255687  1.0000
  N   N3        1.0  0.3101392310841362  0.10145332510542461  0.03896916455655491  1.0000
  N   N4        1.0  0.8101366079276671  0.39854927033181997  0.46102947284316537  1.0000
  N   N5        1.0  0.5245459251178916  0.5594650047855436  0.9960018936873639  1.0000
  N   N6        1.0  0.0245436283613998  0.9405369205925282  0.5039969296289115  1.0000
  N   N7        1.0  0.4754557283638263  0.4405365016067293  0.003996539235636501  1.0000
  N   N8        1.0  0.975455101362826  0.059464596642151  0.4960019499821442  1.0000
  O   O1        1.0  0.8701678830930887  0.12909093505704314  0.9600640377830629  1.0000
  O   O2        1.0  0.37015694176437114  0.3709069574178159  0.5399375760399039  1.0000
  O   O3        1.0  0.12984254166105558  0.870908680850796  0.03993522878321439  1.0000
  O   O4        1.0  0.6298369150299762  0.6290899420258143  0.46006785455900007  1.0000
  O   O5        1.0  0.061499427264010406  0.23149335315832073  0.9793667254036152  1.0000
  O   O6        1.0  0.5614936338610619  0.26850931974141184  0.5206329953524431  1.0000
  O   O7        1.0  0.938502226213728  0.7685082182596614  0.0206343876414223  1.0000
  O   O8        1.0  0.43850022292919993  0.7314941529970226  0.47936773073598005  1.0000
  O   O9        1.0  0.7431172673614768  0.6554103191370401  0.8496045892109904  1.0000
  O   O10       1.0  0.243109017832893  0.8445966164233881  0.6503938101711597  1.0000
  O   O11       1.0  0.25689315737581353  0.34460072629221367  0.15039324897284703  1.0000
  O   O12       1.0  0.7568926356633909  0.1553944273577557  0.3496065276850899  1.0000
  O   O13       1.0  0.6554266504653796  0.5057258275952918  0.5730385841347783  1.0000
  O   O14       1.0  0.1554326998558935  0.9942690852391108  0.9269644033303237  1.0000
  O   O15       1.0  0.34456915549935735  0.4942757329946445  0.4269620822253444  1.0000
  O   O16       1.0  0.8445670044655529  0.005722947130728099  0.0730373044514394  1.0000
  O   O17       1.0  0.468362527124036  0.6157584691558853  0.5936765426302912  1.0000
  O   O18       1.0  0.9683669314688217  0.8842344524720857  0.9063257443156303  1.0000
  O   O19       1.0  0.5316352280122204  0.38424215703343384  0.4063249872393513  1.0000
  O   O20       1.0  0.03163179826618289  0.11576224104884147  0.09367119922841032  1.0000
