data_image0
_chemical_formula_structural       LiAlH16C28N4O4
_chemical_formula_sum              "Li1 Al1 H16 C28 N4 O4"
_cell_length_a       6.905428169113151
_cell_length_b       6.907856242424242
_cell_length_c       13.669218355679144
_cell_angle_alpha    104.67670828785322
_cell_angle_beta     104.64531815913982
_cell_angle_gamma    89.96347112716305

_space_group_name_H-M_alt    "P 1"
_space_group_IT_number       1

loop_
  _space_group_symop_operation_xyz
  'x, y, z'

loop_
  _atom_site_type_symbol
  _atom_site_label
  _atom_site_symmetry_multiplicity
  _atom_site_fract_x
  _atom_site_fract_y
  _atom_site_fract_z
  _atom_site_occupancy
  Li  Li1       1.0  0.9998351016067487  4.111897399639936e-05  0.9999907006958466  1.0000
  Al  Al1       1.0  0.2503459324608812  0.7499722576448634  0.4999935862166467  1.0000
  H   H1        1.0  0.5806944433921543  0.8380118008848354  0.7802519469393799  1.0000
  H   H2        1.0  0.19757021153181137  0.9422571393845729  0.7803737407187936  1.0000
  H   H3        1.0  0.05729288367545847  0.41868419522496936  0.21948891712467136  1.0000
  H   H4        1.0  0.1619200221802117  0.8015441823506322  0.22004639621013672  1.0000
  H   H5        1.0  0.6881027086712308  0.6313768408459242  0.9061972423398359  1.0000
  H   H6        1.0  0.2158529448985433  0.2750089853201203  0.906087150339502  1.0000
  H   H7        1.0  0.7246007692440486  0.31124251167994293  0.09383735997921146  1.0000
  H   H8        1.0  0.3681821417746177  0.7826165204442501  0.09392002579530613  1.0000
  H   H9        1.0  0.6041421813630946  0.09913327768607869  0.6475519815083217  1.0000
  H   H10       1.0  0.04537181751346248  0.5481329600610819  0.6473419585048177  1.0000
  H   H11       1.0  0.4517010860539088  0.3971872161968406  0.35267590754450145  1.0000
  H   H12       1.0  0.9010670371621217  0.9550119497305757  0.35217101891522856  1.0000
  H   H13       1.0  0.49393441332364324  0.30751892849289675  0.5224391521121703  1.0000
  H   H14       1.0  0.030997343360489486  0.21429246212190378  0.5223404017868418  1.0000
  H   H15       1.0  0.7857323234629162  0.5076775983369545  0.47768393110820273  1.0000
  H   H16       1.0  0.6932135131676985  0.9703485871239009  0.477565706586418  1.0000
  C   C1        1.0  0.5330906078249384  0.587108117678561  0.6430703814756596  1.0000
  C   C2        1.0  0.1100389350351705  0.055490786084270424  0.6430340091955813  1.0000
  C   C3        1.0  0.9442982920327764  0.46710165627706596  0.3568967764413883  1.0000
  C   C4        1.0  0.41305826697990966  0.890322230302672  0.35713861358392757  1.0000
  C   C5        1.0  0.5864367064919095  0.6765653166767578  0.7519420588710304  1.0000
  C   C6        1.0  0.16416005044719376  0.07522133398712329  0.751910379807299  1.0000
  C   C7        1.0  0.9244250775395814  0.4131684981955033  0.24798887533064828  1.0000
  C   C8        1.0  0.3234050312034782  0.8353894771243945  0.24827689877372447  1.0000
  C   C9        1.0  0.6455788769519086  0.5610781775699323  0.8221870038347134  1.0000
  C   C10       1.0  0.17529630683453226  0.26112680930362586  0.8220822536824811  1.0000
  C   C11       1.0  0.7385258135178033  0.35407730852303126  0.17784750038953226  1.0000
  C   C12       1.0  0.4387215460249719  0.823834698496249  0.17789420683319426  1.0000
  C   C13       1.0  0.6537561920191803  0.35209169506180166  0.784892517719463  1.0000
  C   C14       1.0  0.1310148975324097  0.4327794309995596  0.7846868693846076  1.0000
  C   C15       1.0  0.5669652275765884  0.3464419752219996  0.2152968189217717  1.0000
  C   C16       1.0  0.647857500871936  0.8684391890537738  0.21502102239655577  1.0000
  C   C17       1.0  0.5991643672005081  0.2609985893053519  0.6761831643918157  1.0000
  C   C18       1.0  0.0781537879140188  0.41488917701787653  0.6759901837223694  1.0000
  C   C19       1.0  0.5849643451144999  0.4016984521838723  0.3240111536295629  1.0000
  C   C20       1.0  0.739102152977871  0.9220755548202105  0.32369517466359093  1.0000
  C   C21       1.0  0.5395281223351205  0.3775542232932025  0.6064007500836865  1.0000
  C   C22       1.0  0.0680890437851644  0.2283485123657201  0.6062723261375922  1.0000
  C   C23       1.0  0.7715183552802856  0.4614197845707011  0.3937056085037866  1.0000
  C   C24       1.0  0.6227552318611276  0.9325636746750164  0.393650612707141  1.0000
  C   C25       1.0  0.724324048254374  0.2360457108811929  0.8564689126171812  1.0000
  C   C26       1.0  0.13179433502466506  0.6205381641395746  0.8561915989682092  1.0000
  C   C27       1.0  0.3791813972171596  0.27587913465244174  0.14378940581266866  1.0000
  C   C28       1.0  0.7639389453139246  0.8675895609334389  0.14343518338755956  1.0000
  N   N1        1.0  0.7882552924013168  0.1404746328459723  0.915342931333832  1.0000
  N   N2        1.0  0.12644809716352506  0.7749186751858446  0.9151350357961262  1.0000
  N   N3        1.0  0.2247615149223279  0.211934202696149  0.08482830935692928  1.0000
  N   N4        1.0  0.859572432981686  0.8729335799939621  0.0846163520245966  1.0000
  O   O1        1.0  0.4809232388803579  0.7018501448662062  0.5763058449670169  1.0000
  O   O2        1.0  0.09589664612677498  0.8737651420739495  0.576404335497223  1.0000
  O   O3        1.0  0.126058316406187  0.5195056396081058  0.423473617467117  1.0000
  O   O4        1.0  0.29838567031404745  0.9047120083792919  0.4239639621695162  1.0000
