data_image0
_chemical_formula_structural       Zn4H31C42SN9O19
_chemical_formula_sum              "Zn4 H31 C42 S1 N9 O19"
_cell_length_a       9.656671781979703
_cell_length_b       11.047737518125444
_cell_length_c       22.12545282776113
_cell_angle_alpha    92.33725048213765
_cell_angle_beta     89.08124951145555
_cell_angle_gamma    88.91172011180649

_space_group_name_H-M_alt    "P 1"
_space_group_IT_number       1

loop_
  _space_group_symop_operation_xyz
  'x, y, z'

loop_
  _atom_site_type_symbol
  _atom_site_label
  _atom_site_symmetry_multiplicity
  _atom_site_fract_x
  _atom_site_fract_y
  _atom_site_fract_z
  _atom_site_occupancy
  Zn  Zn1       1.0  0.6414353496851106  0.5078290289013978  0.500782632855227  1.0000
  Zn  Zn2       1.0  0.35403405966677326  0.5157772993519175  0.49549939271808807  1.0000
  Zn  Zn3       1.0  0.3569076527894666  0.5077011073545705  0.003308473479087601  1.0000
  Zn  Zn4       1.0  0.6443643320979859  0.5045934415820527  0.9986406454733086  1.0000
  H   H1        1.0  0.11653240093630761  0.6810571844015529  0.5441727234563558  1.0000
  H   H2        1.0  0.1467364065247665  0.3504451611778592  0.4476523901643503  1.0000
  H   H3        1.0  0.8541237815427538  0.6654989006149136  0.5469747899380693  1.0000
  H   H4        1.0  0.7193288995011786  0.8982912686363206  0.5007335783293811  1.0000
  H   H5        1.0  0.27499471628799915  0.8941419050068691  0.5073022426077216  1.0000
  H   H6        1.0  0.708922315410547  0.12457276957123041  0.49937806790643446  1.0000
  H   H7        1.0  0.2777984621129832  0.4763237378985892  0.81208851045389  1.0000
  H   H8        1.0  0.8132437315082016  0.5904495375036731  0.7996606213548887  1.0000
  H   H9        1.0  0.8300727469775068  0.4298765792583481  0.7962695712433216  1.0000
  H   H10       1.0  0.8146715298822756  0.42839530578979174  0.6832458283934599  1.0000
  H   H11       1.0  0.800920866898558  0.5892225909561688  0.6863687345131382  1.0000
  H   H12       1.0  0.28435521854770945  0.49711904316885125  0.1955702831273811  1.0000
  H   H13       1.0  0.7279610253861933  0.508816229748824  0.18913616244436332  1.0000
  H   H14       1.0  0.2919274566595291  0.4909683883704831  0.309214320147106  1.0000
  H   H15       1.0  0.8757469053671728  0.6304270832316519  0.9328150950467632  1.0000
  H   H16       1.0  0.8570796408985117  0.37355388945704965  0.06456763948720833  1.0000
  H   H17       1.0  0.13986440827705587  0.626534324021428  0.9383400040407892  1.0000
  H   H18       1.0  0.2718961723725855  0.901525205368536  0.0029354664310048025  1.0000
  H   H19       1.0  0.715616647408858  0.8762599591483492  0.0019467823898225017  1.0000
  H   H20       1.0  0.28594254771579847  0.1284395519924999  0.0039992269758855  1.0000
  H   H21       1.0  0.7681628895967167  0.2996846927485848  0.4527286903306731  1.0000
  H   H22       1.0  0.9318490197801523  0.24718403160322566  0.424760152398882  1.0000
  H   H23       1.0  0.23632545048459974  0.21897642887795854  0.5282446410305894  1.0000
  H   H24       1.0  0.1567422491350072  0.0809058358659343  0.5303737026723709  1.0000
  H   H25       1.0  0.7639679304304751  0.525098168471601  0.3521542598778993  1.0000
  H   H26       1.0  0.847995863436779  0.5322451491031333  0.28190850376611826  1.0000
  H   H27       1.0  0.23821423158292987  0.3201813688908715  0.062076592834806404  1.0000
  H   H28       1.0  0.07855795103878191  0.2795120518359225  0.0936801353995236  1.0000
  H   H29       1.0  0.761216657276229  0.19880139237207572  0.988499618949497  1.0000
  H   H30       1.0  0.8418700332438505  0.05651515498193761  0.987739438050305  1.0000
  H   H31       1.0  0.2563883102888838  0.5857100047814612  0.6272449260171911  1.0000
  C   C1        1.0  0.4982765730456223  0.7475137962258459  0.5022079871195544  1.0000
  C   C2        1.0  0.4889521879142222  0.5079377873646322  0.6178802904392455  1.0000
  C   C3        1.0  0.49030362680802847  0.272365641959702  0.5011766370942468  1.0000
  C   C4        1.0  0.506737404334018  0.500264851295981  0.3802734139808663  1.0000
  C   C5        1.0  0.4902377010240287  0.7414135425151755  0.0017014166147717002  1.0000
  C   C6        1.0  0.5040158802308099  0.4950451001697474  0.8831775317119509  1.0000
  C   C7        1.0  0.5074042449029648  0.2648109009352098  0.0025653150583764012  1.0000
  C   C8        1.0  0.5057986113361538  0.5062784173082236  0.1187706867691887  1.0000
  C   C9        1.0  0.9338946069977754  0.4099960095239937  0.47123796263068135  1.0000
  C   C10       1.0  0.06315834045944511  0.6047131732880474  0.5234317457288427  1.0000
  C   C11       1.0  0.0803881633935006  0.4208585947538453  0.4695863208302526  1.0000
  C   C12       1.0  0.9207106324770679  0.5954093996530361  0.5251098721056877  1.0000
  C   C13       1.0  0.4874087928467787  0.1384156775121141  0.5034353286185862  1.0000
  C   C14       1.0  0.4963961322747464  0.8834389978523804  0.5035046295076171  1.0000
  C   C15       1.0  0.3616606845300793  0.07365803512940522  0.5082322705448163  1.0000
  C   C16       1.0  0.6206489920499578  0.947689088314995  0.5018716971786716  1.0000
  C   C17       1.0  0.3699581209367722  0.9459692324774025  0.5062950562775441  1.0000
  C   C18       1.0  0.6140553721503679  0.0729135330611754  0.5009644273980527  1.0000
  C   C19       1.0  0.4997055782777621  0.4916159920281373  0.8156407435184008  1.0000
  C   C20       1.0  0.4844189954486495  0.49544163978406897  0.6848140559571263  1.0000
  C   C21       1.0  0.6172170521085861  0.4978581969615234  0.77892748746347  1.0000
  C   C22       1.0  0.36410749385090213  0.4859091939204986  0.7225859606449845  1.0000
  C   C23       1.0  0.6089844369832492  0.4983616811517281  0.7157848022730279  1.0000
  C   C24       1.0  0.3726709204874298  0.4836471110692173  0.7853904393699764  1.0000
  C   C25       1.0  0.7733531916468268  0.5070648340127876  0.7782915442891465  1.0000
  C   C26       1.0  0.7646524411645856  0.5067994318960559  0.7071549043610404  1.0000
  C   C27       1.0  0.5124979569536734  0.4990235993752777  0.31330818035227287  1.0000
  C   C28       1.0  0.5069806662371691  0.5033163263375187  0.18644865175659933  1.0000
  C   C29       1.0  0.6393210761754987  0.5046596821971504  0.2797014893058432  1.0000
  C   C30       1.0  0.3818255310134547  0.49825199225272604  0.2196186290935316  1.0000
  C   C31       1.0  0.6326318811577069  0.5055924541869531  0.21611109789811422  1.0000
  C   C32       1.0  0.38662977946412275  0.4951694992725352  0.28202149538702775  1.0000
  C   C33       1.0  0.0687300541014793  0.41941980082930297  0.0366304641358326  1.0000
  C   C34       1.0  0.9324771151695401  0.5729180903836593  0.9630061543814747  1.0000
  C   C35       1.0  0.9217497557669105  0.4280910802067126  0.03573029861286871  1.0000
  C   C36       1.0  0.0754860173522331  0.5690381731592283  0.9656084145451088  1.0000
  C   C37       1.0  0.5076272615901517  0.1307437159103912  0.0031385266114370004  1.0000
  C   C38       1.0  0.4942044852660176  0.8769910647821321  0.002471800510683402  1.0000
  C   C39       1.0  0.6325107573507012  0.059848911660616004  0.001639185222373401  1.0000
  C   C40       1.0  0.3709711600767492  0.946855593219489  0.003191179291292203  1.0000
  C   C41       1.0  0.6219282633499007  0.9329804763776438  0.0021548116614127  1.0000
  C   C42       1.0  0.3796097911290204  0.07184969719669002  0.003983018303550501  1.0000
  S   S1        1.0  0.1921040711552138  0.4713794809318443  0.6937857655316932  1.0000
  N   N1        1.0  0.8558558382412825  0.4999071011143598  0.49938346957561924  1.0000
  N   N2        1.0  0.14124462810546853  0.5155481280642676  0.4954139402867668  1.0000
  N   N3        1.0  0.1432824521954785  0.4943972076444469  0.0021591232002933012  1.0000
  N   N4        1.0  0.8576911958606033  0.5024204735410435  0.9993823029823262  1.0000
  N   N5        1.0  0.872478853436803  0.31349951787073854  0.44539252307969696  1.0000
  N   N6        1.0  0.2334907416912628  0.13080955200813804  0.5128134202951955  1.0000
  N   N7        1.0  0.7662250028345384  0.5052449983211673  0.3067859702949534  1.0000
  N   N8        1.0  0.13491865528539648  0.3396582126598419  0.0709597472875743  1.0000
  N   N9        1.0  0.7612724663993832  0.11132248788481293  0.0015773465020956006  1.0000
  O   O1        1.0  0.6123058803134073  0.6930834446035875  0.5132385980995906  1.0000
  O   O2        1.0  0.3845551398094785  0.6958508658597821  0.48978534239102345  1.0000
  O   O3        1.0  0.38171149356031003  0.5483013843392612  0.5905050266433493  1.0000
  O   O4        1.0  0.6028620606533936  0.4813191954308991  0.5910197890899695  1.0000
  O   O5        1.0  0.3788943446955457  0.33413809481258744  0.5129326836202567  1.0000
  O   O6        1.0  0.6050958997468572  0.32162670435563  0.4873063827785344  1.0000
  O   O7        1.0  0.6183610746449802  0.5226704444613333  0.40945640245721643  1.0000
  O   O8        1.0  0.3905190429787809  0.48024498987248904  0.40604533851185215  1.0000
  O   O9        1.0  0.3730652820391498  0.6916357062314732  0.9950391733414818  1.0000
  O   O10       1.0  0.6057365523361895  0.6857281001091879  0.0077728425209074034  1.0000
  O   O11       1.0  0.6218350669236371  0.512560557997226  0.9067127966283338  1.0000
  O   O12       1.0  0.3901841950263076  0.4809298413890631  0.9117818933122804  1.0000
  O   O13       1.0  0.6202327438962102  0.3177653644279204  0.9895330635306223  1.0000
  O   O14       1.0  0.393137687321385  0.32215012295544915  0.014720936021525702  1.0000
  O   O15       1.0  0.3897440897242745  0.5281407921589578  0.0944115672304164  1.0000
  O   O16       1.0  0.620666350450243  0.4864742659573479  0.0904907487518329  1.0000
  O   O17       1.0  0.17392787401456644  0.5920041675919024  0.6583582617459385  1.0000
  O   O18       1.0  0.0944404290403824  0.4790806137150554  0.7436747839857959  1.0000
  O   O19       1.0  0.1905835229417789  0.3680190593973478  0.651572878372022  1.0000
