data_image0
_chemical_formula_structural       Zn2H28C32N12O10
_chemical_formula_sum              "Zn2 H28 C32 N12 O10"
_cell_length_a       8.119331503353116
_cell_length_b       10.194816155338518
_cell_length_c       10.194791833315852
_cell_angle_alpha    99.31899319709159
_cell_angle_beta     91.57399248421031
_cell_angle_gamma    91.5739005691533

_space_group_name_H-M_alt    "P 1"
_space_group_IT_number       1

loop_
  _space_group_symop_operation_xyz
  'x, y, z'

loop_
  _atom_site_type_symbol
  _atom_site_label
  _atom_site_symmetry_multiplicity
  _atom_site_fract_x
  _atom_site_fract_y
  _atom_site_fract_z
  _atom_site_occupancy
  Zn  Zn1       1.0  0.24999959524947704  0.36888754788525097  0.6311146453895589  1.0000
  Zn  Zn2       1.0  0.749999457085856  0.6311130066053111  0.3688874841513012  1.0000
  H   H1        1.0  0.3192376515604494  0.48903160582401756  0.4234528510412757  1.0000
  H   H2        1.0  0.18076201497920144  0.5765474933910469  0.5109701608146722  1.0000
  H   H3        1.0  0.6807625911899676  0.510967955543052  0.5765481599750188  1.0000
  H   H4        1.0  0.8192382277712155  0.42345206797602963  0.4890308502016225  1.0000
  H   H5        1.0  0.645219703105127  0.4824476728931729  0.9895733718697811  1.0000
  H   H6        1.0  0.85478000367236  0.010427141032550902  0.5175511421612455  1.0000
  H   H7        1.0  0.35478049451182153  0.5175508939688173  0.0104274715473451  1.0000
  H   H8        1.0  0.1452202463614825  0.9895724316065613  0.4824479090927055  1.0000
  H   H9        1.0  0.6752585007946125  0.32664773214012405  0.8871621472424707  1.0000
  H   H10       1.0  0.8247410707204493  0.11283880519894042  0.6733525881769253  1.0000
  H   H11       1.0  0.32474056246586974  0.6733528392584988  0.1128370426548813  1.0000
  H   H12       1.0  0.17525799618174176  0.8871617718357003  0.3266456218392548  1.0000
  H   H13       1.0  0.2871024628629044  0.6924324614450088  0.7821427205106204  1.0000
  H   H14       1.0  0.21289621225707123  0.21785663788710255  0.3075680433477572  1.0000
  H   H15       1.0  0.7128965516223927  0.30756710981250995  0.2178572816687279  1.0000
  H   H16       1.0  0.7871052209084297  0.782141930356481  0.6924318491439649  1.0000
  H   H17       1.0  0.22670113998889718  0.8943019931568302  0.9446575752065627  1.0000
  H   H18       1.0  0.2732966739884617  0.05534185913013802  0.1056974608019274  1.0000
  H   H19       1.0  0.7732991100449454  0.10569757948227486  0.05534147604738851  1.0000
  H   H20       1.0  0.7267035272702032  0.94465671336787  0.89430240273402  1.0000
  H   H21       1.0  0.976225056778297  0.9045838979838838  0.07859137573673546  1.0000
  H   H22       1.0  0.5237745312625535  0.9214093521514004  0.09541452707105691  1.0000
  H   H23       1.0  0.0237764215206724  0.09541566476477933  0.9214086843541551  1.0000
  H   H24       1.0  0.47622699216988446  0.07859120510234868  0.904585700619009  1.0000
  H   H25       1.0  0.7669531466704952  0.7158141370882591  0.04861748716229642  1.0000
  H   H26       1.0  0.7330447419527176  0.9513842137421166  0.2841856081220655  1.0000
  H   H27       1.0  0.2330483731202264  0.28418641452947213  0.9513837204089413  1.0000
  H   H28       1.0  0.266954404291269  0.04861833539462171  0.7158158767359666  1.0000
  C   C1        1.0  0.5346080376597584  0.4612826857054061  0.790021076571918  1.0000
  C   C2        1.0  0.9653905725616523  0.20997928136107907  0.5387155962627759  1.0000
  C   C3        1.0  0.46539225386584343  0.5387178758027673  0.2099791221623803  1.0000
  C   C4        1.0  0.0346097677391342  0.7900222802881915  0.461283790189519  1.0000
  C   C5        1.0  0.6712712774199686  0.4340202504076773  0.8882858349930913  1.0000
  C   C6        1.0  0.8287295833082524  0.11171508600112652  0.5659790749314908  1.0000
  C   C7        1.0  0.3287302460124693  0.5659803068460648  0.11171439269697463  1.0000
  C   C8        1.0  0.17126948359394586  0.8882854910335068  0.43401913508468937  1.0000
  C   C9        1.0  0.9122108958044705  0.6011290170155875  0.8964493048927835  1.0000
  C   C10       1.0  0.5877879430090686  0.10355043018451938  0.39887066514390307  1.0000
  C   C11       1.0  0.08779057885277552  0.39887054009705036  0.10355173507928582  1.0000
  C   C12       1.0  0.4122110678345123  0.8964491354369816  0.601130316916617  1.0000
  C   C13       1.0  0.0589300158642416  0.5923166041628818  0.8242230567537588  1.0000
  C   C14       1.0  0.44106910791648346  0.17577769364677923  0.4076824923747253  1.0000
  C   C15       1.0  0.9410701817526996  0.40768196269910834  0.1757777866633603  1.0000
  C   C16       1.0  0.5589311836091184  0.8242228678613943  0.5923177063595659  1.0000
  C   C17       1.0  0.17522216783477518  0.6983742484093441  0.8391321233976115  1.0000
  C   C18       1.0  0.32477620644816346  0.16086685148575697  0.3016249306869909  1.0000
  C   C19       1.0  0.8247793104641943  0.3016253143393187  0.16086793669327903  1.0000
  C   C20       1.0  0.6752215761302978  0.839132724026186  0.6983750425365898  1.0000
  C   C21       1.0  0.13969281570366826  0.8096550199681407  0.9301914509157427  1.0000
  C   C22       1.0  0.3603069199376492  0.06981118722227822  0.1903443493397674  1.0000
  C   C23       1.0  0.8603086138201164  0.19034354263942532  0.0698094214571512  1.0000
  C   C24       1.0  0.6396946034947888  0.9301893700314708  0.8096558783502985  1.0000
  C   C25       1.0  0.9949436768964546  0.8160676676340021  0.0053846111922340855  1.0000
  C   C26       1.0  0.5050559981446127  0.9946172884651504  0.1839294369627211  1.0000
  C   C27       1.0  0.005059033309351001  0.18393189086022943  0.994615477854431  1.0000
  C   C28       1.0  0.49494562283820176  0.0053852690707998025  0.816069166163352  1.0000
  C   C29       1.0  0.8773158249747794  0.7127674855294687  0.9898604958305698  1.0000
  C   C30       1.0  0.6226856192677133  0.010142307233074603  0.2872300064992075  1.0000
  C   C31       1.0  0.12268436900044578  0.2872310756965035  0.010141327467721287  1.0000
  C   C32       1.0  0.3773171812050292  0.9898592402713221  0.7127704177458015  1.0000
  N   N1        1.0  0.8323426935648897  0.4806835918654713  0.8555749102642096  1.0000
  N   N2        1.0  0.6676572121056524  0.14442516475648406  0.5193157831180173  1.0000
  N   N3        1.0  0.1676575979607122  0.5193169696426951  0.1444252884700816  1.0000
  N   N4        1.0  0.3323443601019704  0.8555763926383622  0.4806836322900523  1.0000
  N   N5        1.0  0.9205330024007665  0.4033524177063443  0.7659975285527096  1.0000
  N   N6        1.0  0.5794670034673572  0.23400137532227927  0.5966475620416745  1.0000
  N   N7        1.0  0.07946729640826787  0.5966481550738648  0.23400071041924514  1.0000
  N   N8        1.0  0.4205332880582446  0.7659991861858945  0.4033526366926168  1.0000
  N   N9        1.0  0.05658626664908439  0.46838108511530413  0.746744569439656  1.0000
  N   N10       1.0  0.4434126610378399  0.253255580031322  0.5316200654664627  1.0000
  N   N11       1.0  0.9434127966113977  0.5316194862833188  0.25325462045769603  1.0000
  N   N12       1.0  0.5565876304877618  0.7467449814768515  0.4683801332678287  1.0000
  O   O1        1.0  0.5622693524808254  0.5376617966883758  0.708451633006554  1.0000
  O   O2        1.0  0.9377285244106588  0.29154790113486945  0.4623347052566373  1.0000
  O   O3        1.0  0.4377309390447763  0.4623387648197976  0.2915485657277443  1.0000
  O   O4        1.0  0.06227308564700001  0.7084546394930202  0.5376668375129441  1.0000
  O   O5        1.0  0.2499967125398612  0.49686962281975877  0.5031263826619039  1.0000
  O   O6        1.0  0.7500009382798966  0.5031269748129649  0.4968721078829859  1.0000
  O   O7        1.0  0.3965939274023498  0.40040838527454536  0.8033211385951944  1.0000
  O   O8        1.0  0.10340509153669328  0.19668003798116732  0.5995897893980526  1.0000
  O   O9        1.0  0.603405170066452  0.599593163721096  0.19668115854484108  1.0000
  O   O10       1.0  0.8965951548554327  0.8033195290219196  0.40041024173707024  1.0000
