data_image0
_chemical_formula_structural       Zn6H6C30O30
_chemical_formula_sum              "Zn6 H6 C30 O30"
_cell_length_a       6.791980175094981
_cell_length_b       15.234983009351843
_cell_length_c       15.2304995234987
_cell_angle_alpha    117.84411915723703
_cell_angle_beta     98.55446430576774
_cell_angle_gamma    98.5438097202003

_space_group_name_H-M_alt    "P 1"
_space_group_IT_number       1

loop_
  _space_group_symop_operation_xyz
  'x, y, z'

loop_
  _atom_site_type_symbol
  _atom_site_label
  _atom_site_symmetry_multiplicity
  _atom_site_fract_x
  _atom_site_fract_y
  _atom_site_fract_z
  _atom_site_occupancy
  Zn  Zn1       1.0  0.4701342700230385  0.2637537858033951  0.588066939792931  1.0000
  Zn  Zn2       1.0  0.2064221724328874  0.3244457152298992  0.7362128664672339  1.0000
  Zn  Zn3       1.0  0.8820577031819924  0.411792808171306  0.6755418231806728  1.0000
  Zn  Zn4       1.0  0.5298635819070654  0.7362456340647866  0.4119324530013912  1.0000
  Zn  Zn5       1.0  0.7935790376017025  0.675554471578714  0.26378842182448636  1.0000
  Zn  Zn6       1.0  0.117942740190145  0.5882058455463267  0.3244586982736878  1.0000
  H   H1        1.0  0.8104137718775418  0.438669807604697  0.46293459607470316  1.0000
  H   H2        1.0  0.37177170467096926  0.024307224164857595  0.5613583424066705  1.0000
  H   H3        1.0  0.3474656066835279  0.537085754361989  0.975757871641136  1.0000
  H   H4        1.0  0.18958931190752537  0.5613311456123498  0.5370665185661636  1.0000
  H   H5        1.0  0.6282276346457677  0.9756921959007983  0.43864180642701456  1.0000
  H   H6        1.0  0.6525359851659757  0.4629151991593759  0.02424445662371975  1.0000
  C   C1        1.0  0.2474088039421787  0.4374234905622316  0.6082405208768549  1.0000
  C   C2        1.0  0.8099057440924753  0.17082209049042524  0.5624554510844604  1.0000
  C   C3        1.0  0.6391107783193206  0.3916774193777001  0.8290785779454808  1.0000
  C   C4        1.0  0.7525927939725605  0.5625774622900792  0.3917591811701939  1.0000
  C   C5        1.0  0.19009283007811456  0.8291757963169956  0.4375432743574095  1.0000
  C   C6        1.0  0.3608897109910885  0.6083243003244121  0.170922721144251  1.0000
  C   C7        1.0  0.3812642229702591  0.46695861914531633  0.5528086169169342  1.0000
  C   C8        1.0  0.9142920745701701  0.0858688916385475  0.5330103619907903  1.0000
  C   C9        1.0  0.8284263312897834  0.44717279761783857  0.9140893749500804  1.0000
  C   C10       1.0  0.6187340107747588  0.5330415674356176  0.44719181585052326  1.0000
  C   C11       1.0  0.08570765262672336  0.914131294470799  0.466988200598223  1.0000
  C   C12       1.0  0.1715771403754403  0.5528289216428988  0.08591015344610749  1.0000
  C   C13       1.0  0.560941287589884  0.4308327671502994  0.5318273695011513  1.0000
  C   C14       1.0  0.1301363832477875  0.10103584643155018  0.5691281810492939  1.0000
  C   C15       1.0  0.029084317365871425  0.46818000379110447  0.8989788858676492  1.0000
  C   C16       1.0  0.4390588183892988  0.5691681860063298  0.4681735461698935  1.0000
  C   C17       1.0  0.8698618504972303  0.8989643401493836  0.4308722517181708  1.0000
  C   C18       1.0  0.9709172790325624  0.531820949228468  0.10102147273385505  1.0000
  C   C19       1.0  0.6732328918259611  0.4654976111003323  0.4792428524606933  1.0000
  C   C20       1.0  0.20773341706430407  0.0137704020116729  0.5344950042086225  1.0000
  C   C21       1.0  0.19397155431219906  0.5207741190591975  0.9862796761166593  1.0000
  C   C22       1.0  0.32676870305616745  0.5345033420865023  0.520758162695266  1.0000
  C   C23       1.0  0.7922663101325823  0.9862297840976736  0.46550355838039076  1.0000
  C   C24       1.0  0.8060308057160697  0.47922836738587904  0.013722762431108107  1.0000
  C   C25       1.0  0.23281559564068743  0.07929001917505468  0.3473920791119909  1.0000
  C   C26       1.0  0.15361224027599718  0.26852892272545864  0.9207246650449007  1.0000
  C   C27       1.0  0.8853975584996688  0.6520750933974637  0.7317086885017614  1.0000
  C   C28       1.0  0.7671671128586864  0.9206910021424975  0.6525924612587062  1.0000
  C   C29       1.0  0.8463965137313921  0.7314773953668166  0.07927539316984418  1.0000
  C   C30       1.0  0.11461344045895319  0.3479327589868434  0.2682968319164161  1.0000
  O   O1        1.0  0.2899453514433574  0.37281905063753135  0.6351890300940894  1.0000
  O   O2        1.0  0.9170384336645372  0.2623572470083388  0.6271796461444197  1.0000
  O   O3        1.0  0.6547762454842355  0.3647166115135009  0.7375114193566432  1.0000
  O   O4        1.0  0.7100506282525815  0.6271796026549624  0.3648098797966456  1.0000
  O   O5        1.0  0.08295566469938365  0.7376406407120442  0.3728227201694381  1.0000
  O   O6        1.0  0.345223477163728  0.6352835750976455  0.26248911289572174  1.0000
  O   O7        1.0  0.09385672735591298  0.4761303647039981  0.6274353509622586  1.0000
  O   O8        1.0  0.6177411279182438  0.1513277177777752  0.5235668210826177  1.0000
  O   O9        1.0  0.46640979524100595  0.3724417230986035  0.848607217067034  1.0000
  O   O10       1.0  0.9061433342013104  0.5238675223008897  0.372564130518967  1.0000
  O   O11       1.0  0.3822604730291203  0.8486732347399978  0.4764315678555278  1.0000
  O   O12       1.0  0.5335899274069507  0.6275584635125357  0.15139331518533092  1.0000
  O   O13       1.0  0.6315297685886563  0.3668019225726766  0.5595677955102687  1.0000
  O   O14       1.0  0.26482354671330915  0.19283685676784756  0.633094506666623  1.0000
  O   O15       1.0  0.0720102260698354  0.440470411843414  0.8071966797376149  1.0000
  O   O16       1.0  0.368471061147325  0.6331974973559228  0.44043179625386836  1.0000
  O   O17       1.0  0.7351772815063667  0.8071625633280063  0.3669057416519692  1.0000
  O   O18       1.0  0.9279909839647545  0.5595297749651992  0.19280460855411263  1.0000
  O   O19       1.0  0.22990972590985587  0.9948190347672322  0.2879567011946875  1.0000
  O   O20       1.0  0.2343890525508385  0.2933449607371514  0.005259517561611885  1.0000
  O   O21       1.0  0.9412939456716956  0.7116271763257983  0.7067377102215673  1.0000
  O   O22       1.0  0.7700679667791591  0.0051757846292375  0.712035914496397  1.0000
  O   O23       1.0  0.7656231115645581  0.7066651896109732  0.9947405875680886  1.0000
  O   O24       1.0  0.058724774093200004  0.2883753124587117  0.2932737013136091  1.0000
  O   O25       1.0  0.2332590695128971  0.16445548522074194  0.4054268938540204  1.0000
  O   O26       1.0  0.06956427710780128  0.24150425303459847  0.8354833391141483  1.0000
  O   O27       1.0  0.8284262712663377  0.5939867083185604  0.758857675747734  1.0000
  O   O28       1.0  0.7667286500349917  0.8355385691797963  0.5945712872483497  1.0000
  O   O29       1.0  0.9304414501228138  0.7584989993473172  0.16451705560431415  1.0000
  O   O30       1.0  0.17156859376002842  0.40601271249279597  0.24114545740349064  1.0000
