data_image0
_chemical_formula_structural       Zn2H56C40S4N20O16
_chemical_formula_sum              "Zn2 H56 C40 S4 N20 O16"
_cell_length_a       7.377559580012949
_cell_length_b       10.679120326280469
_cell_length_c       18.71143237298019
_cell_angle_alpha    91.70787193947918
_cell_angle_beta     90.00017039853587
_cell_angle_gamma    90.00012728793371

_space_group_name_H-M_alt    "P 1"
_space_group_IT_number       1

loop_
  _space_group_symop_operation_xyz
  'x, y, z'

loop_
  _atom_site_type_symbol
  _atom_site_label
  _atom_site_symmetry_multiplicity
  _atom_site_fract_x
  _atom_site_fract_y
  _atom_site_fract_z
  _atom_site_occupancy
  Zn  Zn1       1.0  0.3969594621192131  0.04819539555629151  0.7653474841976262  1.0000
  Zn  Zn2       1.0  0.8969575603840525  0.9518057540465538  0.23465537738835712  1.0000
  H   H1        1.0  0.028231298834164403  0.8546942830226246  0.9957701160497267  1.0000
  H   H2        1.0  0.5282331906096118  0.14530718781855972  0.004230181871761801  1.0000
  H   H3        1.0  0.8929831183290917  0.8752588895427923  0.9184726609294956  1.0000
  H   H4        1.0  0.3929800544740161  0.12474036779349976  0.0815291020211006  1.0000
  H   H5        1.0  0.9367996486993064  0.7207942335786799  0.9500835164093003  1.0000
  H   H6        1.0  0.43680226061193383  0.2792097964348628  0.0499199643194075  1.0000
  H   H7        1.0  0.6778358049903306  0.7682326365414485  0.8879482234142557  1.0000
  H   H8        1.0  0.17783331657785342  0.23177004774421317  0.1120554717964382  1.0000
  H   H9        1.0  0.2963967170625423  0.7137429334165974  0.9251790825566745  1.0000
  H   H10       1.0  0.7963982427833969  0.2862608101251922  0.0748188861372086  1.0000
  H   H11       1.0  0.32119964043936733  0.5982748587223057  0.7974385526113111  1.0000
  H   H12       1.0  0.8211984430563675  0.40172802462915774  0.20256264026689758  1.0000
  H   H13       1.0  0.5546793531832606  0.5953122322963368  0.8161690564241368  1.0000
  H   H14       1.0  0.05466983284804171  0.40468832569326463  0.1838296568999596  1.0000
  H   H15       1.0  0.48154162270190426  0.48741201293651665  0.9339525723431948  1.0000
  H   H16       1.0  0.9815410956439051  0.5125901906071846  0.0660487985677989  1.0000
  H   H17       1.0  0.4214616916532918  0.39891505756407514  0.8547895482510555  1.0000
  H   H18       1.0  0.9214512076017699  0.6010860944430761  0.1452101352810189  1.0000
  H   H19       1.0  0.900315200483547  0.42660723032373227  0.8535186582464434  1.0000
  H   H20       1.0  0.40031000231677893  0.5733910528122622  0.1464788247771622  1.0000
  H   H21       1.0  0.10114689283666677  0.396579463335307  0.8019584988561235  1.0000
  H   H22       1.0  0.6011476625269553  0.6034192771043934  0.1980386412335946  1.0000
  H   H23       1.0  0.020826601413112697  0.5545570958142534  0.8161132566966671  1.0000
  H   H24       1.0  0.5208254017462294  0.4454405975149883  0.1838853791301531  1.0000
  H   H25       1.0  0.17052699465273244  0.8330108356726101  0.1145609175983395  1.0000
  H   H26       1.0  0.6705261826073539  0.16699465345156742  0.8854433407473863  1.0000
  H   H27       1.0  0.31003958512156515  0.8576373800983818  0.1913105958242554  1.0000
  H   H28       1.0  0.8100299765704619  0.14236550993294372  0.8086927218950137  1.0000
  H   H29       1.0  0.27633507283425734  0.20079701871373606  0.5724593838838317  1.0000
  H   H30       1.0  0.7763599058669753  0.79918896101821  0.4275442046044873  1.0000
  H   H31       1.0  0.13917617516833053  0.18957793788158747  0.6504809117478061  1.0000
  H   H32       1.0  0.6392045159593849  0.8104040072274049  0.349516584315964  1.0000
  H   H33       1.0  0.15091317187904002  0.3343486697587679  0.6035889041531064  1.0000
  H   H34       1.0  0.6509264962153194  0.6656333985888596  0.3964176927793659  1.0000
  H   H35       1.0  0.9013186563184874  0.27926536076067526  0.6683893293737668  1.0000
  H   H36       1.0  0.4013410945909827  0.7207254234404702  0.3316075208920921  1.0000
  H   H37       1.0  0.5400581240587599  0.3325094050450233  0.6068510235710818  1.0000
  H   H38       1.0  0.0400754388934743  0.6674930215671682  0.3931493008381466  1.0000
  H   H39       1.0  0.5475721226278764  0.5052067410728044  0.711142743628109  1.0000
  H   H40       1.0  0.0475731794696799  0.4947984711171786  0.2888544198333348  1.0000
  H   H41       1.0  0.7853390406038584  0.4908898696245104  0.7030559711453321  1.0000
  H   H42       1.0  0.28534291584509935  0.5091082415230873  0.2969424443603401  1.0000
  H   H43       1.0  0.7581222882833104  0.5352175485285857  0.5701592200591747  1.0000
  H   H44       1.0  0.2581216123624444  0.4647767472078856  0.42983697529155057  1.0000
  H   H45       1.0  0.6781992544332311  0.6603734730502779  0.626266312149454  1.0000
  H   H46       1.0  0.1781923282320861  0.3396253970254223  0.3737314539880785  1.0000
  H   H47       1.0  0.14940632875643436  0.6084166269167426  0.6013368959995304  1.0000
  H   H48       1.0  0.6494038822792875  0.391585968798303  0.39866302376174184  1.0000
  H   H49       1.0  0.31704610368601754  0.6833282807489311  0.6562077439365552  1.0000
  H   H50       1.0  0.8170389327485523  0.31667460208394976  0.3437939785299591  1.0000
  H   H51       1.0  0.2662973945506338  0.5199459667987085  0.6670680041297246  1.0000
  H   H52       1.0  0.7662947305732005  0.48005398128591276  0.3329298790878994  1.0000
  H   H53       1.0  0.4366693179596767  0.1303653600871897  0.44005864191295535  1.0000
  H   H54       1.0  0.9366899636663248  0.8696404511855538  0.5599368456472291  1.0000
  H   H55       1.0  0.5932370031607022  0.07133138229221464  0.3732977738250227  1.0000
  H   H56       1.0  0.09325422336644351  0.9286654595904056  0.6266982629673024  1.0000
  C   C1        1.0  0.9107356926481032  0.8190755553131059  0.9660943900580037  1.0000
  C   C2        1.0  0.4107351568104747  0.18092842063596495  0.033907990657454  1.0000
  C   C3        1.0  0.5807743267030999  0.796742453389733  0.9884192849122471  1.0000
  C   C4        1.0  0.0807777586630962  0.20325818329572348  0.011582666570319602  1.0000
  C   C5        1.0  0.40142995400238146  0.7232747730139055  0.8842945139160464  1.0000
  C   C6        1.0  0.9014276943544245  0.2767244855746185  0.11570619001734171  1.0000
  C   C7        1.0  0.34500071007596483  0.8297394348842246  0.8356585638385637  1.0000
  C   C8        1.0  0.8449930581671552  0.1702625436639806  0.1643421103522442  1.0000
  C   C9        1.0  0.41985031795842087  0.5995371735578984  0.8414133882582461  1.0000
  C   C10       1.0  0.9198487814353556  0.40046399430409724  0.1585878969419809  1.0000
  C   C11       1.0  0.3924333811366126  0.484586375611535  0.8867139922353856  1.0000
  C   C12       1.0  0.892430512156068  0.5154109826645126  0.11328560709965531  1.0000
  C   C13       1.0  0.03505753768141771  0.46231254530466986  0.8399547382459929  1.0000
  C   C14       1.0  0.5350605182043537  0.5376823727158212  0.1600449462486466  1.0000
  C   C15       1.0  0.4454565974761735  0.8321541275442359  0.0980273706438339  1.0000
  C   C16       1.0  0.9454477813834004  0.1678489733892263  0.901975573405558  1.0000
  C   C17       1.0  0.619328619141612  0.8557354517851365  0.1307747080337336  1.0000
  C   C18       1.0  0.11932077651062659  0.14426901232699413  0.869228942536047  1.0000
  C   C19       1.0  0.7791712756874818  0.8544027359789514  0.0858723629358096  1.0000
  C   C20       1.0  0.2791719122453173  0.145597281890069  0.9141298117811232  1.0000
  C   C21       1.0  0.15013766179918522  0.23167366361030164  0.5979461871659453  1.0000
  C   C22       1.0  0.6501649126295773  0.768310227963326  0.402056157508639  1.0000
  C   C23       1.0  0.8241097248267694  0.22024073971884667  0.568963758843793  1.0000
  C   C24       1.0  0.32412904343232185  0.7797555538334536  0.43103414333910445  1.0000
  C   C25       1.0  0.6291284177021056  0.3382723858100932  0.6541691958446307  1.0000
  C   C26       1.0  0.12913993165725662  0.6617264486343545  0.34583225369444653  1.0000
  C   C27       1.0  0.5233509973247122  0.2680781705243263  0.7113879477803593  1.0000
  C   C28       1.0  0.023359589187471403  0.7319232863566756  0.2886118098223989  1.0000
  C   C29       1.0  0.6562257527189459  0.4774814851228159  0.6740436561286174  1.0000
  C   C30       1.0  0.15622447014722243  0.5225183049716053  0.32595569991799067  1.0000
  C   C31       1.0  0.6532924235131431  0.5621408297605371  0.6096045672811528  1.0000
  C   C32       1.0  0.15328864986110347  0.43785893105656726  0.39039264717706595  1.0000
  C   C33       1.0  0.27949143264690685  0.5949823536820418  0.62848698356607  1.0000
  C   C34       1.0  0.7794942441495962  0.40501574809222524  0.3715114249928817  1.0000
  C   C35       1.0  0.7090115120683577  0.14054300241665632  0.462931234516283  1.0000
  C   C36       1.0  0.20902782757072202  0.8594596642741621  0.5370666179556807  1.0000
  C   C37       1.0  0.8899777103962307  0.1094419709294456  0.4372319837890614  1.0000
  C   C38       1.0  0.39000245412181306  0.8905572447513634  0.5627665684542578  1.0000
  C   C39       1.0  0.044657755600134394  0.14112223427929393  0.48330245694307183  1.0000
  C   C40       1.0  0.5446739709376585  0.8588764217760455  0.5166951505807519  1.0000
  S   S1        1.0  0.1640286999191147  0.4722683626413798  0.9223437423412689  1.0000
  S   S2        1.0  0.6640296652705189  0.5277276804634854  0.0776545042038919  1.0000
  S   S3        1.0  0.44249622577117986  0.5537938319654928  0.5594622394061303  1.0000
  S   S4        1.0  0.9425010506591036  0.44620828442712934  0.4405369470253645  1.0000
  N   N1        1.0  0.752327393542693  0.8292890866968892  0.013186079210882403  1.0000
  N   N2        1.0  0.2523259535080555  0.17071650281832265  0.9868156036730084  1.0000
  N   N3        1.0  0.5709170802506734  0.7526871381075395  0.9207384740835494  1.0000
  N   N4        1.0  0.0709143917470527  0.24731065393536514  0.0792618248193406  1.0000
  N   N5        1.0  0.43092573528432615  0.8048655107153239  0.0276183617091803  1.0000
  N   N6        1.0  0.9309243204309324  0.19513568104178358  0.9723834711727052  1.0000
  N   N7        1.0  0.2964616885487459  0.838377178432403  0.1374716644217457  1.0000
  N   N8        1.0  0.7964579738029656  0.1616266327873248  0.8625321841281988  1.0000
  N   N9        1.0  0.648612326281551  0.8836390801981154  0.20066118290402807  1.0000
  N   N10       1.0  0.14860657263540844  0.1163588670887208  0.7993418809156267  1.0000
  N   N11       1.0  0.0011925015273490998  0.19035090357044032  0.55149172734491  1.0000
  N   N12       1.0  0.5012134614111474  0.8096486196257832  0.4485058409815323  1.0000
  N   N13       1.0  0.7988659428997451  0.2809139018191686  0.6322137775725736  1.0000
  N   N14       1.0  0.2988845851804598  0.7190804838101033  0.3677846042895752  1.0000
  N   N15       1.0  0.6819581853665114  0.1969807743619896  0.527094001683885  1.0000
  N   N16       1.0  0.1819792529961362  0.8030208937387545  0.4729022026486049  1.0000
  N   N17       1.0  0.566213415661018  0.11432958086492562  0.4218619004650037  1.0000
  N   N18       1.0  0.0662328389939617  0.8856672238497937  0.578134638754257  1.0000
  N   N19       1.0  0.9362352298217046  0.05608329269924181  0.37447879447942256  1.0000
  N   N20       1.0  0.43625520082159136  0.9439179014415517  0.6255225101964185  1.0000
  O   O1        1.0  0.47933104571519175  0.8934970047053672  0.810798922539675  1.0000
  O   O2        1.0  0.9793152462620398  0.10650711803611301  0.1892067468016165  1.0000
  O   O3        1.0  0.18066179270616092  0.8451037415405128  0.8237138815026555  1.0000
  O   O4        1.0  0.6806446943393426  0.15489881825034502  0.1762785920178516  1.0000
  O   O5        1.0  0.5189097083201731  0.8797066446171943  0.2453007500678979  1.0000
  O   O6        1.0  0.018900916188506797  0.12028737214410513  0.7547042480648258  1.0000
  O   O7        1.0  0.9347025039834095  0.8739020041144343  0.109811331756319  1.0000
  O   O8        1.0  0.43469747382224  0.1261066696846314  0.8901890014732389  1.0000
  O   O9        1.0  0.5861616326883878  0.15999917744813535  0.7285253262692635  1.0000
  O   O10       1.0  0.0861704401851071  0.8400089684416728  0.271477265581936  1.0000
  O   O11       1.0  0.3803418135524268  0.3177380226759112  0.7341369599245553  1.0000
  O   O12       1.0  0.8803555517806672  0.6822705578660049  0.2658627742180926  1.0000
  O   O13       1.0  0.8035813929632382  0.025112409031066808  0.3311123650582743  1.0000
  O   O14       1.0  0.30359230538171295  0.9748820087237107  0.66888816050308  1.0000
  O   O15       1.0  0.2049423756934843  0.12633974732790423  0.4658406557581074  1.0000
  O   O16       1.0  0.7049601269311908  0.8736788139147366  0.534155265089666  1.0000
