data_image0
_chemical_formula_structural       Na2H18C8N16O6
_chemical_formula_sum              "Na2 H18 C8 N16 O6"
_cell_length_a       6.301770965650324
_cell_length_b       6.617051659323425
_cell_length_c       12.496636002018727
_cell_angle_alpha    80.32624451394551
_cell_angle_beta     83.83972339001785
_cell_angle_gamma    69.88421006075626

_space_group_name_H-M_alt    "P 1"
_space_group_IT_number       1

loop_
  _space_group_symop_operation_xyz
  'x, y, z'

loop_
  _atom_site_type_symbol
  _atom_site_label
  _atom_site_symmetry_multiplicity
  _atom_site_fract_x
  _atom_site_fract_y
  _atom_site_fract_z
  _atom_site_occupancy
  Na  Na1       1.0  0.2750554071954738  0.4500582964419664  0.9434475021119372  1.0000
  Na  Na2       1.0  0.7249514471833222  0.5499393877688945  0.05655284351220761  1.0000
  H   H1        1.0  0.19548783386465374  0.37457931149343426  0.17226210341235776  1.0000
  H   H2        1.0  0.8045232312585282  0.6254200497989898  0.8277394502701727  1.0000
  H   H3        1.0  0.11395299894667231  0.1996388618438658  0.13836426828444107  1.0000
  H   H4        1.0  0.8860497730692813  0.8003702020989749  0.861633688557845  1.0000
  H   H5        1.0  0.25518895415314097  0.7997152660400245  0.08407357378850831  1.0000
  H   H6        1.0  0.7448125507204324  0.20028399032465663  0.9159269376135629  1.0000
  H   H7        1.0  0.3333228913705354  0.8749850812515306  0.9652400036327721  1.0000
  H   H8        1.0  0.6666823732147976  0.12501258519699826  0.034760434841260186  1.0000
  H   H9        1.0  0.48429727877262246  0.07887941969025289  0.835192304142126  1.0000
  H   H10       1.0  0.5157004234114453  0.9211214298830939  0.16480508142846162  1.0000
  H   H11       1.0  0.22901575374955746  0.11514211475087417  0.8236095495601746  1.0000
  H   H12       1.0  0.7709825930259626  0.8848571044428867  0.17639274692143667  1.0000
  H   H13       1.0  0.3173170689803798  0.740884037483482  0.51309934842498  1.0000
  H   H14       1.0  0.6826749401101823  0.25911510901469365  0.48690491883593984  1.0000
  H   H15       1.0  0.9320710120245366  0.7098332112258772  0.5954884469434347  1.0000
  H   H16       1.0  0.06792506813278011  0.29016762305452193  0.4045066324073901  1.0000
  H   H17       1.0  0.6400217283200931  0.7889270992423076  0.3972165449248379  1.0000
  H   H18       1.0  0.3599704415443484  0.21108021903902593  0.6027781761889559  1.0000
  C   C1        1.0  0.9702371843600304  0.8159710208213226  0.3730015438381003  1.0000
  C   C2        1.0  0.029754319975744226  0.18402486279478575  0.6269974439869729  1.0000
  C   C3        1.0  0.7860644534599784  0.7257110542399162  0.5510089601318315  1.0000
  C   C4        1.0  0.21392434381036915  0.27428805920297344  0.44899309375920654  1.0000
  C   C5        1.0  0.7858270944265443  0.774882786179539  0.4416572426786304  1.0000
  C   C6        1.0  0.21416010230591104  0.2251163103241467  0.5583441043724096  1.0000
  C   C7        1.0  0.6015318563519542  0.68530250576503  0.6191496766482913  1.0000
  C   C8        1.0  0.39845993769090177  0.3147015397566975  0.3808493613082576  1.0000
  N   N1        1.0  0.6050949266969639  0.6273443783057003  0.7275020267228811  1.0000
  N   N2        1.0  0.3949054179269  0.372658128940614  0.27249825913573744  1.0000
  N   N3        1.0  0.39894179537808594  0.6917707703714056  0.5892259020002372  1.0000
  N   N4        1.0  0.6010506110229272  0.3082316472401203  0.41077564779769216  1.0000
  N   N5        1.0  0.9594042443614087  0.8703111659451891  0.2643313049094473  1.0000
  N   N6        1.0  0.04059662666514191  0.12968971997595694  0.7356650952714788  1.0000
  N   N7        1.0  0.17176211937314192  0.8141529963389541  0.4029220773236376  1.0000
  N   N8        1.0  0.8282288155822217  0.18584451189484238  0.5970775974195917  1.0000
  N   N9        1.0  0.28257091952912106  0.8684495341853093  0.3115382118463473  1.0000
  N   N10       1.0  0.7174274379908425  0.1315496841853232  0.6884648843251426  1.0000
  N   N11       1.0  0.4045123970447477  0.5996147453468409  0.7605376678981345  1.0000
  N   N12       1.0  0.5954938772091937  0.4003845643048364  0.2394625649542874  1.0000
  N   N13       1.0  0.1542062073156671  0.902521510368288  0.22825415581465344  1.0000
  N   N14       1.0  0.8457988959441352  0.09748105098815779  0.7717450518044232  1.0000
  N   N15       1.0  0.27865478262437193  0.6382939637181123  0.6780320625290558  1.0000
  N   N16       1.0  0.721347903987777  0.361702040118679  0.32197027379623944  1.0000
  O   O1        1.0  0.1112130805787501  0.3498460355209474  0.11554597147745942  1.0000
  O   O2        1.0  0.8887993915234773  0.6501582400879753  0.8844526591204627  1.0000
  O   O3        1.0  0.32204302284329595  0.7442902177057391  0.015639131337309226  1.0000
  O   O4        1.0  0.6779584820302773  0.2557090386589421  0.9843613800647619  1.0000
  O   O5        1.0  0.3413557416118707  0.10357453894118857  0.8783374741917456  1.0000
  O   O6        1.0  0.658645913842804  0.8964198233387106  0.12166346837539521  1.0000
