data_image0
_chemical_formula_structural       Zn2Si2H44C52S4N8F12
_chemical_formula_sum              "Zn2 Si2 H44 C52 S4 N8 F12"
_cell_length_a       10.28330504714735
_cell_length_b       13.151535120457034
_cell_length_c       13.1515532699671
_cell_angle_alpha    71.70663776166052
_cell_angle_beta     66.97179551925429
_cell_angle_gamma    66.9719158133167

_space_group_name_H-M_alt    "P 1"
_space_group_IT_number       1

loop_
  _space_group_symop_operation_xyz
  'x, y, z'

loop_
  _atom_site_type_symbol
  _atom_site_label
  _atom_site_symmetry_multiplicity
  _atom_site_fract_x
  _atom_site_fract_y
  _atom_site_fract_z
  _atom_site_occupancy
  Zn  Zn1       1.0  0.499999581985797  0.7500147568153466  0.2499839971724285  1.0000
  Zn  Zn2       1.0  0.49999976624056297  0.24998493136098432  0.7500159530537189  1.0000
  Si  Si1       1.0  0.5000007447150381  3.420504129152254e-07  1.7947235159964198e-07  1.0000
  Si  Si2       1.0  0.49999830417500835  0.500000400966499  0.49999871977863103  1.0000
  H   H1        1.0  0.036717918418055384  0.756437681848155  0.026008869588089602  1.0000
  H   H2        1.0  0.9632835258807754  0.9739915584062759  0.24355890845427544  1.0000
  H   H3        1.0  0.8189039912520782  0.7437952508092496  0.4741677042176277  1.0000
  H   H4        1.0  0.18109391910677897  0.5258315012996418  0.2562055100861116  1.0000
  H   H5        1.0  0.9632803383293688  0.2435625888445543  0.9739919390263907  1.0000
  H   H6        1.0  0.03671843313825457  0.02600602646430876  0.7564401492449092  1.0000
  H   H7        1.0  0.18109673831403944  0.2562061806301728  0.5258305943400288  1.0000
  H   H8        1.0  0.8189057399610248  0.47416943870558015  0.7437936228404424  1.0000
  H   H9        1.0  0.9893093802461977  0.4217813237018079  0.15554120850678999  1.0000
  H   H10       1.0  0.010689021491749813  0.8444596370031476  0.5782151277344099  1.0000
  H   H11       1.0  0.5664610168698374  0.07846077191975112  0.3444264449701037  1.0000
  H   H12       1.0  0.4335367545360568  0.655572110237607  0.9215400924202297  1.0000
  H   H13       1.0  0.010691391281149308  0.5782179598364651  0.8444570420119816  1.0000
  H   H14       1.0  0.98930759005826  0.15554859818237796  0.4217858591353547  1.0000
  H   H15       1.0  0.4335360523859033  0.9215411974406466  0.6555735564639703  1.0000
  H   H16       1.0  0.5664624976775483  0.34442869409004123  0.07845819223715719  1.0000
  H   H17       1.0  0.7159786667064195  0.5135228987399857  0.23115094828996519  1.0000
  H   H18       1.0  0.2840207662755814  0.768849948778545  0.4864741128229824  1.0000
  H   H19       1.0  0.4605951605715145  0.9866732912361513  0.2688295765067679  1.0000
  H   H20       1.0  0.5394042025437925  0.7311694081374326  0.013327631352595395  1.0000
  H   H21       1.0  0.28402179397947674  0.4864751329694031  0.7688481195283926  1.0000
  H   H22       1.0  0.7159768179374165  0.23115421975908387  0.5135301640955419  1.0000
  H   H23       1.0  0.5394041666742239  0.013327470890757852  0.7311703977388149  1.0000
  H   H24       1.0  0.46059471784774786  0.2688312183119024  0.9866714946238203  1.0000
  H   H25       1.0  0.7616524151183626  0.8328508273566159  0.1027732680197886  1.0000
  H   H26       1.0  0.23834865801322974  0.8972246313279442  0.1671466827883492  1.0000
  H   H27       1.0  0.6972469471085605  0.6673630289065002  0.3972895434552298  1.0000
  H   H28       1.0  0.3027512675660518  0.6027094086581997  0.33263719273141124  1.0000
  H   H29       1.0  0.2383457875775363  0.1671484115862612  0.8972258269870536  1.0000
  H   H30       1.0  0.7616546595423724  0.10277009652288177  0.8328565372482046  1.0000
  H   H31       1.0  0.30275596541542865  0.33263723750017254  0.6027070383257466  1.0000
  H   H32       1.0  0.6972468721880032  0.39729305213639804  0.6673619743337652  1.0000
  H   H33       1.0  0.18045816244384827  0.9790869677989918  0.9790967137913568  1.0000
  H   H34       1.0  0.819541396966045  0.020903739890719877  0.0209123335392647  1.0000
  H   H35       1.0  0.138402582200662  0.5210531958046972  0.521051010439308  1.0000
  H   H36       1.0  0.861596980854394  0.4789488603518422  0.4789464569184928  1.0000
  H   H37       1.0  0.35153018826564153  0.21203482966532763  0.2120331772295287  1.0000
  H   H38       1.0  0.648465927485148  0.7879644581589816  0.7879693001227537  1.0000
  H   H39       1.0  0.775183818122464  0.2883463383300082  0.2883439336427216  1.0000
  H   H40       1.0  0.22481902825968775  0.7116497166758577  0.7116491728840798  1.0000
  H   H41       1.0  0.4444375467507695  0.3433772933409571  0.3433742779202333  1.0000
  H   H42       1.0  0.5555639424722256  0.656623377703774  0.6566240035681189  1.0000
  H   H43       1.0  0.13080529807322702  0.15688770388180734  0.1568902847096965  1.0000
  H   H44       1.0  0.8691997536248196  0.8431078711598516  0.8431104183198952  1.0000
  C   C1        1.0  0.034913107152917  0.582225561307439  0.0844473394574479  1.0000
  C   C2        1.0  0.9650854274030108  0.9155544778967909  0.4177720158926946  1.0000
  C   C3        1.0  0.7014495860921809  0.9179867047160004  0.4155672221421724  1.0000
  C   C4        1.0  0.2985492676610944  0.5844311109591303  0.08201473712716728  1.0000
  C   C5        1.0  0.9650862410734434  0.41777412686889215  0.9155526107686994  1.0000
  C   C6        1.0  0.03491393291364629  0.08444838993052177  0.5822296959799828  1.0000
  C   C7        1.0  0.29855007297562247  0.08201423528922193  0.5844319107843815  1.0000
  C   C8        1.0  0.7014504123873236  0.4155687550955137  0.9179843717799444  1.0000
  C   C9        1.0  0.970268712513743  0.6993374574888306  0.07086331787267139  1.0000
  C   C10       1.0  0.029732349529801413  0.9291369407617793  0.3006595663469581  1.0000
  C   C11       1.0  0.7402967187447013  0.800873359866344  0.42922219359532926  1.0000
  C   C12       1.0  0.2597009111156652  0.5707770432412786  0.19912814135172138  1.0000
  C   C13       1.0  0.029731727191545917  0.30066164817112917  0.9291357739651288  1.0000
  C   C14       1.0  0.9702696635407547  0.07086167585863025  0.6993412049598716  1.0000
  C   C15       1.0  0.25970401082141575  0.19912807157307813  0.5707761049623271  1.0000
  C   C16       1.0  0.7402987479521457  0.42922389676393646  0.8008709915748325  1.0000
  C   C17       1.0  0.9438123691721712  0.5131680347012875  0.1417154887349099  1.0000
  C   C18       1.0  0.056186705943943545  0.858284744029895  0.4868299099649533  1.0000
  C   C19       1.0  0.5985425076585706  0.987050945259874  0.3582939219753102  1.0000
  C   C20       1.0  0.40145690065860146  0.6417048968387604  0.012949555583141098  1.0000
  C   C21       1.0  0.056188809209373684  0.4868313845145595  0.8582836100530216  1.0000
  C   C22       1.0  0.9438115419131704  0.14171978026436705  0.5131726843155064  1.0000
  C   C23       1.0  0.40145608091091844  0.012949503311148287  0.6417060453201415  1.0000
  C   C24       1.0  0.5985427584092021  0.3582960431664617  0.9870495773434129  1.0000
  C   C25       1.0  0.791302325393687  0.5636784858264647  0.18307837771023827  1.0000
  C   C26       1.0  0.20869667228596006  0.8169214773038007  0.4363195295205955  1.0000
  C   C27       1.0  0.5379663166631444  0.9365189526819719  0.3169324294053268  1.0000
  C   C28       1.0  0.46203135262560097  0.683066203093837  0.06348252698655439  1.0000
  C   C29       1.0  0.2086973756353454  0.4363203062776081  0.8169207071774238  1.0000
  C   C30       1.0  0.7913024312407798  0.1830811704444529  0.5636847132593061  1.0000
  C   C31       1.0  0.46203184407153236  0.06348243416205443  0.6830667136404001  1.0000
  C   C32       1.0  0.5379683064422024  0.31693473691138513  0.9365166059399997  1.0000
  C   C33       1.0  0.817311205071071  0.7423733151226485  0.11362283168786289  1.0000
  C   C34       1.0  0.18269069522283124  0.8863769395387139  0.2576239017807254  1.0000
  C   C35       1.0  0.6732158303073986  0.7578406747001125  0.3864381655262648  1.0000
  C   C36       1.0  0.3267813982503185  0.6135613048908297  0.2421601944895002  1.0000
  C   C37       1.0  0.18268890281215258  0.2576256126589912  0.8863771014689733  1.0000
  C   C38       1.0  0.8173114138604801  0.11362056093037867  0.7423785350948577  1.0000
  C   C39       1.0  0.32678416058247  0.2421604431834227  0.6135601260812606  1.0000
  C   C40       1.0  0.6732175011606144  0.38644039550908377  0.7578389555063579  1.0000
  C   C41       1.0  0.06511167198490836  0.992009715800087  0.9920237475241933  1.0000
  C   C42       1.0  0.9348877895896521  0.007976433807527888  0.007989424224085398  1.0000
  C   C43       1.0  0.049030750613240824  0.5080528790544392  0.5080490320034982  1.0000
  C   C44       1.0  0.9509691232832579  0.49195042893099133  0.4919476180547163  1.0000
  C   C45       1.0  0.41397534722188567  0.3014366543432773  0.3014315006092119  1.0000
  C   C46       1.0  0.5860264738231677  0.6985641945797667  0.6985659395601046  1.0000
  C   C47       1.0  0.01644376729559123  0.19886188992266096  0.19886121882345978  1.0000
  C   C48       1.0  0.9835611674090924  0.8011358752208864  0.8011378426568213  1.0000
  C   C49       1.0  0.37947231363956035  0.25455413020940654  0.2545512117732827  1.0000
  C   C50       1.0  0.6205284159265645  0.7454473012300158  0.7454470867843738  1.0000
  C   C51       1.0  0.888165815451124  0.24581492396232116  0.24581207421321946  1.0000
  C   C52       1.0  0.11183673217988854  0.7541830588656283  0.7541836112596981  1.0000
  S   S1        1.0  0.22753381616550408  0.5224925958953435  0.022365212342236897  1.0000
  S   S2        1.0  0.7724665033397707  0.9776349028874235  0.47750523147238505  1.0000
  S   S3        1.0  0.7724658429022991  0.47750834410987864  0.9776339205843171  1.0000
  S   S4        1.0  0.2275334875500903  0.02236621499611159  0.5224930601351402  1.0000
  N   N1        1.0  0.7290555690670002  0.6759212122212119  0.16862924647941213  1.0000
  N   N2        1.0  0.2709442793116422  0.831370601103167  0.3240763166865577  1.0000
  N   N3        1.0  0.5735511895998044  0.8242811273821075  0.33140673699157464  1.0000
  N   N4        1.0  0.4264472598293092  0.6685914446080831  0.1757195408350967  1.0000
  N   N5        1.0  0.27094339328576916  0.324077266326981  0.8313698314581187  1.0000
  N   N6        1.0  0.729056385490061  0.168628377954562  0.6759278439158434  1.0000
  N   N7        1.0  0.426449560946935  0.17571923010674345  0.6685915375466394  1.0000
  N   N8        1.0  0.5735516605622305  0.33140918184125223  0.824279585141319  1.0000
  F   F1        1.0  0.5000006037161028  0.8876845731151447  0.1123162148824761  1.0000
  F   F2        1.0  0.4999976151956741  0.6123340901636072  0.3876675969999326  1.0000
  F   F3        1.0  0.4999998690601046  0.11231663824521845  0.8876846145824117  1.0000
  F   F4        1.0  0.5000001386847969  0.3876671610028525  0.6123306977766275  1.0000
  F   F5        1.0  0.37596462172356104  0.9683540524443617  0.968355507594218  1.0000
  F   F6        1.0  0.6240351123763829  0.03164684536011464  0.0316453149205387  1.0000
  F   F7        1.0  0.3126328252961911  0.531655309152626  0.5316558882347663  1.0000
  F   F8        1.0  0.6873659990826012  0.46834643344802646  0.4683415721728963  1.0000
  F   F9        1.0  0.3567131398457163  0.08655352026686099  0.08655173868596931  1.0000
  F   F10       1.0  0.6432861664194147  0.9134483158106194  0.9134482595790628  1.0000
  F   F11       1.0  0.5298879150549424  0.413453575576476  0.4134500866851596  1.0000
  F   F12       1.0  0.47010983882552854  0.5865476755899837  0.5865482080914006  1.0000
