data_image0
_chemical_formula_structural       La4H48C60N8O28
_chemical_formula_sum              "La4 H48 C60 N8 O28"
_cell_length_a       10.782553570912825
_cell_length_b       11.856440904456415
_cell_length_c       16.639198737430686
_cell_angle_alpha    108.86025984486267
_cell_angle_beta     89.99451090654523
_cell_angle_gamma    117.05323549952966

_space_group_name_H-M_alt    "P 1"
_space_group_IT_number       1

loop_
  _space_group_symop_operation_xyz
  'x, y, z'

loop_
  _atom_site_type_symbol
  _atom_site_label
  _atom_site_symmetry_multiplicity
  _atom_site_fract_x
  _atom_site_fract_y
  _atom_site_fract_z
  _atom_site_occupancy
  La  La1       1.0  0.9732379061369941  0.9965089141320155  0.12663621976474815  1.0000
  La  La2       1.0  0.9765823678714302  0.0033161545988136007  0.3732947763169179  1.0000
  La  La3       1.0  0.02676366298215531  0.0034921802883758034  0.8733636543219845  1.0000
  La  La4       1.0  0.023420963735823207  0.9966829005988204  0.6267058260471146  1.0000
  H   H1        1.0  0.6928444997963793  0.5384800241971491  0.012615135348475798  1.0000
  H   H2        1.0  0.15455373409321274  0.4617373812707017  0.4874688242110851  1.0000
  H   H3        1.0  0.3071537770567687  0.46152005040868005  0.987385102959145  1.0000
  H   H4        1.0  0.8454420923998002  0.5382596476236332  0.5125301057435863  1.0000
  H   H5        1.0  0.4719523921077879  0.3134612344940422  0.9512344889569421  1.0000
  H   H6        1.0  0.1588349783084908  0.686827024682046  0.5489256099039325  1.0000
  H   H7        1.0  0.5280458864614772  0.686538843454521  0.04876514913332386  1.0000
  H   H8        1.0  0.8411633002607743  0.31317305326652445  0.4510740281863335  1.0000
  H   H9        1.0  0.4691496394017419  0.35715125736894043  0.7053916944743223  1.0000
  H   H10       1.0  0.11145192131412057  0.6426916505980813  0.7946298572829775  1.0000
  H   H11       1.0  0.530851931433517  0.6428498403941847  0.2946075793950484  1.0000
  H   H12       1.0  0.8885487152100213  0.35730943374893104  0.2053718174740951  1.0000
  H   H13       1.0  0.692698089965731  0.5824541721426189  0.7662800066372384  1.0000
  H   H14       1.0  0.10972703423333736  0.4174526139276865  0.7337080344116558  1.0000
  H   H15       1.0  0.30730204178077974  0.4175459025535135  0.23372023163383202  1.0000
  H   H16       1.0  0.8902745348858122  0.5825484804926975  0.2662918396750769  1.0000
  H   H17       1.0  0.3526988295070197  0.029912506541208507  0.9014776187572195  1.0000
  H   H18       1.0  0.3225930585293212  0.9698197568250821  0.5984065168598534  1.0000
  H   H19       1.0  0.6473003747928062  0.9700875681097689  0.09852261953212604  1.0000
  H   H20       1.0  0.6774085071576155  0.030181330909819302  0.401594557661589  1.0000
  H   H21       1.0  0.584505497577517  0.043635207971512116  0.8685964101767213  1.0000
  H   H22       1.0  0.5405142962585928  0.9558810260588976  0.6312428324294217  1.0000
  H   H23       1.0  0.41549421664827657  0.9563658863585685  0.13140346394656172  1.0000
  H   H24       1.0  0.4594876886651633  0.04411904538479661  0.3687580060224533  1.0000
  H   H25       1.0  0.16822907487244979  0.6586922327431213  0.058469025660137716  1.0000
  H   H26       1.0  0.5092890674441577  0.3413784130052875  0.4414520924240151  1.0000
  H   H27       1.0  0.8317710585901636  0.34130784529575214  0.941530612393578  1.0000
  H   H28       1.0  0.4907110643023459  0.6586216616908447  0.5585481458470554  1.0000
  H   H29       1.0  0.053192802583815424  0.5093427961813646  0.0794955366021739  1.0000
  H   H30       1.0  0.5434139349955559  0.490692324593205  0.4204342631082554  1.0000
  H   H31       1.0  0.9468073343110249  0.4906572885429912  0.9205029010168317  1.0000
  H   H32       1.0  0.4565856902572065  0.5093067371093056  0.5795651388941678  1.0000
  H   H33       1.0  0.15543357548007458  0.6113877055974372  0.2292386092822269  1.0000
  H   H34       1.0  0.5438953746057393  0.3887694055906366  0.2706959060092657  1.0000
  H   H35       1.0  0.8445651257582298  0.3886113627454009  0.7707595923037687  1.0000
  H   H36       1.0  0.4561042489309131  0.6112296527691329  0.7293040962105124  1.0000
  H   H37       1.0  0.30462577481470987  0.7184434655128202  0.1937290760510706  1.0000
  H   H38       1.0  0.5862351024094679  0.2818793217550422  0.3062668290902337  1.0000
  H   H39       1.0  0.6953738487219425  0.28155559284694937  0.8062709261687075  1.0000
  H   H40       1.0  0.4137650293370427  0.7181207529410899  0.6937334091808368  1.0000
  H   H41       1.0  0.9423641152709551  0.6698852549030863  0.06994496597759084  1.0000
  H   H42       1.0  0.272071151297105  0.3298640852448288  0.4298608308161391  1.0000
  H   H43       1.0  0.05763601990777534  0.33011482647852836  0.9300540718587698  1.0000
  H   H44       1.0  0.7279299096121932  0.6701359928391996  0.5701388072193012  1.0000
  H   H45       1.0  0.20961826971399933  0.871888002815581  0.29600815800925057  1.0000
  H   H46       1.0  0.3378212855815193  0.12809188947093025  0.2039079344541008  1.0000
  H   H47       1.0  0.790381862032504  0.1281120718805511  0.7039920802618198  1.0000
  H   H48       1.0  0.6621788461649843  0.8719081852252021  0.7960923038169697  1.0000
  C   C1        1.0  0.7052949174566692  0.5740967332397346  0.8931445902520139  1.0000
  C   C2        1.0  0.13106022157109015  0.42594771327507197  0.606906225958909  1.0000
  C   C3        1.0  0.29470428512705377  0.42590333806850117  0.10685624825468658  1.0000
  C   C4        1.0  0.8689404166691619  0.5740533744146817  0.3930948485808088  1.0000
  C   C5        1.0  0.6454182037848711  0.4969751008959947  0.9448481146550735  1.0000
  C   C6        1.0  0.1484542183236286  0.5031394221450399  0.5552226998742924  1.0000
  C   C7        1.0  0.3545815104409228  0.5030259934340863  0.05515175946820962  1.0000
  C   C8        1.0  0.8515440585295194  0.4968606524607895  0.4447775384333283  1.0000
  C   C9        1.0  0.5223581990009194  0.37229593652205756  0.9109936821902451  1.0000
  C   C10       1.0  0.15006620816947688  0.6278075121633861  0.5890927503090211  1.0000
  C   C11       1.0  0.477641934461694  0.6277041415168158  0.08900595586347039  1.0000
  C   C12       1.0  0.8499297072965675  0.3721915493585186  0.4109066517665029  1.0000
  C   C13       1.0  0.45762727355968025  0.3234034806447427  0.8250205332332641  1.0000
  C   C14       1.0  0.13404746433491974  0.6766076711964504  0.6750373495795117  1.0000
  C   C15       1.0  0.5423737873496108  0.6765965974392785  0.17497910480217627  1.0000
  C   C16       1.0  0.8659517399649063  0.3233924034545269  0.3249628887098339  1.0000
  C   C17       1.0  0.520755859177882  0.3979495160544886  0.7722462864118711  1.0000
  C   C18       1.0  0.12241784900325564  0.6019726849442365  0.7277875354751088  1.0000
  C   C19       1.0  0.47924385676402187  0.6020515816183335  0.2277529874940569  1.0000
  C   C20       1.0  0.8775822827432479  0.3980273897518957  0.27221270279596155  1.0000
  C   C21       1.0  0.6436988293929317  0.5222202845928123  0.8059758136726387  1.0000
  C   C22       1.0  0.12111304592365697  0.47772417944666756  0.6940449831719491  1.0000
  C   C23       1.0  0.3563003731907841  0.4777797867154236  0.19402502483406184  1.0000
  C   C24       1.0  0.8788861583761758  0.5222758952043094  0.30595525511739646  1.0000
  C   C25       1.0  0.8279408747083892  0.7154265420549208  0.9309716973063331  1.0000
  C   C26       1.0  0.11249887432811789  0.2846527422472819  0.5690304944156283  1.0000
  C   C27       1.0  0.1720573131717202  0.2845714999233381  0.069028068880435  1.0000
  C   C28       1.0  0.8875012574183856  0.7153473324488503  0.43096974385544234  1.0000
  C   C29       1.0  0.317131305638476  0.1964719192068713  0.7905358935841704  1.0000
  C   C30       1.0  0.12044036083604226  0.8034994222405276  0.7094790578674264  1.0000
  C   C31       1.0  0.682869755270815  0.8035281588771498  0.2094637444512699  1.0000
  C   C32       1.0  0.8795588434637837  0.19650065241044964  0.2905211804219192  1.0000
  C   C33       1.0  0.370856070838684  0.99276612156379  0.018682460554295215  1.0000
  C   C34       1.0  0.3781230217108984  0.0072547404949148036  0.4812994011945264  1.0000
  C   C35       1.0  0.6291440609078195  0.007233953132342201  0.9813177777167753  1.0000
  C   C36       1.0  0.621878543976031  0.9927463472399867  0.518701673326909  1.0000
  C   C37       1.0  0.41728380421025696  0.01651929216801311  0.9441105792884414  1.0000
  C   C38       1.0  0.40065662393185864  0.983323425920965  0.5558224337739902  1.0000
  C   C39       1.0  0.5827163292523635  0.9834807858708601  0.05588905876527406  1.0000
  C   C40       1.0  0.599344016024503  0.016677665111529905  0.4441780405483726  1.0000
  C   C41       1.0  0.5460641000515594  0.023950030005117612  0.9258591164294429  1.0000
  C   C42       1.0  0.5219573915339594  0.9758467795028242  0.5740831234372621  1.0000
  C   C43       1.0  0.45393603169494406  0.9760500446910143  0.07414112184162747  1.0000
  C   C44       1.0  0.4780432484224023  0.024154311529663606  0.4259173508850935  1.0000
  C   C45       1.0  0.23488286731464564  0.9881238654109696  0.0408578510853275  1.0000
  C   C46       1.0  0.24674939881619912  0.011828100712286002  0.4591132941149425  1.0000
  C   C47       1.0  0.7651163369851801  0.011876209240007504  0.9591423872040181  1.0000
  C   C48       1.0  0.7532516603769819  0.9881719740290007  0.5408869441378529  1.0000
  C   C49       1.0  0.04842603912354793  0.7808262658754616  0.19308960522901944  1.0000
  C   C50       1.0  0.2674632624940543  0.21895646887474388  0.3067698440557578  1.0000
  C   C51       1.0  0.9515740943390727  0.21917381216340465  0.8069100328246961  1.0000
  C   C52       1.0  0.7325363610425981  0.7810425894850257  0.6932301581640203  1.0000
  C   C53       1.0  0.10280609193805643  0.6205869429732902  0.10436055312607102  1.0000
  C   C54       1.0  0.48192675820396147  0.37944060254478285  0.3955468205168557  1.0000
  C   C55       1.0  0.8971945497344153  0.3794141514019459  0.8956393209789368  1.0000
  C   C56       1.0  0.518073375258652  0.6205594754940905  0.6044528175368598  1.0000
  C   C57       1.0  0.19188168701678165  0.6838586935915032  0.19543738031801888  1.0000
  C   C58       1.0  0.5079359317441785  0.3162852661051049  0.3044874541570621  1.0000
  C   C59       1.0  0.8081179382359737  0.3161403681110074  0.8045620216844043  1.0000
  C   C60       1.0  0.49206512916511985  0.6837148119789236  0.6955121838783782  1.0000
  N   N1        1.0  0.997371465987122  0.6677300350049792  0.11937562461500312  1.0000
  N   N2        1.0  0.3293194529258088  0.3320754286717929  0.3804679735273453  1.0000
  N   N3        1.0  0.002628667475491317  0.3322700430338941  0.8806240134387124  1.0000
  N   N4        1.0  0.6706801706108435  0.6679236296879765  0.61953202869244  1.0000
  N   N5        1.0  0.16376251771527697  0.7965436184002286  0.23646783255494344  1.0000
  N   N6        1.0  0.3672077219871214  0.2034508705308583  0.2634245153492216  1.0000
  N   N7        1.0  0.8362361783746978  0.2034554399143858  0.763532169683117  1.0000
  N   N8        1.0  0.6327914840288145  0.7965492074628674  0.736575122722769  1.0000
  O   O1        1.0  0.8631758212261218  0.7841172521624602  0.8823223519006405  1.0000
  O   O2        1.0  0.07927459266262815  0.21599358220458953  0.6176967215799182  1.0000
  O   O3        1.0  0.13682523453483952  0.21588281589334468  0.11767908678686471  1.0000
  O   O4        1.0  0.9207241034273395  0.7840054761100248  0.3823032806581352  1.0000
  O   O5        1.0  0.8862513150875344  0.759531216978431  0.009665500712749485  1.0000
  O   O6        1.0  0.1265485066016225  0.24052694725750712  0.490304823730817  1.0000
  O   O7        1.0  0.11374780023925983  0.24046682504498318  0.9903342654557435  1.0000
  O   O8        1.0  0.8734487538318162  0.7594710946756038  0.5096949424742263  1.0000
  O   O9        1.0  0.25966894191775225  0.13724808034180574  0.842664939396876  1.0000
  O   O10       1.0  0.12223179847475771  0.8626982688484195  0.6573321106700335  1.0000
  O   O11       1.0  0.7403311915448682  0.8627519976970675  0.15733469865683958  1.0000
  O   O12       1.0  0.8777692607184236  0.1373018058928679  0.34266812758276194  1.0000
  O   O13       1.0  0.2634388382482342  0.1583806761895588  0.712493393108609  1.0000
  O   O14       1.0  0.10474466121589636  0.841547704494545  0.7875041157274438  1.0000
  O   O15       1.0  0.7365622243771668  0.8416194052372037  0.2875056447094764  1.0000
  O   O16       1.0  0.8952549623207564  0.15845135386523176  0.21249588649234144  1.0000
  O   O17       1.0  0.1543397134725025  0.9942751871002998  0.9883716576179894  1.0000
  O   O18       1.0  0.16008121624830102  0.0057166632039909035  0.5116374528236065  1.0000
  O   O19       1.0  0.8456604182740008  0.005724887595832202  0.011628580653081103  1.0000
  O   O20       1.0  0.8399193364511389  0.994282398543675  0.48836194916054865  1.0000
  O   O21       1.0  0.2040228341797672  0.9805770567589324  0.11369642525836815  1.0000
  O   O22       1.0  0.22334756291497376  0.0192503637683998  0.38623785830608887  1.0000
  O   O23       1.0  0.7959758619102075  0.019422001555689405  0.8863035769796923  1.0000
  O   O24       1.0  0.7766534962782147  0.9807497109728873  0.6137623799467065  1.0000
  O   O25       1.0  0.9930447939270054  0.8579791418148734  0.21640116899096287  1.0000
  O   O26       1.0  0.13495958281160372  0.14157441252164205  0.2834537845969933  1.0000
  O   O27       1.0  0.006954410372827576  0.14202093283611114  0.7835990692983829  1.0000
  O   O28       1.0  0.8650395325151905  0.8584236295017719  0.7165459815714996  1.0000
