data_image0
_chemical_formula_structural       Al2H3C24S6Br3O12
_chemical_formula_sum              "Al2 H3 C24 S6 Br3 O12"
_cell_length_a       3.977319464009322
_cell_length_b       20.140623864921697
_cell_length_c       20.14068042628547
_cell_angle_alpha    119.9997357733687
_cell_angle_beta     89.99980517433598
_cell_angle_gamma    90.00021091251277

_space_group_name_H-M_alt    "P 1"
_space_group_IT_number       1

loop_
  _space_group_symop_operation_xyz
  'x, y, z'

loop_
  _atom_site_type_symbol
  _atom_site_label
  _atom_site_symmetry_multiplicity
  _atom_site_fract_x
  _atom_site_fract_y
  _atom_site_fract_z
  _atom_site_occupancy
  Al  Al1       1.0  0.00012594816011099997  0.5000002325457871  0.4999981497030248  1.0000
  Al  Al2       1.0  0.0026496428355144994  0.16666674985134491  0.8333327394918015  1.0000
  H   H1        1.0  0.4754196940841667  0.17740632854864208  0.6148873926963603  1.0000
  H   H2        1.0  0.4754170579221012  0.9374804773616746  0.8225928994191135  1.0000
  H   H3        1.0  0.4754185084585032  0.3851139880157604  0.062518138512921  1.0000
  C   C1        1.0  0.5005337708488254  0.4402204627963826  0.38266738076355006  1.0000
  C   C2        1.0  0.5005348459650135  0.4424496256756214  0.559778770366826  1.0000
  C   C3        1.0  0.5005338725785435  0.6173318172015029  0.5575481943166736  1.0000
  C   C4        1.0  0.5020673989987258  0.22600349484898904  0.7750906615416399  1.0000
  C   C5        1.0  0.5020658678095061  0.049088495281459754  0.7739967466125252  1.0000
  C   C6        1.0  0.5020659415573404  0.22490967646432125  0.9509114904449162  1.0000
  C   C7        1.0  0.49187966983726744  0.429918880239164  0.6808811588605223  1.0000
  C   C8        1.0  0.48585154515985346  0.2387100337855444  0.6551381467071522  1.0000
  C   C9        1.0  0.499460539789105  0.4002343848093588  0.6024336773767017  1.0000
  C   C10       1.0  0.49859341618641656  0.2693765825640995  0.7336085077327539  1.0000
  C   C11       1.0  0.5032684661417406  0.29733973803152486  0.6359431762492064  1.0000
  C   C12       1.0  0.506886595109883  0.37144330707028683  0.7003976531826197  1.0000
  C   C13       1.0  0.4918783487762539  0.7509653214868806  0.5700805171330998  1.0000
  C   C14       1.0  0.48584902833995613  0.9164295378596353  0.7612904438301912  1.0000
  C   C15       1.0  0.4994606763980086  0.7022009230381558  0.5997639599105327  1.0000
  C   C16       1.0  0.4985969758311626  0.9642331714767495  0.7306244419147633  1.0000
  C   C17       1.0  0.5032625718710121  0.8386049677057557  0.7026601433249695  1.0000
  C   C18       1.0  0.5068836270116394  0.8289575915579235  0.6285580162140363  1.0000
  C   C19       1.0  0.4918797473089143  0.3191196058120198  0.249035730722305  1.0000
  C   C20       1.0  0.48585466202777644  0.34486230096671733  0.08356975674280423  1.0000
  C   C21       1.0  0.4994579967817644  0.3975662334394201  0.2977980653149999  1.0000
  C   C22       1.0  0.49859662281776446  0.2663933322510559  0.03576716582463753  1.0000
  C   C23       1.0  0.5032754692370389  0.36405775498322873  0.16139444347654575  1.0000
  C   C24       1.0  0.5068903290217647  0.2996031314983441  0.17104251108146679  1.0000
  S   S1        1.0  0.5172534782872019  0.30057792177765924  0.552018004453501  1.0000
  S   S2        1.0  0.5234322015417804  0.3689398134097175  0.7843815560743579  1.0000
  S   S3        1.0  0.51725116103443  0.7514400119539176  0.6994200098725543  1.0000
  S   S4        1.0  0.5234306791978655  0.9154453430395649  0.6310613065136295  1.0000
  S   S5        1.0  0.517249717857979  0.447983545847329  0.24855874695285957  1.0000
  S   S6        1.0  0.5234341156904775  0.21561881091114538  0.08455637734758169  1.0000
  Br  Br1       1.0  0.4858005064775526  0.5349052536678017  0.7544603739701472  1.0000
  Br  Br2       1.0  0.48579695426303  0.7195586208671401  0.4650941726551069  1.0000
  Br  Br3       1.0  0.48580189092439235  0.2455401376877475  0.28044364706406094  1.0000
  O   O1        1.0  0.7352392679264099  0.584338473156926  0.5734347914973554  1.0000
  O   O2        1.0  0.7352397380986561  0.4890993785163005  0.4156594318717096  1.0000
  O   O3        1.0  0.7352409236032997  0.42656396661570284  0.5109002616919724  1.0000
  O   O4        1.0  0.26638884271235963  0.5834444965558846  0.509044295264836  1.0000
  O   O5        1.0  0.26638749931901623  0.4909551333832597  0.5743971615325804  1.0000
  O   O6        1.0  0.26638823023233016  0.4256029931334028  0.4165550981785557  1.0000
  O   O7        1.0  0.7373876014532713  0.17627761321507066  0.9172625100911916  1.0000
  O   O8        1.0  0.7373914493790894  0.24098639268449784  0.8237220559454387  1.0000
  O   O9        1.0  0.7373880903144895  0.08273736398795979  0.759013688625437  1.0000
  O   O10       1.0  0.26967365787021447  0.24070593160432455  0.9173324881728036  1.0000
  O   O11       1.0  0.26967557004886794  0.08266654983532357  0.8233709259215942  1.0000
  O   O12       1.0  0.26967943001120176  0.1766290646593945  0.7592945602753787  1.0000
