data_image0
_chemical_formula_structural       Zn2H30C30N6O10
_chemical_formula_sum              "Zn2 H30 C30 N6 O10"
_cell_length_a       7.792643048045891
_cell_length_b       8.986487986671115
_cell_length_c       11.01741801664251
_cell_angle_alpha    86.00587275034698
_cell_angle_beta     79.38795056530074
_cell_angle_gamma    81.19935058518452

_space_group_name_H-M_alt    "P 1"
_space_group_IT_number       1

loop_
  _space_group_symop_operation_xyz
  'x, y, z'

loop_
  _atom_site_type_symbol
  _atom_site_label
  _atom_site_symmetry_multiplicity
  _atom_site_fract_x
  _atom_site_fract_y
  _atom_site_fract_z
  _atom_site_occupancy
  Zn  Zn1       1.0  0.37066160746411453  0.38941891738860335  0.42111528875491205  1.0000
  Zn  Zn2       1.0  0.6293406305137665  0.6105767732649737  0.5788808277016528  1.0000
  H   H1        1.0  0.4459826703631293  0.09859091088475941  0.5565419736776323  1.0000
  H   H2        1.0  0.5540171653332918  0.9014036259451786  0.4434545384005234  1.0000
  H   H3        1.0  0.3298111718180863  0.9519919025185574  0.7465111116140977  1.0000
  H   H4        1.0  0.6701895715246521  0.04800496609836102  0.25348966359749175  1.0000
  H   H5        1.0  0.08095412420372129  0.07611388567374179  0.9008348963421686  1.0000
  H   H6        1.0  0.9190497171934311  0.9238875567633328  0.09916697903857856  1.0000
  H   H7        1.0  0.07960300584607437  0.47449626885568835  0.6573730852429593  1.0000
  H   H8        1.0  0.9204025395000456  0.5255028945073761  0.3426259922035301  1.0000
  H   H9        1.0  0.8964136867513162  0.4824794713474461  0.8393702277869796  1.0000
  H   H10       1.0  0.10359131640156961  0.5175298089841858  0.16062552617908926  1.0000
  H   H11       1.0  0.650325142023888  0.28045455723980695  0.2050664583215181  1.0000
  H   H12       1.0  0.3496754675151124  0.7195501745197603  0.7949310889635018  1.0000
  H   H13       1.0  0.3594344322356022  0.7019503140919099  0.26547405297922927  1.0000
  H   H14       1.0  0.6405554870509887  0.2980487523127664  0.7345316441448733  1.0000
  H   H15       1.0  0.5262735399979093  0.8116968534526521  0.07271693753744302  1.0000
  H   H16       1.0  0.4737094444705006  0.1883043478966684  0.927285907556787  1.0000
  H   H17       1.0  0.7621818457734264  0.6441911781547276  0.9402374695023358  1.0000
  H   H18       1.0  0.2378095226523556  0.3558213999669491  0.059763506443992816  1.0000
  H   H19       1.0  0.8240419559599059  0.0719734659602906  0.5385306993399726  1.0000
  H   H20       1.0  0.17596208195336516  0.928026810860388  0.46146850425191854  1.0000
  H   H21       1.0  0.006492732749173096  0.17649150795892152  0.5214659949505106  1.0000
  H   H22       1.0  0.993512603283122  0.8235087565148193  0.47853122167519774  1.0000
  H   H23       1.0  0.9219941729695476  0.13101735669746256  0.3897668072100658  1.0000
  H   H24       1.0  0.07800676944885515  0.8689783592042061  0.6102322027345937  1.0000
  H   H25       1.0  0.11419228248941242  0.09710972929020299  0.14706435232900367  1.0000
  H   H26       1.0  0.8858036486117836  0.9028847929759889  0.8529344945599963  1.0000
  H   H27       1.0  0.23596273640615809  0.9790258449157321  0.2502625804840832  1.0000
  H   H28       1.0  0.7640331921354926  0.0209686644493203  0.7497353598829979  1.0000
  H   H29       1.0  0.3497183053651014  0.0689195474698892  0.11913971802191274  1.0000
  H   H30       1.0  0.6502767308874763  0.9310727075150357  0.880859398343269  1.0000
  C   C1        1.0  0.33666024102429754  0.1480017735027204  0.6247713562802064  1.0000
  C   C2        1.0  0.6633422113864923  0.8519928418424741  0.37522843404097045  1.0000
  C   C3        1.0  0.2710663828898063  0.0679856219269723  0.7310299040489172  1.0000
  C   C4        1.0  0.72893326140958  0.9320101063216413  0.26897109286193205  1.0000
  C   C5        1.0  0.13281997224957814  0.13678021706591179  0.8169448362342708  1.0000
  C   C6        1.0  0.8671775417945469  0.8632199537746316  0.18305251740352452  1.0000
  C   C7        1.0  0.06396920801756069  0.28754562300296976  0.7930627777527238  1.0000
  C   C8        1.0  0.9360357298634058  0.7124569469012698  0.20693796940683754  1.0000
  C   C9        1.0  0.1343743406819371  0.3595956148424905  0.6812176503333804  1.0000
  C   C10       1.0  0.8656310030289874  0.6404046883346766  0.3187822858581059  1.0000
  C   C11       1.0  0.8500215121339706  0.3288684233904746  0.9881457010329701  1.0000
  C   C12       1.0  0.1499873482590175  0.6711342513855031  0.011859056969207398  1.0000
  C   C13       1.0  0.7200225971522086  0.4460066051246443  0.05998907789692255  1.0000
  C   C14       1.0  0.2799776167950085  0.5540004449665615  0.9400129064438689  1.0000
  C   C15       1.0  0.624336045640021  0.3971557333359641  0.17215136438241538  1.0000
  C   C16       1.0  0.37566196254185513  0.6028489973151991  0.8278483437911179  1.0000
  C   C17       1.0  0.464276669442846  0.6331104741933231  0.2059984241754621  1.0000
  C   C18       1.0  0.5357148199889679  0.3668941762799918  0.7940012470878133  1.0000
  C   C19       1.0  0.5565102756391053  0.692603800515137  0.09803244880335883  1.0000
  C   C20       1.0  0.4434816221821978  0.30739859613225207  0.9019673180137677  1.0000
  C   C21       1.0  0.6872790795023677  0.5986493828081123  0.0243142216669838  1.0000
  C   C22       1.0  0.31271701029762516  0.4013587022254513  0.9756846105761884  1.0000
  C   C23       1.0  0.7569810582826476  0.30590726798606477  0.49453947967705875  1.0000
  C   C24       1.0  0.24302207966292846  0.6940907157510666  0.5054581803471694  1.0000
  C   C25       1.0  0.8877032827348118  0.16341955885459214  0.4862504678288675  1.0000
  C   C26       1.0  0.11230095681366237  0.8365795781519836  0.5137478770180268  1.0000
  C   C27       1.0  0.2351747745098861  0.21773557937287077  0.26505194394581383  1.0000
  C   C28       1.0  0.7648218574833409  0.7822623886921249  0.734950211777772  1.0000
  C   C29       1.0  0.230815422860239  0.08243237184091609  0.19117731265739488  1.0000
  C   C30       1.0  0.7691801075300831  0.9175644429546352  0.8088241582435247  1.0000
  N   N1        1.0  0.2674254241521298  0.2915425673676991  0.6000279481183315  1.0000
  N   N2        1.0  0.7325744217824591  0.7084520210668118  0.39997219004751383  1.0000
  N   N3        1.0  0.9318308454709125  0.37423857955840134  0.8733570002967712  1.0000
  N   N4        1.0  0.06817197495251293  0.625768497443488  0.12664463619935165  1.0000
  N   N5        1.0  0.4995861364890644  0.4878147113249439  0.24370640733074828  1.0000
  N   N6        1.0  0.5004053580618333  0.5121899649506573  0.756295076976379  1.0000
  O   O1        1.0  0.8772071773725826  0.1985440622335091  0.032905399292978636  1.0000
  O   O2        1.0  0.12280649014287087  0.8014609330909084  0.9670994739879437  1.0000
  O   O3        1.0  0.621006617294398  0.3055037314030499  0.447030278922526  1.0000
  O   O4        1.0  0.3789959029478567  0.6944976072706838  0.5529654247270843  1.0000
  O   O5        1.0  0.7910522275051761  0.41522083831559803  0.5502505396330407  1.0000
  O   O6        1.0  0.20894741679420994  0.5847748899330156  0.44975045727780855  1.0000
  O   O7        1.0  0.3464452623810672  0.19955877332434818  0.33959264668178707  1.0000
  O   O8        1.0  0.6535578858026765  0.800439262017356  0.660408639430138  1.0000
  O   O9        1.0  0.13573320015787257  0.33967079890233254  0.24954996511597477  1.0000
  O   O10       1.0  0.8642681455309354  0.6603226373711238  0.750447327338691  1.0000
