data_image0
_chemical_formula_structural       Zn2H4C22N2O8F8
_chemical_formula_sum              "Zn2 H4 C22 N2 O8 F8"
_cell_length_a       10.637713774214278
_cell_length_b       11.873399021188488
_cell_length_c       16.089706800020377
_cell_angle_alpha    89.99984331073139
_cell_angle_beta     89.99990697462783
_cell_angle_gamma    90.00067389369143

_space_group_name_H-M_alt    "P 1"
_space_group_IT_number       1

loop_
  _space_group_symop_operation_xyz
  'x, y, z'

loop_
  _atom_site_type_symbol
  _atom_site_label
  _atom_site_symmetry_multiplicity
  _atom_site_fract_x
  _atom_site_fract_y
  _atom_site_fract_z
  _atom_site_occupancy
  Zn  Zn1       1.0  0.3708086166051531  0.5002985089139854  0.4999997069963131  1.0000
  Zn  Zn2       1.0  0.6292438457714056  0.5002519600402947  0.4999989470882584  1.0000
  H   H1        1.0  0.3837582810063155  0.6423311561152687  0.0717319640206071  1.0000
  H   H2        1.0  0.6019471320434278  0.6507444681906945  0.071736189262765  1.0000
  H   H3        1.0  0.38375346704332003  0.642328725955906  0.928261555975688  1.0000
  H   H4        1.0  0.6019470183628784  0.6507454069388529  0.9282626736351036  1.0000
  C   C1        1.0  0.5000115855313467  0.7191135801276117  0.5000000386174862  1.0000
  C   C2        1.0  0.5000297887587095  0.49963021657031675  0.6615122149238746  1.0000
  C   C3        1.0  0.500030186179565  0.4996333420850546  0.33848581893919777  1.0000
  C   C4        1.0  0.5000129549036744  0.9435497331883409  0.5000029198423167  1.0000
  C   C5        1.0  0.5000207868023665  0.8405295283360203  0.5000011591912995  1.0000
  C   C6        1.0  0.9357110088401653  0.4996649775865263  0.5000025126028549  1.0000
  C   C7        1.0  0.06431794483198422  0.49967185391541585  0.5000036009026874  1.0000
  C   C8        1.0  0.500057798875268  0.28161796596060623  0.5000017228522184  1.0000
  C   C9        1.0  0.3813961964327889  0.5550006858547503  0.9513391323420566  1.0000
  C   C10       1.0  0.6126367271672778  0.5639202450525147  0.9513408640206082  1.0000
  C   C11       1.0  0.3813963669112326  0.555002359329684  0.048657673906241414  1.0000
  C   C12       1.0  0.500088568412977  0.4977191458941163  0.24849350351419028  1.0000
  C   C13       1.0  0.6126368976369676  0.5639202340921371  0.04865816255576051  1.0000
  C   C14       1.0  0.5000094269559341  0.05718770816299919  0.5000007061927223  1.0000
  C   C15       1.0  0.4999978347598102  0.16019275305782088  0.50000122383031  1.0000
  C   C16       1.0  0.5000879495347236  0.49771063339433386  0.7515039126375813  1.0000
  C   C17       1.0  0.5001572867816223  0.4939034983376303  0.9167909557290559  1.0000
  C   C18       1.0  0.5001564321955244  0.4939042014884975  0.08320708955169921  1.0000
  C   C19       1.0  0.5060620704030612  0.37133114096133096  0.049241395291339515  1.0000
  C   C20       1.0  0.5060656615734871  0.3713311541033446  0.9507587554441632  1.0000
  C   C21       1.0  0.5002042679696429  0.49453906787656604  0.17321494409419103  1.0000
  C   C22       1.0  0.5002072241047344  0.49453532959315516  0.8267824783413149  1.0000
  N   N1        1.0  0.8265757185689394  0.49996419195505826  0.500000084701661  1.0000
  N   N2        1.0  0.17345229859238742  0.49995208609128355  0.5000016776124314  1.0000
  O   O1        1.0  0.392637659095648  0.6714097011038688  0.49999952273156395  1.0000
  O   O2        1.0  0.6073755291944565  0.6713873301175963  0.49999940772246293  1.0000
  O   O3        1.0  0.3927408059696021  0.5004129399923655  0.6264252431726264  1.0000
  O   O4        1.0  0.6073028856992551  0.5002676041178304  0.6263984032209964  1.0000
  O   O5        1.0  0.3927411170334167  0.5004117243185959  0.3735722825467037  1.0000
  O   O6        1.0  0.6073031967171048  0.5002697572190583  0.3735995144284702  1.0000
  O   O7        1.0  0.3927248769352046  0.3293475850196754  0.5000029752425946  1.0000
  O   O8        1.0  0.6074401854137009  0.32926204750112475  0.4999997527324639  1.0000
  F   F1        1.0  0.4055061259027823  0.3107995313785351  0.9224028533322156  1.0000
  F   F2        1.0  0.6120383343028167  0.31877987726392826  0.9223946549480007  1.0000
  F   F3        1.0  0.40549870477400424  0.31080193973797066  0.07759504117399982  1.0000
  F   F4        1.0  0.6120318531688228  0.31877723227662347  0.07760797431680543  1.0000
  F   F5        1.0  0.7261468138662509  0.5241766351683168  0.9213626711660369  1.0000
  F   F6        1.0  0.2721318594120774  0.5066862431905718  0.9213156968464988  1.0000
  F   F7        1.0  0.726146910568339  0.524175670834971  0.07863693548108593  1.0000
  F   F8        1.0  0.2721328960767763  0.5066894897837455  0.07868318846159643  1.0000
