data_image0
_chemical_formula_structural       Co2H38C34N10O8
_chemical_formula_sum              "Co2 H38 C34 N10 O8"
_cell_length_a       8.33381990080874
_cell_length_b       9.011752435334575
_cell_length_c       11.319476173709267
_cell_angle_alpha    82.89553245231113
_cell_angle_beta     86.01092265391586
_cell_angle_gamma    78.83533562461655

_space_group_name_H-M_alt    "P 1"
_space_group_IT_number       1

loop_
  _space_group_symop_operation_xyz
  'x, y, z'

loop_
  _atom_site_type_symbol
  _atom_site_label
  _atom_site_symmetry_multiplicity
  _atom_site_fract_x
  _atom_site_fract_y
  _atom_site_fract_z
  _atom_site_occupancy
  Co  Co1       1.0  0.5232730851546422  0.9142386507431793  0.930046755937916  1.0000
  Co  Co2       1.0  0.4767289890367224  0.0857631731199362  0.0699570912540821  1.0000
  H   H1        1.0  0.3846856983864129  0.4652860466486927  0.9072006892446538  1.0000
  H   H2        1.0  0.6153133802547401  0.5347066775565423  0.09280414703882661  1.0000
  H   H3        1.0  0.3781290886093415  0.6509874665135628  0.9466846857274975  1.0000
  H   H4        1.0  0.6218714475101024  0.3490098959907613  0.053312582251017204  1.0000
  H   H5        1.0  0.8308917736278901  0.8671540900704926  0.5933063475286603  1.0000
  H   H6        1.0  0.16910396496461289  0.13284324562480523  0.40669382728759024  1.0000
  H   H7        1.0  0.7352603420233522  0.9419498052556818  0.7228833342644239  1.0000
  H   H8        1.0  0.26473373913758286  0.0580498085377172  0.2771167203679711  1.0000
  H   H9        1.0  0.8796398414385961  0.5053169663307389  0.44567420031783206  1.0000
  H   H10       1.0  0.12035911984013131  0.49468833076929275  0.5543250772711162  1.0000
  H   H11       1.0  0.9277872313365594  0.32398644216083744  0.29103200006122165  1.0000
  H   H12       1.0  0.07221568136752407  0.6760291354934793  0.7089625961479342  1.0000
  H   H13       1.0  0.7679871241077764  0.11514913026759642  0.3051801275843857  1.0000
  H   H14       1.0  0.23202269782682086  0.8848619195913585  0.6948118656992507  1.0000
  H   H15       1.0  0.5783004947615282  0.07650814832069842  0.4797670391060224  1.0000
  H   H16       1.0  0.42171684529495923  0.9234892803683153  0.5202222654901477  1.0000
  H   H17       1.0  0.5321136163948381  0.2568540169783731  0.6338502223188982  1.0000
  H   H18       1.0  0.467897308511823  0.7431274225485466  0.36614618205130267  1.0000
  H   H19       1.0  0.26003764223055015  0.36639295074106565  0.729826659113087  1.0000
  H   H20       1.0  0.7399561397658729  0.6336202746713653  0.2701757029397243  1.0000
  H   H21       1.0  0.11099365673867817  0.44451639667308734  0.9200345233313811  1.0000
  H   H22       1.0  0.8889957094861675  0.5554888468088848  0.07997056793304577  1.0000
  H   H23       1.0  0.9817949400808317  0.4710992976608992  0.7987656620466697  1.0000
  H   H24       1.0  0.01820345715231039  0.5288968413037692  0.2012388986442701  1.0000
  H   H25       1.0  0.0156530824831052  0.20338565218423807  0.9975384872895179  1.0000
  H   H26       1.0  0.9843434150711589  0.7966139363079849  0.0024632086936690785  1.0000
  H   H27       1.0  0.8507384156270135  0.357870778019894  0.9819880953253207  1.0000
  H   H28       1.0  0.14925183395633468  0.6421299677433367  0.0180129422963162  1.0000
  H   H29       1.0  0.7908579927548162  0.2889912246936603  0.7866809760635649  1.0000
  H   H30       1.0  0.2091372966027834  0.7110083764491505  0.21331989924422604  1.0000
  H   H31       1.0  0.9379290511130806  0.051972776367989595  0.7092897856082843  1.0000
  H   H32       1.0  0.06207180480742376  0.9480290822632542  0.2907114724685087  1.0000
  H   H33       1.0  0.0671847688892129  0.012586577831925199  0.8307329178862661  1.0000
  H   H34       1.0  0.9328144346368247  0.9874175478386606  0.16926910422657226  1.0000
  H   H35       1.0  0.038743339184250734  0.2876082471471759  0.6382103753931007  1.0000
  H   H36       1.0  0.9612549709090672  0.7124003983596837  0.3617939319227262  1.0000
  H   H37       1.0  0.20472668974894498  0.13338400100301584  0.651126991712708  1.0000
  H   H38       1.0  0.7952730405657392  0.8666235267764152  0.34887557548297826  1.0000
  C   C1        1.0  0.5211216814786539  0.5941578153486163  0.7990319602080973  1.0000
  C   C2        1.0  0.4788766653834671  0.4058384342037371  0.2009637582837982  1.0000
  C   C3        1.0  0.6842984544132521  0.7385574982942771  0.6877963499291084  1.0000
  C   C4        1.0  0.31570185960728747  0.2614409914044202  0.3122017104051197  1.0000
  C   C5        1.0  0.6623732735066384  0.5088630848717415  0.6335400271276442  1.0000
  C   C6        1.0  0.3376257799490078  0.49112969462733963  0.36646038805631787  1.0000
  C   C7        1.0  0.7012629638542337  0.39372692161214934  0.5480346455193514  1.0000
  C   C8        1.0  0.2987432934474725  0.6062658815123214  0.4519627357378583  1.0000
  C   C9        1.0  0.8149868139476127  0.4104830168181622  0.4521587846810036  1.0000
  C   C10       1.0  0.1850228982134112  0.5895165983991362  0.5478386754329919  1.0000
  C   C11       1.0  0.8414611093458575  0.30906299060382025  0.3663396991763578  1.0000
  C   C12       1.0  0.15854814350606017  0.6909389121785381  0.6336566929893621  1.0000
  C   C13       1.0  0.7543367522710227  0.19008614370338253  0.37505378272298634  1.0000
  C   C14       1.0  0.2456727075684952  0.8099146650609016  0.6249391644272962  1.0000
  C   C15       1.0  0.6452753379151944  0.169855095691446  0.47238881861675713  1.0000
  C   C16       1.0  0.35473650809503704  0.8301457541242743  0.5276004645649054  1.0000
  C   C17       1.0  0.6190526685073793  0.2703841232648044  0.5587936227839023  1.0000
  C   C18       1.0  0.38095162667300286  0.729606428654556  0.4412023008508755  1.0000
  C   C19       1.0  0.7392523771410852  0.11648496659832117  0.9109068647663253  1.0000
  C   C20       1.0  0.2607412447107436  0.8835169347601379  0.08909212191780821  1.0000
  C   C21       1.0  0.31337539868910363  0.1829862914242995  0.8629502052413617  1.0000
  C   C22       1.0  0.6866205871878109  0.817009861782772  0.1370535983186869  1.0000
  C   C23       1.0  0.18900266547804284  0.2894273517184089  0.7847968808052815  1.0000
  C   C24       1.0  0.8110018251066435  0.7105744468435374  0.21520860773750888  1.0000
  C   C25       1.0  0.056122551398203796  0.3841061171500045  0.8598295530072094  1.0000
  C   C26       1.0  0.9438759284257827  0.6158956783122633  0.14017713747802674  1.0000
  C   C27       1.0  0.9448058042282457  0.2857262796714792  0.9313010508600573  1.0000
  C   C28       1.0  0.05518949520355679  0.7142732993537991  0.0687015928875425  1.0000
  C   C29       1.0  0.8657828126978587  0.2016646839916945  0.8479873739372226  1.0000
  C   C30       1.0  0.1342108242652742  0.7983371841904586  0.15201426540662064  1.0000
  C   C31       1.0  0.9959458895389021  0.1055730422836092  0.7723864114394275  1.0000
  C   C32       1.0  0.004050685569104907  0.8944322137649863  0.22761653011815508  1.0000
  C   C33       1.0  0.10989701369180697  0.20357079989855012  0.7029660182834265  1.0000
  C   C34       1.0  0.8901046112646543  0.7964332894120928  0.297038529400112  1.0000
  N   N1        1.0  0.5810020664964243  0.7260110892269508  0.7855127815652596  1.0000
  N   N2        1.0  0.41899269607252176  0.27398510980701474  0.21448754865968314  1.0000
  N   N3        1.0  0.7298642158874104  0.6330112113781893  0.6105163945460178  1.0000
  N   N4        1.0  0.2701348426053372  0.36698155706211827  0.3894849048578522  1.0000
  N   N5        1.0  0.5599663719903987  0.48199509847491834  0.7267270695537038  1.0000
  N   N6        1.0  0.4400283704301416  0.5180011447941198  0.27326972379162134  1.0000
  N   N7        1.0  0.413854617508818  0.5702961238365205  0.889637160301412  1.0000
  N   N8        1.0  0.5861369999276604  0.42969778134907705  0.11036531272522859  1.0000
  N   N9        1.0  0.745518862180461  0.8665451026701234  0.6613219149258996  1.0000
  N   N10       1.0  0.2544722858727014  0.13345111219806677  0.33867772171266364  1.0000
  O   O1        1.0  0.7071342804404993  0.001979037795457801  0.8671011462465402  1.0000
  O   O2        1.0  0.2928595836586396  0.9980216921335483  0.13290058496148305  1.0000
  O   O3        1.0  0.6618456739657503  0.16701837258737126  0.0037158219701894173  1.0000
  O   O4        1.0  0.33815496993005206  0.8329845911207058  0.9962879969021331  1.0000
  O   O5        1.0  0.34140623459946806  0.22681819623888094  0.9620024251701481  1.0000
  O   O6        1.0  0.6586049803737665  0.773185957748588  0.03799542461799631  1.0000
  O   O7        1.0  0.38342210738575494  0.05667478679087171  0.8263317276336792  1.0000
  O   O8        1.0  0.6165847643325506  0.9433270638812774  0.1736692127205757  1.0000
