data_image0
_chemical_formula_structural       Zr6H17C52S10N2Cl5O32
_chemical_formula_sum              "Zr6 H17 C52 S10 N2 Cl5 O32"
_cell_length_a       16.4669763897146
_cell_length_b       16.451966207480655
_cell_length_c       16.518667736806933
_cell_angle_alpha    61.608359453139414
_cell_angle_beta     59.80912231272525
_cell_angle_gamma    60.24960673969112

_space_group_name_H-M_alt    "P 1"
_space_group_IT_number       1

loop_
  _space_group_symop_operation_xyz
  'x, y, z'

loop_
  _atom_site_type_symbol
  _atom_site_label
  _atom_site_symmetry_multiplicity
  _atom_site_fract_x
  _atom_site_fract_y
  _atom_site_fract_z
  _atom_site_occupancy
  Zr  Zr1       1.0  0.8870704167013839  0.9031456166726813  0.5977223080304197  1.0000
  Zr  Zr2       1.0  0.11057536727630439  0.10318646803552411  0.39786839702991017  1.0000
  Zr  Zr3       1.0  0.10128795482903284  0.8940821703354728  0.6073401677994424  1.0000
  Zr  Zr4       1.0  0.8966116424925374  0.11258417521408144  0.3889501586782629  1.0000
  Zr  Zr5       1.0  0.10798317415991204  0.8936482840478986  0.38949336298156806  1.0000
  Zr  Zr6       1.0  0.8899024036691541  0.11146773533074829  0.6076863076268565  1.0000
  H   H1        1.0  0.07655308272586604  0.7529588245193891  0.5781079012965477  1.0000
  H   H2        1.0  0.09155715226705043  0.0828812542813608  0.24796115161865365  1.0000
  H   H3        1.0  0.0827470435313985  0.08212943911550506  0.5897679831043375  1.0000
  H   H4        1.0  0.7440941917391157  0.09458354815212999  0.5774358013107489  1.0000
  H   H5        1.0  0.12550115162205325  0.6120386391778254  0.36202428538694414  1.0000
  H   H6        1.0  0.6111047938691885  0.12659266678410575  0.9000095143118542  1.0000
  H   H7        1.0  0.8664821136705638  0.12466684448484243  0.11823235329046601  1.0000
  H   H8        1.0  0.6217060605733025  0.3967564233230122  0.3638928745897942  1.0000
  H   H9        1.0  0.09735689794698747  0.6416726874382733  0.8711834225328089  1.0000
  H   H10       1.0  0.8424520391612518  0.6558018357690758  0.8492927866718033  1.0000
  H   H11       1.0  0.8882965490033142  0.37759601496802037  0.13652105786129468  1.0000
  H   H12       1.0  0.15321407556763228  0.35312296308627117  0.1485368893008356  1.0000
  H   H13       1.0  0.6205775072526758  0.876059145647659  0.6108053201528775  1.0000
  H   H14       1.0  0.20709744006765637  0.5468651569425873  0.9222713907864062  1.0000
  H   H15       1.0  0.24307889388897752  0.460867424046036  0.01891630105174608  1.0000
  H   H16       1.0  0.8214565562676838  0.42965264211255066  0.04194900795391021  1.0000
  H   H17       1.0  0.77362336033255  0.5272897798048464  0.9575642678251054  1.0000
  C   C1        1.0  0.9940431615379662  0.7392476769005184  0.4845780498541359  1.0000
  C   C2        1.0  0.281228719053011  0.9881130353705745  0.23514124807464754  1.0000
  C   C3        1.0  0.9963605155934161  0.2730570973858377  0.5055366575675038  1.0000
  C   C4        1.0  0.7241589374029828  0.008606342313896776  0.7688664107705064  1.0000
  C   C5        1.0  0.9792502588719715  0.7420381117430923  0.7662367044502644  1.0000
  C   C6        1.0  0.7305600407811215  0.007021562660718076  0.48610752257064854  1.0000
  C   C7        1.0  0.011609137508862858  0.2714819581823207  0.23627237149789684  1.0000
  C   C8        1.0  0.2754336095951897  0.9928166915801101  0.5001927941859136  1.0000
  C   C9        1.0  0.2722052052548561  0.7309000469024555  0.49734439669025216  1.0000
  C   C10       1.0  0.9909838313996526  0.9968934224750753  0.7777756431322301  1.0000
  C   C11       1.0  0.7334515313108128  0.2823212844446842  0.493589717386733  1.0000
  C   C12       1.0  0.9997146324235333  0.0006652036415316391  0.22649197854695297  1.0000
  C   C13       1.0  0.9243218511414781  0.4237367955824638  0.5645026970055794  1.0000
  C   C14       1.0  0.06171540111427723  0.5930633464769742  0.4235295385301682  1.0000
  C   C15       1.0  0.9928071658932114  0.3650589293517185  0.5028531864845929  1.0000
  C   C16       1.0  0.9931256308849042  0.6497271463694008  0.4862034580009222  1.0000
  C   C17       1.0  0.03660052997075507  0.5104919783258312  0.4517595556007946  1.0000
  C   C18       1.0  0.9492996713411727  0.5067068578532596  0.5353662317191732  1.0000
  C   C19       1.0  0.42266989564696167  0.9254079928382379  0.08788818907996894  1.0000
  C   C20       1.0  0.5897441419015622  0.06511232054442218  0.9192545258156171  1.0000
  C   C21       1.0  0.370738511114254  0.9871377093328138  0.1464797835879565  1.0000
  C   C22       1.0  0.6391043075554494  0.003512382832639137  0.8616643061082098  1.0000
  C   C23       1.0  0.5107622432374441  0.03652627321900324  0.002386289434923636  1.0000
  C   C24       1.0  0.5024472549424385  0.9536586844632994  0.005652343999123771  1.0000
  C   C25       1.0  0.05940926390042018  0.9288504670564561  0.9168263007280969  1.0000
  C   C26       1.0  0.9282015655237785  0.06317990984987873  0.09322184132449253  1.0000
  C   C27       1.0  0.992131111127904  0.9943729705529448  0.86734583142119  1.0000
  C   C28       1.0  0.9967587481448276  0.9977897628582824  0.14027224323914586  1.0000
  C   C29       1.0  0.9506150350991686  0.03803459429071426  0.011752552969717486  1.0000
  C   C30       1.0  0.035800706889119537  0.9537670142586095  0.9990083328375121  1.0000
  C   C31       1.0  0.4150317455168632  0.5953129422081462  0.5623047757794878  1.0000
  C   C32       1.0  0.5965726038778172  0.4210361963249768  0.42598984928169153  1.0000
  C   C33       1.0  0.3640168051550318  0.6449413376973042  0.49657748613262226  1.0000
  C   C34       1.0  0.6451988634266923  0.3723043225426396  0.492927647030541  1.0000
  C   C35       1.0  0.5126738874858318  0.5028058901896486  0.4508518472354978  1.0000
  C   C36       1.0  0.4996235246682445  0.514284461999253  0.5363756933661319  1.0000
  C   C37       1.0  0.04074231051313146  0.6092693564615744  0.9001907430525973  1.0000
  C   C38       1.0  0.8946294346910549  0.6184766778519305  0.8883621335443406  1.0000
  C   C39       1.0  0.8861503017794019  0.5362400678353795  0.969548791761923  1.0000
  C   C40       1.0  0.9562039378847513  0.4881190446898527  0.01961171708610712  1.0000
  C   C41       1.0  0.9488319444288749  0.40597635410025384  0.10373900796793839  1.0000
  C   C42       1.0  0.0988491270652432  0.39265316347241713  0.1116616679562696  1.0000
  C   C43       1.0  0.10847145940425655  0.4738751764340919  0.02932064486306273  1.0000
  C   C44       1.0  0.035538537522697464  0.5249616273131538  0.9821236142044181  1.0000
  C   C45       1.0  0.9712336294806718  0.6550072198521876  0.8544085579493128  1.0000
  C   C46       1.0  0.01899076562720131  0.35938627320681604  0.14891992348679392  1.0000
  C   C47       1.0  0.417917169304154  0.060094770821393806  0.42721342031127546  1.0000
  C   C48       1.0  0.5958510581051326  0.9353176168623918  0.5511709152251497  1.0000
  C   C49       1.0  0.3669343387402431  0.9937378553716346  0.49423670994216445  1.0000
  C   C50       1.0  0.6439249130672523  0.003283021788789038  0.4848174660260438  1.0000
  C   C51       1.0  0.5134035744583795  0.9554737976005826  0.5301327946878942  1.0000
  C   C52       1.0  0.5012444054661174  0.03826363663790036  0.4478810412235176  1.0000
  S   S1        1.0  0.08734332591711792  0.4117041324978531  0.4095218611053396  1.0000
  S   S2        1.0  0.8978587625287987  0.6041636284289496  0.5792157167962985  1.0000
  S   S3        1.0  0.4202035264102052  0.07898408276545864  0.1010840273571603  1.0000
  S   S4        1.0  0.5911075954640596  0.9106569737985668  0.9074296944876393  1.0000
  S   S5        1.0  0.9001996858533374  0.0861543595081356  0.9220558987538396  1.0000
  S   S6        1.0  0.08830719178045833  0.9053297084511128  0.08669562044579482  1.0000
  S   S7        1.0  0.42066938166001905  0.5923544833828346  0.4027871836919417  1.0000
  S   S8        1.0  0.5901330236621476  0.42524953379630387  0.5860547849536528  1.0000
  S   S9        1.0  0.42190652650855737  0.9047817787943446  0.5815663094779494  1.0000
  S   S10       1.0  0.5904569401855397  0.09136733169760464  0.39630661236772363  1.0000
  N   N1        1.0  0.18541190631493248  0.5079573074839133  0.9942640764408067  1.0000
  N   N2        1.0  0.8091539825196675  0.5020267020325306  0.004601084043422124  1.0000
  Cl  Cl1       1.0  0.8217770214375834  0.40272804959302994  0.6640360188248167  1.0000
  Cl  Cl2       1.0  0.39685109557345294  0.8276688217387331  0.10744869401779779  1.0000
  Cl  Cl3       1.0  0.16053008737606686  0.8299661722405888  0.8863174989717918  1.0000
  Cl  Cl4       1.0  0.38415676829407625  0.624041838114259  0.6633762487809631  1.0000
  Cl  Cl5       1.0  0.38857539039975114  0.15802229775021456  0.3309846909567185  1.0000
  O   O1        1.0  0.9224834778228728  0.777549076967368  0.5519967892745042  1.0000
  O   O2        1.0  0.24726206625980754  0.05714650377199595  0.2712511147196537  1.0000
  O   O3        1.0  0.0695603257096806  0.23499359940852577  0.43857060729929725  1.0000
  O   O4        1.0  0.7561179727543035  0.9432391541231057  0.7288208825529948  1.0000
  O   O5        1.0  0.050735182883187  0.7727996567355008  0.7346492210229127  1.0000
  O   O6        1.0  0.7655083283092665  0.07558826354884474  0.42021905502858187  1.0000
  O   O7        1.0  0.9406835648836706  0.24004722825368666  0.26720571201936133  1.0000
  O   O8        1.0  0.2393820602223541  0.92613861634743  0.5694336987627009  1.0000
  O   O9        1.0  0.23991494489701623  0.7622444446257719  0.4280187537629202  1.0000
  O   O10       1.0  0.9226533542437849  0.06784777454262803  0.7444287207449631  1.0000
  O   O11       1.0  0.7647593527657789  0.24705507401768068  0.5644516826645898  1.0000
  O   O12       1.0  0.06888099075956673  0.9317215638425296  0.25958155369451663  1.0000
  O   O13       1.0  0.059567887390336687  0.9286184229867871  0.7396010748391715  1.0000
  O   O14       1.0  0.770118737552572  0.24612535360538595  0.42398482129418363  1.0000
  O   O15       1.0  0.933517948098412  0.07278096128023032  0.26004753118684215  1.0000
  O   O16       1.0  0.23141892619114657  0.7665127426533829  0.5681848170506  1.0000
  O   O17       1.0  0.9140059048405718  0.7796434152880495  0.7260905087409312  1.0000
  O   O18       1.0  0.2384377114239555  0.06158277688444962  0.434757364036578  1.0000
  O   O19       1.0  0.07908517171870241  0.23141396845642956  0.2741770709296389  1.0000
  O   O20       1.0  0.7624277824973973  0.9405470574067537  0.55577664832483  1.0000
  O   O21       1.0  0.7582483847827249  0.07766549548340156  0.735528212577293  1.0000
  O   O22       1.0  0.06634559560899325  0.7700798408445736  0.4181108571311539  1.0000
  O   O23       1.0  0.24333839067335092  0.9221332903955572  0.26784214605129353  1.0000
  O   O24       1.0  0.9275414141530048  0.23809935764627  0.5740988963160659  1.0000
  O   O25       1.0  0.8164547847488991  0.06968021178031601  0.5543490109605499  1.0000
  O   O26       1.0  0.05827994818048412  0.059223031275195084  0.5648011791403107  1.0000
  O   O27       1.0  0.06563207018614751  0.05915500865395986  0.31909823421409556  1.0000
  O   O28       1.0  0.054912906399792384  0.824059857000435  0.5540485369930579  1.0000
  O   O29       1.0  0.13287497714054514  0.9538849678994055  0.45669561782921153  1.0000
  O   O30       1.0  0.9553377667810634  0.9618127927007765  0.44857052999539343  1.0000
  O   O31       1.0  0.9572637493930714  0.1347263231148546  0.4572219806973121  1.0000
  O   O32       1.0  0.9496746275797034  0.9618542927142429  0.6297225186501475  1.0000
