data_image0
_chemical_formula_structural       Cu2H24C30N4Cl2O4
_chemical_formula_sum              "Cu2 H24 C30 N4 Cl2 O4"
_cell_length_a       7.014189569019858
_cell_length_b       10.189969300579682
_cell_length_c       11.21278148546431
_cell_angle_alpha    70.35759113426853
_cell_angle_beta     77.56598809477012
_cell_angle_gamma    79.76466617384375

_space_group_name_H-M_alt    "P 1"
_space_group_IT_number       1

loop_
  _space_group_symop_operation_xyz
  'x, y, z'

loop_
  _atom_site_type_symbol
  _atom_site_label
  _atom_site_symmetry_multiplicity
  _atom_site_fract_x
  _atom_site_fract_y
  _atom_site_fract_z
  _atom_site_occupancy
  Cu  Cu1       1.0  0.6583434980104599  0.35594256233288496  0.06406128998685998  1.0000
  Cu  Cu2       1.0  0.3416694172477223  0.6440628153949393  0.935935410634812  1.0000
  H   H1        1.0  0.8786420620802533  0.5423731828841339  0.8015834232173019  1.0000
  H   H2        1.0  0.12136808731224143  0.4576219324735646  0.19841028376600178  1.0000
  H   H3        1.0  0.04821446799912374  0.49415148657812563  0.5980211614917437  1.0000
  H   H4        1.0  0.9517886826634481  0.5058415113865138  0.40197584078999427  1.0000
  H   H5        1.0  0.07632803891446122  0.2513358354078576  0.5813501184892685  1.0000
  H   H6        1.0  0.9236776674168538  0.748658958641052  0.41865496588611956  1.0000
  H   H7        1.0  0.011137467785580755  0.9908773241329953  0.699016196364333  1.0000
  H   H8        1.0  0.9888749921117467  0.009110920717716901  0.3009969874854406  1.0000
  H   H9        1.0  0.8732722637716961  0.8154516194898493  0.893054604651297  1.0000
  H   H10       1.0  0.126738777064233  0.18454609024864513  0.10695520679050217  1.0000
  H   H11       1.0  0.6741417343668064  0.7583059209863877  0.12326939540508866  1.0000
  H   H12       1.0  0.32586253791727426  0.24169825210513815  0.8767350192698444  1.0000
  H   H13       1.0  0.496442456477844  0.8489006698891544  0.30459691578926845  1.0000
  H   H14       1.0  0.5035320170546173  0.15110815901324776  0.6954002675911539  1.0000
  H   H15       1.0  0.487335978626632  0.10559344225404034  0.28009155069766206  1.0000
  H   H16       1.0  0.5126650800982374  0.8944129855768994  0.7199081879492866  1.0000
  H   H17       1.0  0.7380318731808446  0.30580607831882395  0.49863544797420895  1.0000
  H   H18       1.0  0.26195505281641845  0.6941880776660483  0.5013624561872801  1.0000
  H   H19       1.0  0.5021572515955556  0.2639860586835994  0.49882867890150345  1.0000
  H   H20       1.0  0.4978287230149335  0.736005159539758  0.5011639316315807  1.0000
  H   H21       1.0  0.625656176551985  0.5598378148959782  0.36794890770148914  1.0000
  H   H22       1.0  0.374332476988812  0.4401539506314903  0.6320583658545117  1.0000
  H   H23       1.0  0.39079834656919843  0.5089176600624086  0.3913004624661697  1.0000
  H   H24       1.0  0.6091892343389064  0.49108164509371477  0.6086985824902483  1.0000
  C   C1        1.0  0.8884453433763968  0.43870394816718067  0.7910959308220099  1.0000
  C   C2        1.0  0.11156371541794391  0.5613078209689277  0.20889679712981749  1.0000
  C   C3        1.0  0.9846372266402884  0.40945359906771034  0.6771973379600097  1.0000
  C   C4        1.0  0.015378603685526616  0.5905425067204249  0.32279623989808925  1.0000
  C   C5        1.0  0.9996722064682331  0.2756672881217598  0.6684493769406146  1.0000
  C   C6        1.0  0.0003317153558271142  0.7243203530088992  0.33155260200975073  1.0000
  C   C7        1.0  0.9181372402348205  0.16821203507997506  0.7751327056023172  1.0000
  C   C8        1.0  0.08186376152633565  0.8317848493753102  0.22487329701413467  1.0000
  C   C9        1.0  0.9333575245253203  0.023929218025060112  0.7813577339901058  1.0000
  C   C10       1.0  0.06665212020993748  0.9760688710665166  0.21864055457308496  1.0000
  C   C11       1.0  0.8564183779498721  0.9249913436733479  0.8901650951668783  1.0000
  C   C12       1.0  0.14357932331669332  0.0749980804553445  0.10984790080613749  1.0000
  C   C13       1.0  0.7539003122944338  0.9631483981036695  0.0011146839270212271  1.0000
  C   C14       1.0  0.24610575247179872  0.036853756526227216  0.9988873884098268  1.0000
  C   C15       1.0  0.6660075923223375  0.8687494875899662  0.11602823775433534  1.0000
  C   C16       1.0  0.33399003765109114  0.13125070007947673  0.8839728142224104  1.0000
  C   C17       1.0  0.5689761610453701  0.9185727986207013  0.21619131572892766  1.0000
  C   C18       1.0  0.4310101090770715  0.08143463679785869  0.7838136404563089  1.0000
  C   C19       1.0  0.5615269140132213  0.06115261020991621  0.20399027151157162  1.0000
  C   C20       1.0  0.4384770817760428  0.9388538887515808  0.7960063867198598  1.0000
  C   C21       1.0  0.737416595436372  0.10503882555817509  0.9970212099160634  1.0000
  C   C22       1.0  0.26258783306057154  0.8949550704486029  0.002979833412503293  1.0000
  C   C23       1.0  0.8216888287142935  0.20762181456391465  0.8847394698948179  1.0000
  C   C24       1.0  0.1783154785367316  0.792382558833026  0.1152586384625565  1.0000
  C   C25       1.0  0.6883335848236883  0.31443034947596266  0.31419273084222976  1.0000
  C   C26       1.0  0.3116584461565212  0.6855785342139953  0.6857976817776857  1.0000
  C   C27       1.0  0.6141936466976644  0.3355763879613818  0.4455241492780857  1.0000
  C   C28       1.0  0.3857887279626766  0.6644187813400536  0.5544758486386882  1.0000
  C   C29       1.0  0.5237785763266062  0.4865761860565102  0.4351293473717916  1.0000
  C   C30       1.0  0.4762065571884976  0.5134199883899911  0.5648708991277755  1.0000
  N   N1        1.0  0.8078654564342359  0.3398893925119  0.8915308150003937  1.0000
  N   N2        1.0  0.19214042810671117  0.6601044675225085  0.10847094037668366  1.0000
  N   N3        1.0  0.6448734423541113  0.1511278386199137  0.09738595112371935  1.0000
  N   N4        1.0  0.35512691650240674  0.8488731825042424  0.9026207548508651  1.0000
  Cl  Cl1       1.0  0.6995428636089828  0.5829666380881804  0.017727349523155994  1.0000
  Cl  Cl2       1.0  0.3004759057968727  0.4170387674405164  0.9822667938775138  1.0000
  O   O1        1.0  0.5512362923133479  0.34171561252433247  0.24447641884073323  1.0000
  O   O2        1.0  0.4487544408513813  0.6582922586632521  0.7555135563423859  1.0000
  O   O3        1.0  0.8655039163607868  0.2768170764575615  0.2807457203249086  1.0000
  O   O4        1.0  0.13448458661883228  0.7232053875313086  0.7192431130016672  1.0000
