data_image0
_chemical_formula_structural       Fe6H96C144N60
_chemical_formula_sum              "Fe6 H96 C144 N60"
_cell_length_a       16.065373560865584
_cell_length_b       17.95472895628869
_cell_length_c       17.954659137657945
_cell_angle_alpha    111.5090440804064
_cell_angle_beta     107.36990759696062
_cell_angle_gamma    107.37003298550941

_space_group_name_H-M_alt    "P 1"
_space_group_IT_number       1

loop_
  _space_group_symop_operation_xyz
  'x, y, z'

loop_
  _atom_site_type_symbol
  _atom_site_label
  _atom_site_symmetry_multiplicity
  _atom_site_fract_x
  _atom_site_fract_y
  _atom_site_fract_z
  _atom_site_occupancy
  Fe  Fe1       1.0  0.9999952888003848  0.49999635575841245  0.49999651138200824  1.0000
  Fe  Fe2       1.0  0.49999895122496707  0.5000019155399826  0.9999996545455831  1.0000
  Fe  Fe3       1.0  0.4999985480193417  0.9999997285729235  0.5000026127801861  1.0000
  Fe  Fe4       1.0  1.4612929177999395e-06  8.993203408999964e-07  0.4999983382892382  1.0000
  Fe  Fe5       1.0  3.836799038656705e-07  0.49999736432485525  6.222664481312253e-07  1.0000
  Fe  Fe6       1.0  0.5000047078080812  0.5000037140261923  0.5000031131281162  1.0000
  H   H1        1.0  0.9101912534580521  0.1957472466277963  0.25929963680192003  1.0000
  H   H2        1.0  0.6511888557521955  0.7408569567538307  0.9366940683628755  1.0000
  H   H3        1.0  0.7145211119415366  0.0636181433823282  0.8043000539050739  1.0000
  H   H4        1.0  0.8488108903370916  0.0633073916876441  0.2591459459124082  1.0000
  H   H5        1.0  0.7854746586706511  0.19569852476318766  0.9363848008291953  1.0000
  H   H6        1.0  0.5898120544860889  0.7407055773059527  0.8042522374363446  1.0000
  H   H7        1.0  0.08980520506326439  0.8042460246575233  0.7406946036617655  1.0000
  H   H8        1.0  0.34880348349821594  0.2591437260254565  0.06330123957962293  1.0000
  H   H9        1.0  0.2854780585659  0.9363805215443006  0.19570635627059108  1.0000
  H   H10       1.0  0.15119955139140734  0.9367034054127004  0.7408567773944698  1.0000
  H   H11       1.0  0.21452605933291122  0.8042954227212036  0.06361639078943432  1.0000
  H   H12       1.0  0.41019634614097816  0.2592998283443535  0.19575074856734895  1.0000
  H   H13       1.0  0.0014756552527401977  0.2469686954631456  0.17989412746910466  1.0000
  H   H14       1.0  0.8220328591553638  0.8202259433449655  0.06731919592334629  1.0000
  H   H15       1.0  0.7547024295663932  0.9331001962408793  0.753096367487956  1.0000
  H   H16       1.0  0.6779632260139863  0.9326807944071619  0.17977766283810584  1.0000
  H   H17       1.0  0.7452944452226049  0.2469070640047448  0.06690478742955021  1.0000
  H   H18       1.0  0.49852397436613693  0.8201069617289038  0.7530275668385971  1.0000
  H   H19       1.0  0.9985191639872256  0.7530239016487882  0.8201011002290031  1.0000
  H   H20       1.0  0.17796140055342852  0.1797733907358037  0.9326666596527958  1.0000
  H   H21       1.0  0.2452957259519408  0.06689644628367832  0.24690680243516283  1.0000
  H   H22       1.0  0.32204311854540896  0.0673387620011852  0.8202266285616278  1.0000
  H   H23       1.0  0.25470011156411243  0.7530889034337065  0.9330971771480918  1.0000
  H   H24       1.0  0.5014824710331851  0.1798984434579793  0.24697601266825595  1.0000
  H   H25       1.0  0.09911494979484566  0.41380444891532875  0.24473734658236881  1.0000
  H   H26       1.0  0.854822394298225  0.755304726993302  0.1692028134676067  1.0000
  H   H27       1.0  0.6854198753415873  0.831008373667764  0.5862664241161823  1.0000
  H   H28       1.0  0.645182783603488  0.8308017753120397  0.24470366496392867  1.0000
  H   H29       1.0  0.8145812677223033  0.4137353127424746  0.16899412541724254  1.0000
  H   H30       1.0  0.4008822888846667  0.7552588861157474  0.5861900029213205  1.0000
  H   H31       1.0  0.9008824336193655  0.5861854533361496  0.7552570172444604  1.0000
  H   H32       1.0  0.14517942217930374  0.24469797908794533  0.8307862905422284  1.0000
  H   H33       1.0  0.3145763590185453  0.16899096294317664  0.4137316539388465  1.0000
  H   H34       1.0  0.35481829492960776  0.1692150833937518  0.7552960071944312  1.0000
  H   H35       1.0  0.18541987166963037  0.5862646995630385  0.8310066197032031  1.0000
  H   H36       1.0  0.5991205169574484  0.2447431487163598  0.41381359887840574  1.0000
  H   H37       1.0  0.10057126274087842  0.5216047412385265  0.3823381939818162  1.0000
  H   H38       1.0  0.7184905648189571  0.6176701242780213  0.1392648902297966  1.0000
  H   H39       1.0  0.5790677543444787  0.860748101942832  0.47845299974443384  1.0000
  H   H40       1.0  0.7815150314013266  0.8607359265350636  0.3823342119833413  1.0000
  H   H41       1.0  0.920934044113693  0.5215447388634615  0.1392509450781604  1.0000
  H   H42       1.0  0.3994255992282731  0.6176597471588252  0.4783919771953578  1.0000
  H   H43       1.0  0.8994241850138636  0.4783865080940116  0.6176555923123814  1.0000
  H   H44       1.0  0.2815057970849609  0.38233729867806693  0.8607328482098283  1.0000
  H   H45       1.0  0.4209298568437632  0.13925527916801875  0.5215508279557143  1.0000
  H   H46       1.0  0.2184890604728622  0.1392661067489129  0.6176574783376623  1.0000
  H   H47       1.0  0.07906538715798213  0.4784505555569325  0.8607476137847457  1.0000
  H   H48       1.0  0.6005785324823094  0.3823436358262384  0.5216119152885172  1.0000
  H   H49       1.0  0.24234786911806352  0.9205886668319182  0.6042260278835911  1.0000
  H   H50       1.0  0.6380940127774295  0.3957183986521855  0.31616039916427513  1.0000
  H   H51       1.0  0.32215621423372215  0.6838358783372201  0.07959214912904868  1.0000
  H   H52       1.0  0.8619077081667541  0.6838400387867196  0.6042797116396273  1.0000
  H   H53       1.0  0.17784835829035478  0.9204147366777349  0.3161700469265299  1.0000
  H   H54       1.0  0.25765246896490623  0.3957750860418656  0.07941226707295362  1.0000
  H   H55       1.0  0.7576505598320793  0.07940460653427549  0.39577764897593676  1.0000
  H   H56       1.0  0.36189661919722504  0.604277566331831  0.683833279737293  1.0000
  H   H57       1.0  0.6778502846587459  0.3161722234662109  0.9204185609886083  1.0000
  H   H58       1.0  0.13809970041752  0.31616469236541883  0.39572109194217825  1.0000
  H   H59       1.0  0.8221478063863614  0.07958055613161719  0.6838243004199285  1.0000
  H   H60       1.0  0.7423522538128821  0.6042242542545679  0.9205936405118108  1.0000
  H   H61       1.0  0.3652085435847354  0.019090914579571506  0.5808083240246661  1.0000
  H   H62       1.0  0.7843957779832209  0.41913189947034374  0.43811052349921203  1.0000
  H   H63       1.0  0.3464239217353438  0.5618749484883309  0.9810392223429576  1.0000
  H   H64       1.0  0.7156022357650258  0.5618844398933902  0.5808607023719007  1.0000
  H   H65       1.0  0.15357799478316989  0.0189670445427268  0.438129954122239  1.0000
  H   H66       1.0  0.13479369159712462  0.41919524733062724  0.9809132775070636  1.0000
  H   H67       1.0  0.6347922491692729  0.9809070772455614  0.4191999416021945  1.0000
  H   H68       1.0  0.2155953711526948  0.5808559785741777  0.5618786537116237  1.0000
  H   H69       1.0  0.6535822757119834  0.4381351740303998  0.018966579707971276  1.0000
  H   H70       1.0  0.2844025507846554  0.4381189435756242  0.4191450354051654  1.0000
  H   H71       1.0  0.8464182370434515  0.981032291798634  0.5618664522829564  1.0000
  H   H72       1.0  0.8652060377416646  0.5807980260150317  0.019087960556113826  1.0000
  H   H73       1.0  0.3887512059891023  0.8012251776405178  0.41522010611664223  1.0000
  H   H74       1.0  0.9737545049400255  0.584651578529943  0.3859184183591824  1.0000
  H   H75       1.0  0.5879532519315376  0.6140742933476346  0.19888618875550176  1.0000
  H   H76       1.0  0.526247844020908  0.6140847301166656  0.41534384372086924  1.0000
  H   H77       1.0  0.9120440891560762  0.8011159944679703  0.3859248266691326  1.0000
  H   H78       1.0  0.11124566112727773  0.5847752203043229  0.1987723285640329  1.0000
  H   H79       1.0  0.6112479569177935  0.19877348647738557  0.5847812891095217  1.0000
  H   H80       1.0  0.026237634549673334  0.4153369738330284  0.6140718268403235  1.0000
  H   H81       1.0  0.4120528290952592  0.3859290894718299  0.8011132097089444  1.0000
  H   H82       1.0  0.47376058124146436  0.3859220236172618  0.5846613145467076  1.0000
  H   H83       1.0  0.08794959890910553  0.19888738436817022  0.6140718297881593  1.0000
  H   H84       1.0  0.8887462380109808  0.415218050199222  0.8012251541290496  1.0000
  H   H85       1.0  0.26114870441574584  0.69433400761244  0.42689244164756  1.0000
  H   H86       1.0  0.8344728239462711  0.572953722671727  0.26733284276006947  1.0000
  H   H87       1.0  0.5672921284352627  0.7326936674644386  0.3058197837010965  1.0000
  H   H88       1.0  0.6655364447305488  0.732674534252382  0.4270514382586725  1.0000
  H   H89       1.0  0.9327072894075314  0.6941815584869034  0.2673078726246915  1.0000
  H   H90       1.0  0.23885082814748415  0.5731050067236294  0.30566511406398433  1.0000
  H   H91       1.0  0.7388513562152141  0.3056599391184279  0.5731052330280448  1.0000
  H   H92       1.0  0.16552143055080396  0.427044265392162  0.7326636565342428  1.0000
  H   H93       1.0  0.43271650057550204  0.26730567330953653  0.6941821507943048  1.0000
  H   H94       1.0  0.3344702953578675  0.2673288495003305  0.5729525915820091  1.0000
  H   H95       1.0  0.06728570805999819  0.30581912513576975  0.7326915094774407  1.0000
  H   H96       1.0  0.7611450766095017  0.4268936566818127  0.6943376418118419  1.0000
  C   C1        1.0  0.09415119803151845  0.6892952822225666  0.5922633921177791  1.0000
  C   C2        1.0  0.5017712661343552  0.4076153579802693  0.09691047670904135  1.0000
  C   C3        1.0  0.40506760083849264  0.903010915841243  0.31072722510420914  1.0000
  C   C4        1.0  0.9982305091247169  0.9030903144807496  0.5923846965877929  1.0000
  C   C5        1.0  0.09493444442620105  0.6892738036421591  0.09699102827302401  1.0000
  C   C6        1.0  0.4058484436615685  0.4077355332089568  0.3107022292931063  1.0000
  C   C7        1.0  0.9058426546454754  0.3106979885646766  0.4077323826389261  1.0000
  C   C8        1.0  0.4982237248529842  0.5923880211049024  0.9030854126017476  1.0000
  C   C9        1.0  0.5949299295430849  0.0969870748221382  0.6892796150892623  1.0000
  C   C10       1.0  0.0017742885482049998  0.09691441563415279  0.40761429798737236  1.0000
  C   C11       1.0  0.9050711598853807  0.310719472082198  0.9030145586634147  1.0000
  C   C12       1.0  0.5941603400618051  0.5922732422633744  0.6893032095005936  1.0000
  C   C13       1.0  0.8225862330228892  0.26060438583320433  0.46395813113858975  1.0000
  C   C14       1.0  0.3586114281073662  0.5361004635525929  0.796745269384374  1.0000
  C   C15       1.0  0.5616337955834539  0.20325186830892508  0.7392767113817343  1.0000
  C   C16       1.0  0.14138395018447625  0.20325322794194994  0.46389886509429357  1.0000
  C   C17       1.0  0.9383679880838257  0.2607240224810922  0.7967499106956241  1.0000
  C   C18       1.0  0.6774154130136695  0.5360448968387176  0.739395319439602  1.0000
  C   C19       1.0  0.17741220873950433  0.739390234358595  0.5360399169522553  1.0000
  C   C20       1.0  0.6413813180301559  0.4639049370424858  0.2032541063953914  1.0000
  C   C21       1.0  0.4383732459501034  0.7967494947284877  0.26073222652567557  1.0000
  C   C22       1.0  0.8586214819147598  0.7967501550225792  0.5361025885932379  1.0000
  C   C23       1.0  0.06162784952325514  0.7392705973923412  0.20325078612146547  1.0000
  C   C24       1.0  0.3225880655468245  0.46395848584209903  0.2606078421842995  1.0000
  C   C25       1.0  0.043585863438259854  0.6691577693837729  0.6416442366216871  1.0000
  C   C26       1.0  0.40173198759715223  0.35817732586382073  0.02732326788988365  1.0000
  C   C27       1.0  0.3745150873352401  0.9724942274958934  0.3308055530527981  1.0000
  C   C28       1.0  0.09826986059454164  0.9726775547516269  0.6418202210377189  1.0000
  C   C29       1.0  0.1254878327757965  0.6691983126794839  0.027507998681720443  1.0000
  C   C30       1.0  0.45641338095764905  0.3583543054769933  0.3308396217590045  1.0000
  C   C31       1.0  0.9564093167962116  0.3308368497361301  0.3583529432523846  1.0000
  C   C32       1.0  0.5982649382051406  0.6418247060504427  0.9726726417369278  1.0000
  C   C33       1.0  0.6254850956277805  0.0275064595632415  0.6692024257255724  1.0000
  C   C34       1.0  0.9017349337003678  0.027327175003840406  0.35817654467099663  1.0000
  C   C35       1.0  0.8745138772705586  0.330796309303075  0.9724953753587969  1.0000
  C   C36       1.0  0.5435950179804083  0.6416510999935952  0.6691622498114711  1.0000
  C   C37       1.0  0.9523213756349661  0.26661501445052954  0.2822064602018699  1.0000
  C   C38       1.0  0.6704231838087296  0.7179803716540648  0.9846711299357696  1.0000
  C   C39       1.0  0.6857221608688563  0.015629530298532795  0.7334158191638666  1.0000
  C   C40       1.0  0.8295779033187644  0.015329853819736202  0.28202256821378313  1.0000
  C   C41       1.0  0.8142742195059257  0.2665826883415434  0.9843699974152428  1.0000
  C   C42       1.0  0.5476793182242261  0.7177963805737875  0.7333833508579845  1.0000
  C   C43       1.0  0.047671802634639  0.7333769083082798  0.7177886402974353  1.0000
  C   C44       1.0  0.3295740299266327  0.2820196381071581  0.01532077229198587  1.0000
  C   C45       1.0  0.3142815902789383  0.9843704831340719  0.2665872921798355  1.0000
  C   C46       1.0  0.17043091785217274  0.9846816165618294  0.717979414075117  1.0000
  C   C47       1.0  0.18572195446034107  0.7334126054562518  0.015630479313934173  1.0000
  C   C48       1.0  0.452327128019597  0.2822090247029577  0.2666207858654772  1.0000
  C   C49       1.0  0.0033462788135807577  0.2954404141855491  0.2396385076849868  1.0000
  C   C50       1.0  0.7640941078270985  0.7605187558070272  0.05606675900818916  1.0000
  C   C51       1.0  0.708019015786789  0.9443009038083973  0.7046016860285321  1.0000
  C   C52       1.0  0.7359069484523387  0.9439342009386491  0.2394843799820237  1.0000
  C   C53       1.0  0.7919796748463668  0.2954003979041744  0.05570304445375033  1.0000
  C   C54       1.0  0.4966532712626091  0.7603626440164888  0.7045564601982549  1.0000
  C   C55       1.0  0.9966514876969301  0.7045528578879612  0.7603583089318564  1.0000
  C   C56       1.0  0.235904092039533  0.2394819278233555  0.9439234251251777  1.0000
  C   C57       1.0  0.29198772430162734  0.055702479944315486  0.29540234381214964  1.0000
  C   C58       1.0  0.26409764293868687  0.0560779418666186  0.7605161667154763  1.0000
  C   C59       1.0  0.20801492276593356  0.7045982648029467  0.9442976924855346  1.0000
  C   C60       1.0  0.5033498921959918  0.23964141246416662  0.29544686491099276  1.0000
  C   C61       1.0  0.057736886271804594  0.38797578809820266  0.2754908857003784  1.0000
  C   C62       1.0  0.7826359484351856  0.7245906176663227  0.11264301964728689  1.0000
  C   C63       1.0  0.6698543445970842  0.88758296848723  0.6120749263313812  1.0000
  C   C64       1.0  0.717369011175265  0.887358439915623  0.27541466925045915  1.0000
  C   C65       1.0  0.8301450306884491  0.3879250553760513  0.11241830551031744  1.0000
  C   C66       1.0  0.44226341199568964  0.7245102994075907  0.6120208525021056  1.0000
  C   C67       1.0  0.9422588782738401  0.612014787614221  0.724503851541698  1.0000
  C   C68       1.0  0.21736420665919104  0.27541006642747595  0.8873465709829278  1.0000
  C   C69       1.0  0.3301487967597154  0.1124197401793765  0.3879278981638309  1.0000
  C   C70       1.0  0.2826343214971985  0.1126563982687045  0.7245876458216358  1.0000
  C   C71       1.0  0.16985145669070076  0.6120695644421871  0.8875808933002959  1.0000
  C   C72       1.0  0.5577420481168716  0.27549443199998797  0.38798500231574456  1.0000
  C   C73       1.0  0.05912101867733105  0.44870022407856425  0.3519594788337842  1.0000
  C   C74       1.0  0.7074440423043172  0.6481167560760428  0.0968332656405908  1.0000
  C   C75       1.0  0.6104664684580783  0.9033003756000965  0.5513451726855224  1.0000
  C   C76       1.0  0.7925588956588925  0.9031680521984384  0.35188967040905805  1.0000
  C   C77       1.0  0.8895340680066112  0.4486539401793053  0.09670011871769184  1.0000
  C   C78       1.0  0.4408773754827209  0.6480388546449942  0.5512958364754185  1.0000
  C   C79       1.0  0.9408728093643502  0.5512916986250502  0.6480341236590449  1.0000
  C   C80       1.0  0.2925571490364476  0.35188729814402825  0.9031595086395967  1.0000
  C   C81       1.0  0.38953638496565196  0.09670435521955062  0.44866165920873874  1.0000
  C   C82       1.0  0.20744304230618843  0.09684139412122049  0.6481091804869337  1.0000
  C   C83       1.0  0.11046471095947648  0.5513413540267036  0.9032982665018565  1.0000
  C   C84       1.0  0.559129048659301  0.3519652028176949  0.44870779963400065  1.0000
  C   C85       1.0  0.7569504121065124  0.2011319995000633  0.4807995856551416  1.0000
  C   C86       1.0  0.2760486316407977  0.519247650466852  0.7204313302470453  1.0000
  C   C87       1.0  0.5553808067292465  0.27953358897978836  0.7987176768472821  1.0000
  C   C88       1.0  0.22394646193501444  0.2795629192294129  0.4807484613461527  1.0000
  C   C89       1.0  0.9446186700321563  0.20128416107028366  0.7204667937945787  1.0000
  C   C90       1.0  0.7430489915130494  0.5192010246935368  0.7988654517400138  1.0000
  C   C91       1.0  0.24304735693750257  0.7988612728430269  0.5191989026115281  1.0000
  C   C92       1.0  0.7239436650950212  0.4807503368640482  0.27956409090058554  1.0000
  C   C93       1.0  0.4446259596834922  0.7204711430362708  0.20128963969050065  1.0000
  C   C94       1.0  0.7760586592848426  0.7204411379842385  0.5192559419097763  1.0000
  C   C95       1.0  0.055375898722310614  0.7987131531039183  0.27952898479777843  1.0000
  C   C96       1.0  0.25695152274212774  0.48080033575079995  0.20113896365078435  1.0000
  C   C97       1.0  0.7274362887652899  0.10819508246358818  0.4389396984431856  1.0000
  C   C98       1.0  0.2884578177082276  0.5611101382361384  0.6694131953361693  1.0000
  C   C99       1.0  0.6188380803224831  0.33057141019918385  0.8916502845734089  1.0000
  C   C100      1.0  0.2115371414372831  0.330580961355146  0.43888633736755633  1.0000
  C   C101      1.0  0.8811628114441348  0.10835021732593485  0.6694286718546182  1.0000
  C   C102      1.0  0.7725644131021239  0.561060556694933  0.8918029852838814  1.0000
  C   C103      1.0  0.27256083472917686  0.8917981903839873  0.5610630739130187  1.0000
  C   C104      1.0  0.7115328159554295  0.43888582692759565  0.33058159799861647  1.0000
  C   C105      1.0  0.3811683922456623  0.6694353433409006  0.1083571388471469  1.0000
  C   C106      1.0  0.788468272782666  0.6694210742446174  0.561117401788984  1.0000
  C   C107      1.0  0.11883436568816576  0.8916470976159162  0.33056724409455296  1.0000
  C   C108      1.0  0.22743801724422505  0.43893810912387476  0.10820317867533906  1.0000
  C   C109      1.0  0.6581809484010037  0.05302153264172199  0.4512642017748121  1.0000
  C   C110      1.0  0.2068773466423864  0.5487914280004419  0.6019000363250131  1.0000
  C   C111      1.0  0.6048245751917989  0.39810145819084397  0.9468431827027431  1.0000
  C   C112      1.0  0.2931185271620079  0.3980923538831432  0.45120383007650133  1.0000
  C   C113      1.0  0.8951776388642118  0.0531579761908105  0.6019001668643186  1.0000
  C   C114      1.0  0.8418176175620006  0.5487339356186567  0.9469746831310246  1.0000
  C   C115      1.0  0.34181621676355434  0.9469744355643783  0.548737900159644  1.0000
  C   C116      1.0  0.7931122057267784  0.45119847131906715  0.39809001491511253  1.0000
  C   C117      1.0  0.395178657105717  0.6019066420015449  0.05316331589846613  1.0000
  C   C118      1.0  0.7068878995135252  0.6019117038491262  0.5488014776827442  1.0000
  C   C119      1.0  0.1048212200640394  0.9468427083728203  0.3980946486452981  1.0000
  C   C120      1.0  0.15818080632111284  0.4512593372083842  0.05302565042883599  1.0000
  C   C121      1.0  0.35406713210034724  0.8257092832565648  0.4555720239436668  1.0000
  C   C122      1.0  0.8986838200180219  0.5443109805024094  0.3700359896725588  1.0000
  C   C123      1.0  0.5288038736920199  0.6299822393171368  0.17441864554835723  1.0000
  C   C124      1.0  0.6013167111802887  0.6299659912891046  0.45568858872717755  1.0000
  C   C125      1.0  0.9711953768085095  0.8255835065636036  0.3700197160200106  1.0000
  C   C126      1.0  0.14592904490191927  0.5444235048302771  0.17428935813168064  1.0000
  C   C127      1.0  0.6459274213083573  0.17428668382245147  0.5444277117675327  1.0000
  C   C128      1.0  0.10130771221420083  0.45568026736414413  0.6299556403282837  1.0000
  C   C129      1.0  0.47120088484432904  0.3700197957088207  0.8255826910983829  1.0000
  C   C130      1.0  0.3986887013506575  0.3700360441309414  0.5443140359961447  1.0000
  C   C131      1.0  0.02879925825135392  0.1744178510527448  0.6299775644144746  1.0000
  C   C132      1.0  0.8540681168846191  0.45557246301639515  0.8257105149363326  1.0000
  C   C133      1.0  0.283200524980977  0.7661981101681692  0.46260905653295503  1.0000
  C   C134      1.0  0.8207652843071429  0.5372785841719576  0.3034860222543402  1.0000
  C   C135      1.0  0.5174772013451943  0.6965487799198584  0.23394724339046044  1.0000
  C   C136      1.0  0.6792375542463489  0.6965206235671814  0.4627259317733845  1.0000
  C   C137      1.0  0.9825231157039057  0.7660563612716801  0.30345272711976884  1.0000
  C   C138      1.0  0.21679673666068316  0.5373871986634953  0.23380081063601924  1.0000
  C   C139      1.0  0.7167942976370085  0.233794487303193  0.5373884000315954  1.0000
  C   C140      1.0  0.1792266556566987  0.4627173816002499  0.6965102328003853  1.0000
  C   C141      1.0  0.4825272012636788  0.3034512336372686  0.766055484379983  1.0000
  C   C142      1.0  0.32076947799765787  0.3034807384817881  0.5372768767513065  1.0000
  C   C143      1.0  0.01747149894317351  0.233943648710337  0.6965451671338913  1.0000
  C   C144      1.0  0.7832011233240479  0.46261146520537005  0.7662013517366547  1.0000
  N   N1        1.0  0.9150155476225023  0.38336364168337417  0.476749319184691  1.0000
  N   N2        1.0  0.438350165358422  0.5233247220396038  0.9066650899210134  1.0000
  N   N3        1.0  0.5315932883647818  0.0934053421415797  0.6165704833863758  1.0000
  N   N4        1.0  0.06165132350616181  0.0933374677987118  0.47667830139255335  1.0000
  N   N5        1.0  0.9684065150854693  0.3834291669892238  0.906597359563783  1.0000
  N   N6        1.0  0.5849852372434654  0.5232546254666346  0.6166379253252288  1.0000
  N   N7        1.0  0.08497666070611144  0.6166289543913238  0.5232440995067763  1.0000
  N   N8        1.0  0.5616481109476583  0.4766800061112307  0.09333328265381627  1.0000
  N   N9        1.0  0.4684045987887798  0.906594670080487  0.3834355229000082  1.0000
  N   N10       1.0  0.9383534512204578  0.9066659144122797  0.5233196353519605  1.0000
  N   N11       1.0  0.03159683593124658  0.6165661293464525  0.09340614167553  1.0000
  N   N12       1.0  0.41502388537259793  0.47675482419963083  0.3833689650303925  1.0000
  N   N13       1.0  0.8611714298142203  0.3518051590609517  0.5131500287641231  1.0000
  N   N14       1.0  0.34803166229471577  0.4868973189625692  0.8387023081079904  1.0000
  N   N15       1.0  0.509220539915539  0.1613207029580721  0.6480577823670615  1.0000
  N   N16       1.0  0.15196961416886984  0.1612979633930039  0.5131042658188605  1.0000
  N   N17       1.0  0.9907810708514972  0.3519444271608877  0.8386818504922858  1.0000
  N   N18       1.0  0.6388294326423606  0.4868527632169873  0.6481950134010362  1.0000
  N   N19       1.0  0.1388214078736781  0.64818608932422  0.4868425057400432  1.0000
  N   N20       1.0  0.6519653348800105  0.5131087569329935  0.16129844666060938  1.0000
  N   N21       1.0  0.49078393659927855  0.8386833548499271  0.35195146219500384  1.0000
  N   N22       1.0  0.8480357711932527  0.8387027236738475  0.48689451499075187  1.0000
  N   N23       1.0  0.009215436940444034  0.6480515402916892  0.16131673449914538  1.0000
  N   N24       1.0  0.3611770382367753  0.5131539901433797  0.35181129558630186  1.0000
  N   N25       1.0  0.15147388816060925  0.7679026914542675  0.6027154036933027  1.0000
  N   N26       1.0  0.5487129848257696  0.3971793490475762  0.16504652365944136  1.0000
  N   N27       1.0  0.3839508717890397  0.8349165191215634  0.23215103275345697  1.0000
  N   N28       1.0  0.9512885166421796  0.834956355996283  0.602825185150337  1.0000
  N   N29       1.0  0.1160516591005419  0.7678498106889293  0.16508421241041313  1.0000
  N   N30       1.0  0.3485261786868605  0.39728318382753963  0.23209501541678182  1.0000
  N   N31       1.0  0.8485245306554817  0.2320905808336278  0.3972815865668978  1.0000
  N   N32       1.0  0.4512817156949893  0.6028260519210633  0.8349517014005627  1.0000
  N   N33       1.0  0.6160482749275858  0.16508079781130655  0.7678537623749406  1.0000
  N   N34       1.0  0.04871498064209591  0.165048374139154  0.3971762482211716  1.0000
  N   N35       1.0  0.8839523433772526  0.23214548577126243  0.8349189052556484  1.0000
  N   N36       1.0  0.6514793026830007  0.6027228953042398  0.7679107827984952  1.0000
  N   N37       1.0  0.9907817333101435  0.578299666948162  0.6065962813386251  1.0000
  N   N38       1.0  0.3839894149237182  0.3932780995121377  0.971585239081783  1.0000
  N   N39       1.0  0.4124916088881818  0.028291222838035403  0.4216574411661043  1.0000
  N   N40       1.0  0.1160111730832156  0.0284148159337008  0.60671894824619  1.0000
  N   N41       1.0  0.08750874355370555  0.5783448148223302  0.9717121732263154  1.0000
  N   N42       1.0  0.5092188280285869  0.39340200827719235  0.4216986562225244  1.0000
  N   N43       1.0  0.009209464251895814  0.4216909071737547  0.3933966831833474  1.0000
  N   N44       1.0  0.6160081589616482  0.6067239321672061  0.02840805810532753  1.0000
  N   N45       1.0  0.587509914444567  0.971712159379365  0.5783463139609567  1.0000
  N   N46       1.0  0.8839929918524092  0.9715912615112997  0.393278701649834  1.0000
  N   N47       1.0  0.9124897228440075  0.4216511534530981  0.028288047128413086  1.0000
  N   N48       1.0  0.49079121779136176  0.6066040721755144  0.5783072430630227  1.0000
  N   N49       1.0  0.6141869093760876  0.08393915791560863  0.5006763434799666  1.0000
  N   N50       1.0  0.11341959432250806  0.4993857257098639  0.5833673205574004  1.0000
  N   N51       1.0  0.5299165804463472  0.41661373761986914  0.9159343771005909  1.0000
  N   N52       1.0  0.3865774898856458  0.41662659136820673  0.5006103159364914  1.0000
  N   N53       1.0  0.9700850538789609  0.08406631755694599  0.5833863038843391  1.0000
  N   N54       1.0  0.8858111691520135  0.49932240274532086  0.9160587960720079  1.0000
  N   N55       1.0  0.38581027535675366  0.9160581578349678  0.4993245874186983  1.0000
  N   N56       1.0  0.88657160070602  0.5006048481424726  0.41662397231473863  1.0000
  N   N57       1.0  0.47008559434748065  0.583389644722061  0.08406899445321166  1.0000
  N   N58       1.0  0.6134299237656579  0.5833781403230776  0.4993938309449818  1.0000
  N   N59       1.0  0.029913134019921114  0.9159330193376932  0.41661006623431274  1.0000
  N   N60       1.0  0.11418662368281225  0.5006722175915356  0.0839413072419291  1.0000
