data_image0
_chemical_formula_structural       Ba4H20C32N4O28
_chemical_formula_sum              "Ba4 H20 C32 N4 O28"
_cell_length_a       7.281813751013488
_cell_length_b       7.675987361623376
_cell_length_c       17.565747220252987
_cell_angle_alpha    98.31989567031282
_cell_angle_beta     98.46327139085004
_cell_angle_gamma    90.19919811304831

_space_group_name_H-M_alt    "P 1"
_space_group_IT_number       1

loop_
  _space_group_symop_operation_xyz
  'x, y, z'

loop_
  _atom_site_type_symbol
  _atom_site_label
  _atom_site_symmetry_multiplicity
  _atom_site_fract_x
  _atom_site_fract_y
  _atom_site_fract_z
  _atom_site_occupancy
  Ba  Ba1       1.0  0.2455012932058481  0.0695461528552457  0.7538521924578917  1.0000
  Ba  Ba2       1.0  0.754480638369799  0.9304552032345372  0.24614623117668097  1.0000
  Ba  Ba3       1.0  0.23116982665403904  0.17235938359051056  0.1557858991898655  1.0000
  Ba  Ba4       1.0  0.7688242990143906  0.827624903762306  0.8442122900227745  1.0000
  H   H1        1.0  0.9850718524557752  0.5995759812126806  0.5521033371146873  1.0000
  H   H2        1.0  0.014938234788019113  0.40042663927057737  0.4478997769681926  1.0000
  H   H3        1.0  0.12774836905757075  0.3836227881860879  0.8479626408476479  1.0000
  H   H4        1.0  0.8722463712494675  0.6163691179589676  0.15204015100022875  1.0000
  H   H5        1.0  0.16512211471718535  0.8355714428420884  0.4108290002651105  1.0000
  H   H6        1.0  0.8348885262730621  0.16444770290475935  0.5891651439568195  1.0000
  H   H7        1.0  0.48936322003600463  0.6335313096981778  0.6417854534439658  1.0000
  H   H8        1.0  0.5106471894914081  0.3664711110513964  0.3582205096384358  1.0000
  H   H9        1.0  0.3835038064800429  0.818150531201191  0.013012063149595632  1.0000
  H   H10       1.0  0.6164964249956173  0.18184811433437892  0.9869897648570788  1.0000
  H   H11       1.0  0.41907307618897266  0.3552745501139611  0.4706657651716456  1.0000
  H   H12       1.0  0.5809362774789836  0.6447178587173212  0.5293319717974613  1.0000
  H   H13       1.0  0.017188562132211913  0.34885145449037935  0.3442654586125614  1.0000
  H   H14       1.0  0.9828165024040704  0.65114813613166  0.6557423451288998  1.0000
  H   H15       1.0  0.08276592341764653  0.5443112712839594  0.3535117958020707  1.0000
  H   H16       1.0  0.9172384048544232  0.4556874423489391  0.6464896378011389  1.0000
  H   H17       1.0  0.04589129415064262  0.46556934711487236  0.7512278263817792  1.0000
  H   H18       1.0  0.9541086077535611  0.534422836244737  0.24877178052859256  1.0000
  H   H19       1.0  0.8694293396231104  0.352679036324794  0.7519917417979656  1.0000
  H   H20       1.0  0.1305587921451234  0.6473286197413942  0.24801198579434214  1.0000
  C   C1        1.0  0.26150948689518577  0.6137762108161625  0.9208265251290869  1.0000
  C   C2        1.0  0.7384880720849054  0.3862210196556291  0.07917622320712073  1.0000
  C   C3        1.0  0.18908881165281602  0.44193596763980747  0.9061012914854347  1.0000
  C   C4        1.0  0.8109140278616849  0.5580641329062672  0.09389904639180462  1.0000
  C   C5        1.0  0.22343988365646794  0.9468161789708278  0.4532973184514192  1.0000
  C   C6        1.0  0.7765573403754333  0.0531932586506869  0.5467012227395218  1.0000
  C   C7        1.0  0.221393438812008  0.9477433697709544  0.5328257315460477  1.0000
  C   C8        1.0  0.7785952421032007  0.052264814986344305  0.4671706471129938  1.0000
  C   C9        1.0  0.298158432791965  0.0942738243591279  0.4291072908964467  1.0000
  C   C10       1.0  0.7018403344780212  0.9057368591556811  0.5708925506990994  1.0000
  C   C11       1.0  0.32600923602874593  0.6847529137397359  0.9981919763113826  1.0000
  C   C12       1.0  0.6739962686934861  0.3152419399604726  0.0018080691395426065  1.0000
  C   C13       1.0  0.34401712459082023  0.22931414152753865  0.5638985676875166  1.0000
  C   C14       1.0  0.6559805061338366  0.7706897109071562  0.43610412254538033  1.0000
  C   C15       1.0  0.14590515690668582  0.7996488989548143  0.5663958220271683  1.0000
  C   C16       1.0  0.8540957164478442  0.20035868177622976  0.4336107109540634  1.0000
  C   C17       1.0  0.3353619068311247  0.6639867631388656  0.1426611959403773  1.0000
  C   C18       1.0  0.6646285406209601  0.3360145294119052  0.8573392878867809  1.0000
  C   C19       1.0  0.1935518606942993  0.34285888775031026  0.9667253464553914  1.0000
  C   C20       1.0  0.8064565643741731  0.6571398939799237  0.03327569274434692  1.0000
  C   C21       1.0  0.3889867357201666  0.3838033699399831  0.6280233160000748  1.0000
  C   C22       1.0  0.6110124754590346  0.6162003720380369  0.3719811420980008  1.0000
  C   C23       1.0  0.14554621819951316  0.14705984345628312  0.9499708831347892  1.0000
  C   C24       1.0  0.8544613689315598  0.8529394575815206  0.050022748666208434  1.0000
  C   C25       1.0  0.3026333204970797  0.5842527504546098  0.05690706385661312  1.0000
  C   C26       1.0  0.6973678395780498  0.4157395221820011  0.94309146191943  1.0000
  C   C27       1.0  0.36293056070132945  0.23660267376268254  0.4862387866655953  1.0000
  C   C28       1.0  0.6370709634733558  0.7634040393627616  0.5137614346428592  1.0000
  C   C29       1.0  0.2585394393593603  0.7158460455056216  0.8531524001253815  1.0000
  C   C30       1.0  0.7414480133135444  0.28415403171505466  0.14684615503178836  1.0000
  C   C31       1.0  0.2904714103601123  0.10202366040460482  0.342492187678566  1.0000
  C   C32       1.0  0.7095413121627846  0.8979817314924009  0.6575095386141998  1.0000
  N   N1        1.0  0.2778531927512162  0.08643343275366533  0.5870095714803301  1.0000
  N   N2        1.0  0.7221359393610527  0.9135744723764817  0.4129907957780362  1.0000
  N   N3        1.0  0.24348716791938335  0.4145964766521716  0.041228849251268726  1.0000
  N   N4        1.0  0.7565183740193153  0.5853970206980676  0.9587716636602369  1.0000
  O   O1        1.0  0.10231842382722796  0.43646129508740483  0.3789608664710756  1.0000
  O   O2        1.0  0.8976890553777254  0.5635398703853481  0.621043737741239  1.0000
  O   O3        1.0  0.049550019864092625  0.6755180388514292  0.5171487635811973  1.0000
  O   O4        1.0  0.950445177892938  0.3244731195282355  0.48284600719419063  1.0000
  O   O5        1.0  0.4212202431230239  0.18249320153505272  0.3188505097830899  1.0000
  O   O6        1.0  0.578785377848071  0.81751357968772  0.6811493171218929  1.0000
  O   O7        1.0  0.0655983376476428  0.08729163961935173  0.8810740861619807  1.0000
  O   O8        1.0  0.9343909805469652  0.9127094837609422  0.11892861839930906  1.0000
  O   O9        1.0  0.19185093925739954  0.05750484728164201  0.0038890984086990044  1.0000
  O   O10       1.0  0.8081833919055587  0.9424850577000399  0.9961100560602889  1.0000
  O   O11       1.0  0.3953420730774297  0.8159312310463848  0.8506560362599842  1.0000
  O   O12       1.0  0.6046505066645481  0.1840611450759795  0.1493398595235718  1.0000
  O   O13       1.0  0.11273268246036144  0.6949380811296847  0.8018289259374003  1.0000
  O   O14       1.0  0.8872547429722815  0.30506067968776324  0.19816952688044867  1.0000
  O   O15       1.0  0.16825472591766305  0.8012930328468999  0.6378827859315663  1.0000
  O   O16       1.0  0.8317492590834662  0.19870409597821492  0.3621036866609942  1.0000
  O   O17       1.0  0.1519912521017659  0.027698521149218912  0.2979873126544277  1.0000
  O   O18       1.0  0.848018433826013  0.9722910151951752  0.7020136384354602  1.0000
  O   O19       1.0  0.3671393742526093  0.3761601227294023  0.6955987373190952  1.0000
  O   O20       1.0  0.6328796890059892  0.6238323517866181  0.3043994089083669  1.0000
  O   O21       1.0  0.28098994253468135  0.5705804342520582  0.1894753151214986  1.0000
  O   O22       1.0  0.7189977925170012  0.42943013424775245  0.8105246285501269  1.0000
  O   O23       1.0  0.44902133595451227  0.5231375013866569  0.6018944780988635  1.0000
  O   O24       1.0  0.5509861777785403  0.4768716423989618  0.39810960054956024  1.0000
  O   O25       1.0  0.9848500263022404  0.3513196150016213  0.7264933206756157  1.0000
  O   O26       1.0  0.015135957565519198  0.6486765036258291  0.273504868998117  1.0000
  O   O27       1.0  0.41042870711961393  0.8177558533874818  0.16060833553095222  1.0000
  O   O28       1.0  0.5895475272526625  0.18225089056804933  0.8393879843993661  1.0000
