data_image0
_chemical_formula_structural       Zn2H32C50N6Cl6O6
_chemical_formula_sum              "Zn2 H32 C50 N6 Cl6 O6"
_cell_length_a       9.187061174377627
_cell_length_b       10.54835181481111
_cell_length_c       13.8477
_cell_angle_alpha    80.46784278734867
_cell_angle_beta     78.52940432073358
_cell_angle_gamma    65.83900985259962

_space_group_name_H-M_alt    "P 1"
_space_group_IT_number       1

loop_
  _space_group_symop_operation_xyz
  'x, y, z'

loop_
  _atom_site_type_symbol
  _atom_site_label
  _atom_site_symmetry_multiplicity
  _atom_site_fract_x
  _atom_site_fract_y
  _atom_site_fract_z
  _atom_site_occupancy
  Zn  Zn1       1.0  0.3014891250764648  0.1149231223247895  0.4029069085267524  1.0000
  Zn  Zn2       1.0  0.698510324635791  0.8850762821548058  0.5970929503403397  1.0000
  H   H1        1.0  0.4608963429291464  0.581203282111943  0.1888488600170461  1.0000
  H   H2        1.0  0.5391037478719697  0.4187971660416848  0.8111507826141776  1.0000
  H   H3        1.0  0.5901863550445868  0.12189799587853399  0.26127838174327433  1.0000
  H   H4        1.0  0.4098126250856211  0.8781024522750941  0.7387235738481622  1.0000
  H   H5        1.0  0.6554915361696132  0.2649742252079861  0.1095658329316436  1.0000
  H   H6        1.0  0.34450791354263555  0.7350251792716094  0.8904361923601913  1.0000
  H   H7        1.0  0.1407265656808789  0.5062685303111039  0.12173828054839218  1.0000
  H   H8        1.0  0.8592739947022852  0.4937308741684916  0.8782621539248155  1.0000
  H   H9        1.0  0.09936701102714811  0.3502236074639526  0.26961449985138597  1.0000
  H   H10       1.0  0.9006319691030601  0.6497768406896753  0.7303860114568864  1.0000
  H   H11       1.0  0.31729823141200336  0.5812638152057801  0.9966577997985057  1.0000
  H   H12       1.0  0.6827032681352635  0.41873350192575026  0.003342051933927274  1.0000
  H   H13       1.0  0.46825617306637213  0.3840355150684047  0.4633319945734016  1.0000
  H   H14       1.0  0.5317443873167917  0.6159638894111978  0.5366677177582276  1.0000
  H   H15       1.0  0.7747732747199407  0.5134761431739108  0.5178348004176031  1.0000
  H   H16       1.0  0.22522587691707943  0.4865263923277823  0.4821639806712313  1.0000
  H   H17       1.0  0.06889095370500803  0.3713945351966501  0.48977001454159114  1.0000
  H   H18       1.0  0.931107556843145  0.6286069566310104  0.5102297049246971  1.0000
  H   H19       1.0  0.0043079207871841016  0.0566881987049186  0.3843140355992035  1.0000
  H   H20       1.0  0.9956917004318911  0.9433132931227419  0.6156848151900363  1.0000
  H   H21       1.0  0.7032223934255912  0.181723478722688  0.41267901602204665  1.0000
  H   H22       1.0  0.2967772277934842  0.8182780131049725  0.5873198347672003  1.0000
  H   H23       1.0  0.9728906072314844  0.21028048757761303  0.890360240539394  1.0000
  H   H24       1.0  0.027111704911462222  0.789719960576015  0.109639109020911  1.0000
  H   H25       1.0  0.26981813403415345  0.10467424333366179  0.8775341290846654  1.0000
  H   H26       1.0  0.730182128273782  0.8953282921680312  0.12246667189345573  1.0000
  H   H27       1.0  0.21003376518189043  0.0466668406526907  0.1978886701471794  1.0000
  H   H28       1.0  0.78996457385945  0.9533325638269048  0.802112057396954  1.0000
  H   H29       1.0  0.9144398385195345  0.1560136126262037  0.1966077102210662  1.0000
  H   H30       1.0  0.08556008077476923  0.8439847481793663  0.8033922183464243  1.0000
  H   H31       1.0  0.47718104813716883  0.9600339947843466  0.11259860915775728  1.0000
  H   H32       1.0  0.5228196837528147  0.039967497043321  0.8874015393791836  1.0000
  C   C1        1.0  0.5730872037126248  0.7925545792460653  0.34520525990316736  1.0000
  C   C2        1.0  0.42691399775941363  0.2074458689075627  0.6547935140510149  1.0000
  C   C3        1.0  0.6937861873935277  0.6842671364147179  0.2941168719325232  1.0000
  C   C4        1.0  0.30621612474941895  0.3157333117389101  0.7058817554861961  1.0000
  C   C5        1.0  0.6545897909646003  0.6084776155819327  0.23665908495861024  1.0000
  C   C6        1.0  0.3454114105074312  0.3915228325717024  0.7633396889955721  1.0000
  C   C7        1.0  0.49257614043335  0.640810637083483  0.2320465191916981  1.0000
  C   C8        1.0  0.507423950367766  0.359189811070145  0.7679524012979471  1.0000
  C   C9        1.0  0.3725141706883123  0.7502273352171116  0.28082142409125055  1.0000
  C   C10       1.0  0.6274859201128038  0.2497731129365164  0.7191782185399803  1.0000
  C   C11       1.0  0.40723868981329764  0.8350968201255496  0.3356050484958929  1.0000
  C   C12       1.0  0.5927614009878255  0.1649036280280782  0.664394594135338  1.0000
  C   C13       1.0  0.6122221069881848  0.8648989321002672  0.4151489060415585  1.0000
  C   C14       1.0  0.38777798381293854  0.1351015160533606  0.5848507365896651  1.0000
  C   C15       1.0  0.4958147372155964  0.20875359246926448  0.22689177052395595  1.0000
  C   C16       1.0  0.5041858231675749  0.7912458120103381  0.7731093860908375  1.0000
  C   C17       1.0  0.53000186047948  0.2899618688745491  0.1434500782878274  1.0000
  C   C18       1.0  0.4699975892327757  0.7100375356050463  0.856551224862429  1.0000
  C   C19       1.0  0.40236710985060864  0.40284982683756  0.10392957632986109  1.0000
  C   C20       1.0  0.5976339201146104  0.5971485339680029  0.8960716499853376  1.0000
  C   C21       1.0  0.2446986111233614  0.4223707059261699  0.1497724628495405  1.0000
  C   C22       1.0  0.7553003690068466  0.5776297422274652  0.8502280484587319  1.0000
  C   C23       1.0  0.22067969631147832  0.3355933848878152  0.2327859936334562  1.0000
  C   C24       1.0  0.7793197534007773  0.6644060195917803  0.7672153095168001  1.0000
  C   C25       1.0  0.426876577684169  0.5006598260648403  0.021649140219167903  1.0000
  C   C26       1.0  0.5731244522810429  0.4993385347407298  0.978350641812867  1.0000
  C   C27       1.0  0.5381188400495988  0.4367921936959718  0.48193404305496296  1.0000
  C   C28       1.0  0.46188218991561314  0.5632061671095983  0.5180664611186572  1.0000
  C   C29       1.0  0.7117394613490403  0.3609922361228612  0.4662893175975287  1.0000
  C   C30       1.0  0.28825951878116035  0.6390082120307667  0.5337111937107437  1.0000
  C   C31       1.0  0.8190407916724499  0.412615484752024  0.4885208511714795  1.0000
  C   C32       1.0  0.18095818845775116  0.587384963401604  0.5114789379952144  1.0000
  C   C33       1.0  0.9829597799747842  0.3353836064074471  0.4718749518275018  1.0000
  C   C34       1.0  0.01703984124428362  0.6646178854202134  0.5281246211033235  1.0000
  C   C35       1.0  0.9465648961325288  0.1587240340864824  0.4131977133199314  1.0000
  C   C36       1.0  0.053434725086546654  0.8412774577411781  0.5868018596108939  1.0000
  C   C37       1.0  0.7800506798184161  0.229573845727316  0.4285242425177032  1.0000
  C   C38       1.0  0.21994830031179194  0.770426602426312  0.5714755466489834  1.0000
  C   C39       1.0  0.029694496749840496  0.1741015272693076  0.9574777576126294  1.0000
  C   C40       1.0  0.9703049529624085  0.8258978772102878  0.042522101254455325  1.0000
  C   C41       1.0  0.19693445952694327  0.1145244388446898  0.9504914340087468  1.0000
  C   C42       1.0  0.80306627236304  0.8854770529829706  0.049508714528201415  1.0000
  C   C43       1.0  0.26861977278075955  0.0671771227233364  0.03759537180092559  1.0000
  C   C44       1.0  0.7313798484383156  0.9328243691043241  0.9624049232714784  1.0000
  C   C45       1.0  0.1629212768884685  0.0824878207681365  0.1276019828821759  1.0000
  C   C46       1.0  0.8370781728237873  0.917511583711466  0.8723985981264946  1.0000
  C   C47       1.0  0.9970799323316302  0.1434498646327924  0.12680943194473565  1.0000
  C   C48       1.0  0.002918876291758455  0.8565484961727706  0.873189921016639  1.0000
  C   C49       1.0  0.4421372816127159  0.0039169086409103  0.039439740037522604  1.0000
  C   C50       1.0  0.5578623396063592  0.9960845831867502  0.960561277176467  1.0000
  N   N1        1.0  0.34372506607808617  0.23140966834904483  0.27239820726153147  1.0000
  N   N2        1.0  0.6562743836341695  0.7685897361305507  0.7276023737471391  1.0000
  N   N3        1.0  0.0476947090829185  0.2106342930743565  0.43399643960601963  1.0000
  N   N4        1.0  0.9523058513002527  0.789365111405246  0.5660039948671953  1.0000
  N   N5        1.0  0.928734376397081  0.1902763874123394  0.043787619355917635  1.0000
  N   N6        1.0  0.07126665356813792  0.8097219733932306  0.9562114405345313  1.0000
  Cl  Cl1       1.0  0.1725717166615581  0.7852645161347596  0.27640467986922357  1.0000
  Cl  Cl2       1.0  0.827429954392528  0.2147348883448359  0.7235948859269428  1.0000
  Cl  Cl3       1.0  0.8018826152128042  0.4758036853262624  0.17153603648602464  1.0000
  Cl  Cl4       1.0  0.19811747558831175  0.5241967628273656  0.8284636061452064  1.0000
  Cl  Cl5       1.0  0.8938253414973617  0.6486225372106347  0.29864369798859514  1.0000
  Cl  Cl6       1.0  0.10617427972170648  0.3513789546170258  0.7013551528006448  1.0000
  O   O1        1.0  0.5806822104992692  0.9939220905931024  0.39788992535101647  1.0000
  O   O2        1.0  0.4193178803018541  0.0060783575605257  0.6021097172802143  1.0000
  O   O3        1.0  0.6704392254927928  0.7887837849695956  0.4916480779578052  1.0000
  O   O4        1.0  0.3295608653083306  0.2112166631840324  0.5083515646734256  1.0000
  O   O5        1.0  0.29123277920343343  0.941477470501013  0.376422174609786  1.0000
  O   O6        1.0  0.7087666705088154  0.0585219339785894  0.623577684257306  1.0000
