data_image0
_chemical_formula_structural       Na2P4H30C12O14
_chemical_formula_sum              "Na2 P4 H30 C12 O14"
_cell_length_a       6.436676518648674
_cell_length_b       9.112767483574773
_cell_length_c       12.40321314130728
_cell_angle_alpha    108.31077631871355
_cell_angle_beta     93.05658851104538
_cell_angle_gamma    101.00733771351435

_space_group_name_H-M_alt    "P 1"
_space_group_IT_number       1

loop_
  _space_group_symop_operation_xyz
  'x, y, z'

loop_
  _atom_site_type_symbol
  _atom_site_label
  _atom_site_symmetry_multiplicity
  _atom_site_fract_x
  _atom_site_fract_y
  _atom_site_fract_z
  _atom_site_occupancy
  Na  Na1       1.0  0.801654492064891  0.8750218446346734  0.9034254344997947  1.0000
  Na  Na2       1.0  0.1983500108942025  0.12497549872666266  0.0965744787650848  1.0000
  P   P1        1.0  0.28517069100167447  0.9464479127231866  0.8195943708277226  1.0000
  P   P2        1.0  0.7148901921119659  0.05354582541860958  0.18039561935508167  1.0000
  P   P3        1.0  0.3196987581164165  0.6572351880858062  0.8807861945815674  1.0000
  P   P4        1.0  0.6802952457987885  0.34276347119998707  0.11921216056040859  1.0000
  H   H1        1.0  0.6263347226420211  0.14109874113604795  0.9451867413021305  1.0000
  H   H2        1.0  0.37367708623396817  0.8589021657013515  0.05481262760666531  1.0000
  H   H3        1.0  0.9250563918481589  0.5897678083313449  0.7836788415484363  1.0000
  H   H4        1.0  0.07494491570788137  0.4102343871344089  0.21631976889694468  1.0000
  H   H5        1.0  0.14748692181205308  0.6908942301223177  0.5956548776489612  1.0000
  H   H6        1.0  0.8525128264296952  0.30910789445962183  0.40434609451994413  1.0000
  H   H7        1.0  0.0021653587453726803  0.4268169620787034  0.618731383433726  1.0000
  H   H8        1.0  0.9978184103976487  0.5731889183431348  0.3812676858948194  1.0000
  H   H9        1.0  0.2677504870119449  0.4077584964486788  0.6473724938856762  1.0000
  H   H10       1.0  0.7322303648486965  0.5922378276797529  0.3526265585734407  1.0000
  H   H11       1.0  0.177288691494276  0.4178903153481172  0.5124367292620846  1.0000
  H   H12       1.0  0.822697188459642  0.5821072419557323  0.4875603379644673  1.0000
  H   H13       1.0  0.057658526977547774  0.2959645516510391  0.9048765696607148  1.0000
  H   H14       1.0  0.9423319063475335  0.7040376389579917  0.09512417897828837  1.0000
  H   H15       1.0  0.22254847837155714  0.461825204311438  0.0141078616197348  1.0000
  H   H16       1.0  0.7774404024674125  0.538176997302102  0.9858928497642835  1.0000
  H   H17       1.0  0.3396319281003173  0.3465703249815775  0.898297353354593  1.0000
  H   H18       1.0  0.6603584983965974  0.6534317837391228  0.10170579426291941  1.0000
  H   H19       1.0  0.537283815274627  0.8185718153464449  0.652617754085874  1.0000
  H   H20       1.0  0.462719234733413  0.1814208181084638  0.34738015159553726  1.0000
  H   H21       1.0  0.48555376798808675  0.6429112684977126  0.5325347014957629  1.0000
  H   H22       1.0  0.5144430743515684  0.3570814362713647  0.4674622555061987  1.0000
  H   H23       1.0  0.5835872923230169  0.6396847595857905  0.6683812338295495  1.0000
  H   H24       1.0  0.4164057151548093  0.360305571294937  0.3316158443599591  1.0000
  H   H25       1.0  0.09133705541532323  0.06418877937913688  0.5950456493090499  1.0000
  H   H26       1.0  0.9086692665776539  0.9358144854853733  0.4049557738607916  1.0000
  H   H27       1.0  0.98538963590525  0.08205422260417088  0.7284251249391858  1.0000
  H   H28       1.0  0.014625169303663168  0.9179512739507059  0.2715794874460755  1.0000
  H   H29       1.0  0.9532574326364555  0.8906488990574671  0.6218216775696987  1.0000
  H   H30       1.0  0.0467484214625671  0.10935784782513738  0.3781830132666498  1.0000
  C   C1        1.0  0.19816954093744243  0.7243532943229667  0.7709758210716586  1.0000
  C   C2        1.0  0.8018345009558699  0.27564761294478757  0.22902496088121893  1.0000
  C   C3        1.0  0.24591349258710682  0.6446015471037254  0.6470602045045126  1.0000
  C   C4        1.0  0.7540847054445902  0.3554006157788334  0.3529399307499048  1.0000
  C   C5        1.0  0.168382148801804  0.4638735087504244  0.6048134249293469  1.0000
  C   C6        1.0  0.8316082845232772  0.5361286818586064  0.39518732370965637  1.0000
  C   C7        1.0  0.19758137202156686  0.3926581234678322  0.9227538619517189  1.0000
  C   C8        1.0  0.8024106160656855  0.6073440834327852  0.07724612428275886  1.0000
  C   C9        1.0  0.47725237656483427  0.6899189879736694  0.6249059185420123  1.0000
  C   C10       1.0  0.522746015984879  0.3100736784947813  0.37509187537443717  1.0000
  C   C11       1.0  0.0602466331263045  0.008116320032449706  0.6605500334042985  1.0000
  C   C12       1.0  0.9397658965350644  0.9918868735178915  0.3394523384449855  1.0000
  O   O1        1.0  0.13718577939111043  0.017115127111615894  0.9005971447300567  1.0000
  O   O2        1.0  0.8628064524833331  0.9828927393356034  0.09941231074943593  1.0000
  O   O3        1.0  0.522210602165849  0.9882040063764845  0.8610699033104793  1.0000
  O   O4        1.0  0.4777762112999326  0.011786559595066097  0.1389214282425755  1.0000
  O   O5        1.0  0.2645840365325255  0.9942251349870046  0.7052116378997012  1.0000
  O   O6        1.0  0.7354227488022929  0.005774593267197798  0.2947881169226463  1.0000
  O   O7        1.0  0.2691268194418939  0.7558302578374165  0.001006807115835789  1.0000
  O   O8        1.0  0.730882598419072  0.24417287583362673  0.9989978892019878  1.0000
  O   O9        1.0  0.5465566058691279  0.6466799939741674  0.8706805747162463  1.0000
  O   O10       1.0  0.4534494586803106  0.3533174475670932  0.1293161771656059  1.0000
  O   O11       1.0  0.1556841804572713  0.49074819691053045  0.8548225801638408  1.0000
  O   O12       1.0  0.8443136492155361  0.5092527270791789  0.14517885242859305  1.0000
  O   O13       1.0  0.9691737945097074  0.6932506346345234  0.7739889956475282  1.0000
  O   O14       1.0  0.030829422511047293  0.3067526522390124  0.2260123530123508  1.0000
