data_image0
_chemical_formula_structural       Co2H24C32O12
_chemical_formula_sum              "Co2 H24 C32 O12"
_cell_length_a       5.117506719032665
_cell_length_b       8.83571068433077
_cell_length_c       15.35828113006889
_cell_angle_alpha    100.35639977029172
_cell_angle_beta     89.99976852049484
_cell_angle_gamma    90.00038417860114

_space_group_name_H-M_alt    "P 1"
_space_group_IT_number       1

loop_
  _space_group_symop_operation_xyz
  'x, y, z'

loop_
  _atom_site_type_symbol
  _atom_site_label
  _atom_site_symmetry_multiplicity
  _atom_site_fract_x
  _atom_site_fract_y
  _atom_site_fract_z
  _atom_site_occupancy
  Co  Co1       1.0  0.49998699238189204  0.999998108537092  0.5000004944942872  1.0000
  Co  Co2       1.0  0.9999930641152943  0.5000014694848004  0.499999384735645  1.0000
  H   H1        1.0  0.2741667202684539  0.6652261325640011  0.372282700120877  1.0000
  H   H2        1.0  0.22581396130172493  0.1652216580797727  0.3722915912335266  1.0000
  H   H3        1.0  0.7258187667910363  0.3347705340409277  0.6277161421026632  1.0000
  H   H4        1.0  0.7741812960624443  0.834768094168858  0.627713694650893  1.0000
  H   H5        1.0  0.7880107239713683  0.904650532262515  0.27863692426902986  1.0000
  H   H6        1.0  0.7119941030625514  0.40464949287456153  0.2786273101011787  1.0000
  H   H7        1.0  0.2119747630815212  0.09534957870046408  0.7213668337230243  1.0000
  H   H8        1.0  0.2880226492092035  0.5953494676266828  0.7213763283031155  1.0000
  H   H9        1.0  0.8483670564279535  0.8821974212482145  0.11703614003862839  1.0000
  H   H10       1.0  0.6516666663396081  0.382204241062759  0.11702287230843207  1.0000
  H   H11       1.0  0.1516340632292383  0.1178038361497826  0.8829703415478674  1.0000
  H   H12       1.0  0.34834813190914826  0.6178004781625716  0.8829774579008001  1.0000
  H   H13       1.0  0.5694221297506062  0.7039070880155407  0.011942588422698497  1.0000
  H   H14       1.0  0.9306360046194087  0.2039079202146965  0.011938711969683902  1.0000
  H   H15       1.0  0.4305965766685987  0.2960987848090538  0.9880559083305158  1.0000
  H   H16       1.0  0.06938465580014251  0.7960887413176749  0.9880633852751257  1.0000
  H   H17       1.0  0.22476668829639124  0.5480445201166474  0.07065316769824649  1.0000
  H   H18       1.0  0.2752882499478774  0.04804021591426989  0.0706587492871265  1.0000
  H   H19       1.0  0.7752402937086629  0.4519682578246388  0.9293447444683449  1.0000
  H   H20       1.0  0.7247363186367792  0.9519553002419768  0.9293399733443406  1.0000
  H   H21       1.0  0.16617683956384613  0.5707246630706706  0.23276783504367415  1.0000
  H   H22       1.0  0.33381988882828034  0.07071709679778589  0.2327768994318262  1.0000
  H   H23       1.0  0.833798877202639  0.4292823673799049  0.7672262242468335  1.0000
  H   H24       1.0  0.6661988174966923  0.9292749647280159  0.76722341751568  1.0000
  C   C1        1.0  0.6552468703502684  0.7166648115722724  0.42014678610752293  1.0000
  C   C2        1.0  0.8446954601681186  0.21665040532037952  0.4201381948454709  1.0000
  C   C3        1.0  0.344717121808948  0.2833226488325664  0.5798524015798703  1.0000
  C   C4        1.0  0.1552861187121906  0.7833382128116141  0.5798565553458487  1.0000
  C   C5        1.0  0.4222081373714276  0.7521245597529997  0.3638834233566682  1.0000
  C   C6        1.0  0.0777815122568342  0.2521334133219568  0.36388349633234895  1.0000
  C   C7        1.0  0.5777753956068494  0.24787325428383866  0.6361174914628762  1.0000
  C   C8        1.0  0.9222274237115615  0.7478621017819194  0.6361158773158664  1.0000
  C   C9        1.0  0.4733409261266388  0.738662748475484  0.2659617696021854  1.0000
  C   C10       1.0  0.026649657513488006  0.23866452712100283  0.26596183251411526  1.0000
  C   C11       1.0  0.52663283650773  0.2613408201673479  0.734038441059134  1.0000
  C   C12       1.0  0.9733710028917102  0.7613275354343187  0.7340378334241819  1.0000
  C   C13       1.0  0.6660585360927415  0.8259647404830233  0.23300202981483403  1.0000
  C   C14       1.0  0.8339438909554958  0.32596064976073785  0.23299647959402847  1.0000
  C   C15       1.0  0.33393281320351786  0.17403652305621617  0.7670005457282514  1.0000
  C   C16       1.0  0.16606504501557848  0.6740360148308325  0.7670036646328524  1.0000
  C   C17       1.0  0.6990848161585107  0.8129628650788306  0.14184964733023256  1.0000
  C   C18       1.0  0.800938015431896  0.31296441355353016  0.1418466843724389  1.0000
  C   C19       1.0  0.3009163035422803  0.18704299950630338  0.8581540574977282  1.0000
  C   C20       1.0  0.1990845990578975  0.68703109746815  0.8581552933007683  1.0000
  C   C21       1.0  0.5416973488752249  0.7131696705667211  0.08308109925322782  1.0000
  C   C22       1.0  0.9583659628645833  0.21317289539400966  0.0830780823919639  1.0000
  C   C23       1.0  0.45831354122404383  0.2868350496783449  0.9169185799500281  1.0000
  C   C24       1.0  0.04165469759491461  0.78682837229924  0.9169218891024469  1.0000
  C   C25       1.0  0.34984539584231567  0.625793295813338  0.1157798243157586  1.0000
  C   C26       1.0  0.15019239585773655  0.1257851232268337  0.11578453403961217  1.0000
  C   C27       1.0  0.6501518157708618  0.37421718210997307  0.8842171977070307  1.0000
  C   C28       1.0  0.8498399890332137  0.8742103929424729  0.8842141885875561  1.0000
  C   C29       1.0  0.3159827697427176  0.638647777803861  0.20699697623349064  1.0000
  C   C30       1.0  0.18402875269268293  0.13864086880945337  0.20700176822342795  1.0000
  C   C31       1.0  0.6840027173703549  0.36135464752842233  0.7929985577939077  1.0000
  C   C32       1.0  0.8159840914524923  0.8613569504076536  0.7929958915392985  1.0000
  O   O1        1.0  0.7252539394253504  0.8264630694290459  0.48192938303783  1.0000
  O   O2        1.0  0.7747144375034126  0.3264553190963184  0.4819300494428731  1.0000
  O   O3        1.0  0.27472568543115733  0.17354509204305657  0.5180771649755654  1.0000
  O   O4        1.0  0.22528472812473413  0.6735459516398093  0.518067969038988  1.0000
  O   O5        1.0  0.7589470353187481  0.5850988530197512  0.40663741452980406  1.0000
  O   O6        1.0  0.7410309731751782  0.0851139850326774  0.4066502745942201  1.0000
  O   O7        1.0  0.2410521303493312  0.41490702387724815  0.593358478201651  1.0000
  O   O8        1.0  0.2589545139848823  0.9148976433850109  0.5933468670055573  1.0000
  O   O9        1.0  0.3266701086353335  0.8998002227016357  0.4023020684530465  1.0000
  O   O10       1.0  0.17332090724880095  0.39979904388186344  0.40229900697939763  1.0000
  O   O11       1.0  0.6733056079860021  0.10018838721047979  0.5976978898065538  1.0000
  O   O12       1.0  0.8266704420447795  0.6002010701696817  0.5977027979850291  1.0000
