data_image0
_chemical_formula_structural       Cu4H72C58S6I4N4
_chemical_formula_sum              "Cu4 H72 C58 S6 I4 N4"
_cell_length_a       10.612506393982768
_cell_length_b       13.063154742023784
_cell_length_c       14.113848392810418
_cell_angle_alpha    84.12880226875795
_cell_angle_beta     68.22894009535185
_cell_angle_gamma    73.64962365309859

_space_group_name_H-M_alt    "P 1"
_space_group_IT_number       1

loop_
  _space_group_symop_operation_xyz
  'x, y, z'

loop_
  _atom_site_type_symbol
  _atom_site_label
  _atom_site_symmetry_multiplicity
  _atom_site_fract_x
  _atom_site_fract_y
  _atom_site_fract_z
  _atom_site_occupancy
  Cu  Cu1       1.0  0.5469191040895041  0.9538998165373586  0.06941853162433624  1.0000
  Cu  Cu2       1.0  0.4530808939163791  0.0460995530492667  0.9305808726833934  1.0000
  Cu  Cu3       1.0  0.5640968929763801  0.5124888337301455  0.39843404376231467  1.0000
  Cu  Cu4       1.0  0.4359009767200348  0.4875137158308361  0.6015692023974425  1.0000
  H   H1        1.0  0.7351592535369496  0.7236336669511654  0.04959657341495218  1.0000
  H   H2        1.0  0.26484221558289534  0.27636729762668466  0.9504043972429204  1.0000
  H   H3        1.0  0.8461896017873016  0.702177042991309  0.12444783127489961  1.0000
  H   H4        1.0  0.15380854686949874  0.297824710549925  0.875554702371524  1.0000
  H   H5        1.0  0.43428171939233096  0.7046536023132504  0.2703308291262872  1.0000
  H   H6        1.0  0.5657169858189378  0.295346560941006  0.7296695711865128  1.0000
  H   H7        1.0  0.5095108162841981  0.7017653782519488  0.1326189502490962  1.0000
  H   H8        1.0  0.49048991659550734  0.2982347897065409  0.8673808830802302  1.0000
  H   H9        1.0  0.5426709315964902  0.7580207028301656  0.3650321837185332  1.0000
  H   H10       1.0  0.45732749602070305  0.24198025469133458  0.6349696374145567  1.0000
  H   H11       1.0  0.7094119962751294  0.7882762941003136  0.3028414351825219  1.0000
  H   H12       1.0  0.2905897531714103  0.21172387270529205  0.6971595312689658  1.0000
  H   H13       1.0  0.26302829111231313  0.8192265649167254  0.941407026247525  1.0000
  H   H14       1.0  0.7369709733860503  0.1807720045455383  0.05859265734554953  1.0000
  H   H15       1.0  0.037144399295016096  0.8806386290819361  0.7348877972153361  1.0000
  H   H16       1.0  0.9628566125450815  0.11936074285681289  0.2651113236006497  1.0000
  H   H17       1.0  0.8114115796936829  0.9081469756462183  0.8831489127151643  1.0000
  H   H18       1.0  0.18858796376506606  0.09185079779630459  0.11685005836456952  1.0000
  H   H19       1.0  0.14954939080030272  0.8323843899780952  0.11688918240950842  1.0000
  H   H20       1.0  0.8504525287677396  0.1676181760013691  0.8831100965555124  1.0000
  H   H21       1.0  0.012156047641440142  0.7669868437629503  0.15755264260157284  1.0000
  H   H22       1.0  0.9878418193223482  0.23301570930303941  0.8424491869442933  1.0000
  H   H23       1.0  0.9703827236324399  0.9070678740623631  0.16684418444167912  1.0000
  H   H24       1.0  0.02961576390104879  0.092938679579099  0.8331542659248756  1.0000
  H   H25       1.0  0.2911307228795367  0.8489944239419883  0.6666770934257045  1.0000
  H   H26       1.0  0.7088724268341906  0.15100175575489058  0.33332314368688293  1.0000
  H   H27       1.0  0.3624820322638769  0.7425325752830785  0.7347860391102403  1.0000
  H   H28       1.0  0.6375139131377524  0.2574667813900646  0.2652159157783345  1.0000
  H   H29       1.0  0.3718553948452481  0.8725807918375139  0.7506326778760127  1.0000
  H   H30       1.0  0.6281480297299425  0.12741459709712188  0.24936472180239383  1.0000
  H   H31       1.0  0.09103588133812221  0.9462289450227318  0.5512507263047299  1.0000
  H   H32       1.0  0.9089626469200951  0.053768827820171304  0.4487478199597987  1.0000
  H   H33       1.0  0.45045975153968243  0.07542809223388498  0.4405238843241861  1.0000
  H   H34       1.0  0.5495429477258468  0.924566486061387  0.5594780444812458  1.0000
  H   H35       1.0  0.5150893523420806  0.9997550236946608  0.2687532131461198  1.0000
  H   H36       1.0  0.4849090657109444  0.00024594609433849994  0.7312436498383336  1.0000
  H   H37       1.0  0.036390541893766185  0.8531560482067845  0.44601684856745294  1.0000
  H   H38       1.0  0.9636081551196439  0.1468441255624811  0.5539793019036667  1.0000
  H   H39       1.0  0.18746831529819022  0.7683571477642983  0.35917343544781494  1.0000
  H   H40       1.0  0.8125290943858516  0.2316438126625826  0.6408265442561643  1.0000
  H   H41       1.0  0.09487618613790966  0.8845438447451173  0.3132386126249358  1.0000
  H   H42       1.0  0.9051226210807004  0.11545313207803788  0.686759221126252  1.0000
  H   H43       1.0  0.1733157730821446  0.1542895463603102  0.6054021324228105  1.0000
  H   H44       1.0  0.826684612723007  0.8457058320129676  0.39459753434470474  1.0000
  H   H45       1.0  0.31200158945555495  0.0593382487510041  0.63237563911693  1.0000
  H   H46       1.0  0.6879997013449283  0.9406603271679969  0.36762276918572223  1.0000
  H   H47       1.0  0.14412916735427928  0.0341446483385255  0.6695124753392963  1.0000
  H   H48       1.0  0.8558721261788235  0.9658539240754677  0.33048734957724696  1.0000
  H   H49       1.0  0.07092569686426486  0.6366663388532601  0.48777374351015373  1.0000
  H   H50       1.0  0.9290762227037772  0.36333622712620434  0.5122255354548673  1.0000
  H   H51       1.0  0.6323549749684219  0.7494356753271703  0.6694579495245849  1.0000
  H   H52       1.0  0.3676494716388419  0.2505597054445801  0.33054341650376534  1.0000
  H   H53       1.0  0.5704531988288153  0.6876034810215688  0.5359241677485616  1.0000
  H   H54       1.0  0.42955215277378034  0.31239509729590503  0.46407593981492573  1.0000
  H   H55       1.0  0.14808404080978477  0.5591781683088826  0.33124578384979503  1.0000
  H   H56       1.0  0.8519211978549847  0.4408236104596952  0.668751223819726  1.0000
  H   H57       1.0  0.04154845014752345  0.6178604250087644  0.2568643963462592  1.0000
  H   H58       1.0  0.958457070210265  0.38214055423507176  0.743133315423819  1.0000
  H   H59       1.0  0.04041771070432532  0.489046542315556  0.3085159424639201  1.0000
  H   H60       1.0  0.9595859562054514  0.5109568261403936  0.6914827737240189  1.0000
  H   H61       1.0  0.8645690606376348  0.8280257265950722  0.665619731324398  1.0000
  H   H62       1.0  0.1354352757644293  0.1719728511227814  0.33437995142387683  1.0000
  H   H63       1.0  0.008947341250887957  0.7127865305726573  0.6496802211217982  1.0000
  H   H64       1.0  0.9910564344977786  0.2872136426896859  0.3503194700392599  1.0000
  H   H65       1.0  0.8390535065012588  0.716292316986404  0.7432390668017917  1.0000
  H   H66       1.0  0.16095128171532025  0.2837078603805593  0.2567596325605877  1.0000
  H   H67       1.0  0.3780055965615361  0.3745584504616488  0.1728860254655018  1.0000
  H   H68       1.0  0.6219895078599933  0.6254432995282356  0.8271159420422409  1.0000
  H   H69       1.0  0.5171162416559056  0.41789171583933177  0.07767246671791381  1.0000
  H   H70       1.0  0.48287481699291845  0.5821100124745655  0.9223355929054053  1.0000
  H   H71       1.0  0.3509514995254008  0.5123765074691702  0.13750366229587743  1.0000
  H   H72       1.0  0.6490458488760352  0.48761885859024545  0.8624989798676952  1.0000
  C   C1        1.0  0.7448203377737243  0.7468084584879193  0.11864474411614621  1.0000
  C   C2        1.0  0.2551795568585007  0.2531940992823038  0.8813565184462463  1.0000
  C   C3        1.0  0.49774472602639724  0.7404299872361904  0.20209484171373765  1.0000
  C   C4        1.0  0.5022518413112352  0.25957336825992877  0.7979044423024675  1.0000
  C   C5        1.0  0.6457657067060154  0.7347746735641038  0.303752267283528  1.0000
  C   C6        1.0  0.35423317135937543  0.2652278853590033  0.6962478621567101  1.0000
  C   C7        1.0  0.9111531449243131  0.875679234123446  0.9948134802858347  1.0000
  C   C8        1.0  0.08884656865593851  0.12432093849293578  0.005183803307439016  1.0000
  C   C9        1.0  0.03876323597304313  0.8501790090360402  0.013071893841889391  1.0000
  C   C10       1.0  0.961235916953811  0.1498227591248309  0.9869253981641677  1.0000
  C   C11       1.0  0.1637437230276362  0.836523617073432  0.9283827837489584  1.0000
  C   C12       1.0  0.8362554312655207  0.16347814933493504  0.07161521656404798  1.0000
  C   C13       1.0  0.16650767367394792  0.8462653461802603  0.8277250764412258  1.0000
  C   C14       1.0  0.8334938974532379  0.1537324319664961  0.17227332765503442  1.0000
  C   C15       1.0  0.03811532553354618  0.8725345433806239  0.8123599919048916  1.0000
  C   C16       1.0  0.9618859652669443  0.1274640325383771  0.18763841639776055  1.0000
  C   C17       1.0  0.911339516044343  0.8877595057984493  0.8951603368682514  1.0000
  C   C18       1.0  0.08866149306313525  0.11223986964530043  0.10483736733384325  1.0000
  C   C19       1.0  0.04328133620224158  0.8385156849275784  0.11892967920029923  1.0000
  C   C20       1.0  0.9567182740043518  0.16148767587240084  0.8810694626476379  1.0000
  C   C21       1.0  0.30486002456272127  0.8274055303213219  0.7400277638990859  1.0000
  C   C22       1.0  0.6951402524035402  0.17259304324556274  0.2599709278953029  1.0000
  C   C23       1.0  0.34025677191029063  0.9301796321076521  0.31441251011334265  1.0000
  C   C24       1.0  0.6597407425137122  0.06981813838312691  0.6855863196429228  1.0000
  C   C25       1.0  0.2188673916588257  0.9144341522218227  0.39361556087701643  1.0000
  C   C26       1.0  0.7811241078740351  0.08556918976120191  0.6063858489048216  1.0000
  C   C27       1.0  0.18458967239929083  0.9583733764880193  0.4892848263371761  1.0000
  C   C28       1.0  0.8154101459209145  0.041623606192260396  0.510711307308384  1.0000
  C   C29       1.0  0.2651625414912929  0.016903782451400697  0.5078801072955983  1.0000
  C   C30       1.0  0.73483329233882  0.9830987729203499  0.4921194560059519  1.0000
  C   C31       1.0  0.3861829112805921  0.030100569324147796  0.4277564862699209  1.0000
  C   C32       1.0  0.6138184869924714  0.9698948131537506  0.5722421886989153  1.0000
  C   C33       1.0  0.422643953123277  0.9878506776925062  0.33184384322684224  1.0000
  C   C34       1.0  0.5773574506150255  0.012144697775390498  0.668157664969776  1.0000
  C   C35       1.0  0.12924967577677648  0.8523383579014306  0.3772793085273491  1.0000
  C   C36       1.0  0.8707490226029364  0.147661814115331  0.6227175502507196  1.0000
  C   C37       1.0  0.22127698283725292  0.0682298678186086  0.6094990317407465  1.0000
  C   C38       1.0  0.7787241337427985  0.9317663141840382  0.39049893912752526  1.0000
  C   C39       1.0  0.7858401716235263  0.6328731240125549  0.4340966947208075  1.0000
  C   C40       1.0  0.2141660849743943  0.36712865185063503  0.5659021543778238  1.0000
  C   C41       1.0  0.9287678997165544  0.6167874237403482  0.4195525057524493  1.0000
  C   C42       1.0  0.07123762337385385  0.3832135519984803  0.5804466226315272  1.0000
  C   C43       1.0  0.960478890406506  0.6494898449472545  0.49766715837914455  1.0000
  C   C44       1.0  0.039526352357199764  0.3505119285638258  0.5023319742112236  1.0000
  C   C45       1.0  0.8566257786125531  0.6988861878972656  0.5871223242120183  1.0000
  C   C46       1.0  0.14338058955687677  0.301112389267324  0.4128789164736305  1.0000
  C   C47       1.0  0.7154927397303085  0.7114460533511106  0.6002732666844822  1.0000
  C   C48       1.0  0.28451565610755847  0.28855252851771945  0.3997274070176858  1.0000
  C   C49       1.0  0.6804370557712006  0.678184337229183  0.5250078247916009  1.0000
  C   C50       1.0  0.3195685761580905  0.3218134433160457  0.4749922785655016  1.0000
  C   C51       1.0  0.04616184614212665  0.5679795366650993  0.3239111262853244  1.0000
  C   C52       1.0  0.9538436742156549  0.4320214425787298  0.6760865854847611  1.0000
  C   C53       1.0  0.8953577236873685  0.7400882011613206  0.6653600803437385  1.0000
  C   C54       1.0  0.10464808246236149  0.25991197330026233  0.3346404604477443  1.0000
  C   C55       1.0  0.47632953316409754  0.46099450164594186  0.22734026554985584  1.0000
  C   C56       1.0  0.5236515654619112  0.5390095918056089  0.7726731913460585  1.0000
  C   C57       1.0  0.42788042512479046  0.44094857985658825  0.14965998914191658  1.0000
  C   C58       1.0  0.5721134953410213  0.559050768607321  0.8503439493440227  1.0000
  S   S1        1.0  0.7497233258496507  0.8915260519606604  0.1002428927710071  1.0000
  S   S2        1.0  0.25027554948311354  0.10847651046744741  0.8997558200553329  1.0000
  S   S3        1.0  0.38651649747065875  0.8786456869974157  0.19095965299599277  1.0000
  S   S4        1.0  0.613483216109593  0.12135448561896571  0.8090376305972813  1.0000
  S   S5        1.0  0.7392959554052824  0.5989648389895734  0.3348499871606096  1.0000
  S   S6        1.0  0.26070449714772786  0.4010361267411611  0.6651498503751014  1.0000
  I   I1        1.0  0.4519291001957343  0.16130530800951692  0.07984853840805779  1.0000
  I   I2        1.0  0.5480695995502955  0.8386948622547409  0.9201490286769599  1.0000
  I   I3        1.0  0.33039024822984703  0.6534014999528991  0.5096335192522545  1.0000
  I   I4        1.0  0.6696163650067959  0.3466050532279965  0.4903704545568106  1.0000
  N   N1        1.0  0.6315205360585948  0.7320378243690867  0.20727121597384723  1.0000
  N   N2        1.0  0.3684793558410106  0.2679647369061371  0.7927286299746472  1.0000
  N   N3        1.0  0.514621664902961  0.47667088458634055  0.29060727023708927  1.0000
  N   N4        1.0  0.48536432047584555  0.5233308372244636  0.7094000819240804  1.0000
