data_image0
_chemical_formula_structural       Cd4H36C40I8N20
_chemical_formula_sum              "Cd4 H36 C40 I8 N20"
_cell_length_a       7.35122827694559
_cell_length_b       14.302489785349195
_cell_length_c       17.515542484543943
_cell_angle_alpha    89.99930211112851
_cell_angle_beta     89.99696830792386
_cell_angle_gamma    107.79562311230288

_space_group_name_H-M_alt    "P 1"
_space_group_IT_number       1

loop_
  _space_group_symop_operation_xyz
  'x, y, z'

loop_
  _atom_site_type_symbol
  _atom_site_label
  _atom_site_symmetry_multiplicity
  _atom_site_fract_x
  _atom_site_fract_y
  _atom_site_fract_z
  _atom_site_occupancy
  Cd  Cd1       1.0  0.19209611333473475  0.5735283674618188  0.2472829294214591  1.0000
  Cd  Cd2       1.0  0.8079082676123333  0.9264671639698037  0.7472841464171154  1.0000
  Cd  Cd3       1.0  0.807916867058992  0.4264749167912711  0.7527284469944393  1.0000
  Cd  Cd4       1.0  0.19210210941822228  0.07353312588092821  0.25270553502786447  1.0000
  H   H1        1.0  0.6582376227179266  0.3918628527418734  0.4529674294079841  1.0000
  H   H2        1.0  0.34171519542591255  0.1081340389374077  0.9529434446920607  1.0000
  H   H3        1.0  0.34175674745410595  0.6081251716211895  0.5470456600702605  1.0000
  H   H4        1.0  0.6582754445638839  0.8918681019507488  0.04704909157361211  1.0000
  H   H5        1.0  0.17019928151213295  0.7417875566498467  0.38850308083581814  1.0000
  H   H6        1.0  0.8298022326520778  0.7582024349509239  0.8885091437966255  1.0000
  H   H7        1.0  0.8297598463098551  0.2582144017834835  0.6114917394740547  1.0000
  H   H8        1.0  0.1701955765162637  0.241797211417321  0.11148910161713133  1.0000
  H   H9        1.0  0.05872745887245409  0.8195921253679331  0.49975937605458404  1.0000
  H   H10       1.0  0.9412770308636808  0.6803970429986422  0.999769507973909  1.0000
  H   H11       1.0  0.9412369116198886  0.18039937110778936  0.5002314478048789  1.0000
  H   H12       1.0  0.05872477963757212  0.319605669647899  0.0002281664555284  1.0000
  H   H13       1.0  0.804059524856072  0.7230338100076282  0.583942991263868  1.0000
  H   H14       1.0  0.19596276912142935  0.7769636445990499  0.08393936948459672  1.0000
  H   H15       1.0  0.1959511128635469  0.27695719341122066  0.41605411221071625  1.0000
  H   H16       1.0  0.8040385516540026  0.22304118909625711  0.9160554503307525  1.0000
  H   H17       1.0  0.6524696933867133  0.5415189475383997  0.5648078829729145  1.0000
  H   H18       1.0  0.34752098962558625  0.9584852949043495  0.06479019424376281  1.0000
  H   H19       1.0  0.3475335862507479  0.45847740195168996  0.4351989262203163  1.0000
  H   H20       1.0  0.6524733491417364  0.041519181334429285  0.9352074802603026  1.0000
  H   H21       1.0  0.6928022452972797  0.3073488012323509  0.3265683508407236  1.0000
  H   H22       1.0  0.30714620144998145  0.19265069780100674  0.8265413322481407  1.0000
  H   H23       1.0  0.3071876746506844  0.6926482950077002  0.6734435967932555  1.0000
  H   H24       1.0  0.6928543606773303  0.8073390746862756  0.17344092738831313  1.0000
  H   H25       1.0  0.7814199266484749  0.39542523498746374  0.2524578071071062  1.0000
  H   H26       1.0  0.21854368321972828  0.10456781982693997  0.7524395094064289  1.0000
  H   H27       1.0  0.21858056006194468  0.6045709714896506  0.7475518567261474  1.0000
  H   H28       1.0  0.7814434781770814  0.8954126822531946  0.24754960149283536  1.0000
  H   H29       1.0  0.8474885758220835  0.1733725211775976  0.30644123577600624  1.0000
  H   H30       1.0  0.15245466305646727  0.32661797620418304  0.8064213354124449  1.0000
  H   H31       1.0  0.1525253843534174  0.8266265210589128  0.6935712824959668  1.0000
  H   H32       1.0  0.8475520871470862  0.6733735434558668  0.193583761004426  1.0000
  H   H33       1.0  0.3945542470035121  0.3510458652383405  0.24123755617712564  1.0000
  H   H34       1.0  0.6053928213602688  0.14892018884152242  0.7412528040837857  1.0000
  H   H35       1.0  0.605445636494359  0.6489488798490441  0.7587572637119636  1.0000
  H   H36       1.0  0.394608728328123  0.851091810206526  0.258739161080591  1.0000
  C   C1        1.0  0.9655858813094086  0.5992638819921156  0.4121630010801028  1.0000
  C   C2        1.0  0.03443818133773398  0.9007351846141916  0.9121512123835132  1.0000
  C   C3        1.0  0.03442872460522745  0.4007466391556277  0.5878420951395142  1.0000
  C   C4        1.0  0.9655586071728949  0.09925868665401082  0.08784532031016573  1.0000
  C   C5        1.0  0.0578268022774112  0.6989395965144497  0.4261905564476933  1.0000
  C   C6        1.0  0.9421554558242489  0.801061943833865  0.9261913008640548  1.0000
  C   C7        1.0  0.9421593133919474  0.30107805056442055  0.5738099726821063  1.0000
  C   C8        1.0  0.05782616030553809  0.19892828926607814  0.07380808662985322  1.0000
  C   C9        1.0  0.9962373562023784  0.741256233662092  0.48862993051122333  1.0000
  C   C10       1.0  0.003783842441961946  0.7587434022400574  0.9886221667792444  1.0000
  C   C11       1.0  0.0037506047184905347  0.25874934674269673  0.5113723114309323  1.0000
  C   C12       1.0  0.9962178535821807  0.24125572772504708  0.011377220436429502  1.0000
  C   C13       1.0  0.8495226750723006  0.6855069562065665  0.5369524237965849  1.0000
  C   C14       1.0  0.15048924749408601  0.8145134620664436  0.036948263110268414  1.0000
  C   C15       1.0  0.15049465037454016  0.31451014243995  0.4630492468256833  1.0000
  C   C16       1.0  0.8495100725942561  0.18548983848466347  0.9630471276579871  1.0000
  C   C17       1.0  0.7616153803417447  0.5852797870894406  0.5260014325651811  1.0000
  C   C18       1.0  0.23838272592821133  0.9147302164305415  0.025976439406150607  1.0000
  C   C19       1.0  0.2383968487292307  0.4147349044216142  0.4740122274803085  1.0000
  C   C20       1.0  0.7616010054483127  0.08526513251528912  0.9740195225055714  1.0000
  C   C21       1.0  0.821364031131509  0.5437788234978669  0.4622947148830932  1.0000
  C   C22       1.0  0.1786216558895433  0.9562390480834749  0.9622904441163271  1.0000
  C   C23       1.0  0.17864982333658472  0.4562431048774798  0.5377143777306586  1.0000
  C   C24       1.0  0.8213704534015276  0.0437567296887309  0.0377089432270807  1.0000
  C   C25       1.0  0.8570155344282143  0.452105616791215  0.3639695882993266  1.0000
  C   C26       1.0  0.1429549328342858  0.047869637572596005  0.8639650680821874  1.0000
  C   C27       1.0  0.1429735862845476  0.5478664011950372  0.6360252318411812  1.0000
  C   C28       1.0  0.8570412517622685  0.9521227721338051  0.1360263263330523  1.0000
  C   C29       1.0  0.8150021220156275  0.3689684107419994  0.3084832470699227  1.0000
  C   C30       1.0  0.18498478591745737  0.1310192571705713  0.8084722599615548  1.0000
  C   C31       1.0  0.18502602314469388  0.6310120431424836  0.6915144271878477  1.0000
  C   C32       1.0  0.8150092515324517  0.8689844884441912  0.1915139961198378  1.0000
  C   C33       1.0  0.9705236624993105  0.2355219860253044  0.2926140521612127  1.0000
  C   C34       1.0  0.029393418703577406  0.264460406558257  0.7926027869789678  1.0000
  C   C35       1.0  0.029454482569192912  0.7644730767832257  0.7073938991672081  1.0000
  C   C36       1.0  0.9706109556467056  0.7355352837080319  0.20739717114745565  1.0000
  C   C37       1.0  0.24710894370291922  0.3273291584159638  0.2604548675221707  1.0000
  C   C38       1.0  0.7528296886025174  0.17264236302827382  0.7604579396605475  1.0000
  C   C39       1.0  0.7528791640076379  0.6726635530172161  0.7395485163346365  1.0000
  C   C40       1.0  0.24717042372577688  0.827359547391602  0.23953516742060543  1.0000
  I   I1        1.0  0.9948447567243335  0.5028746255450615  0.11515100737889841  1.0000
  I   I2        1.0  0.005145066625196719  0.9971367446068913  0.6151399260125388  1.0000
  I   I3        1.0  0.005173694840038893  0.4971253620019382  0.8848592271507416  1.0000
  I   I4        1.0  0.9949177263185262  0.002854782607492707  0.38485774778952486  1.0000
  I   I5        1.0  0.5434341459194413  0.6389561165913092  0.3167734253976917  1.0000
  I   I6        1.0  0.4565836881170783  0.861004531433693  0.8168073295208701  1.0000
  I   I7        1.0  0.45657911253768896  0.36109081882994326  0.6832373798449185  1.0000
  I   I8        1.0  0.5434371489368601  0.1390177545398856  0.1831909155029763  1.0000
  N   N1        1.0  0.982408992836099  0.539769619222355  0.3515227208552076  1.0000
  N   N2        1.0  0.017593155969109518  0.9602400418441449  0.8515249089729765  1.0000
  N   N3        1.0  0.01761520043061184  0.4602442542701155  0.648473811413986  1.0000
  N   N4        1.0  0.9824057476644511  0.03975894523956918  0.1484699109030601  1.0000
  N   N5        1.0  0.7586318865470008  0.4507123614555369  0.4303962872829602  1.0000
  N   N6        1.0  0.24135095345769736  0.049293853846748406  0.930380386267629  1.0000
  N   N7        1.0  0.2413733200938495  0.5492919555937092  0.5696133764506117  1.0000
  N   N8        1.0  0.7586460638008177  0.9507071827337016  0.0696155754611354  1.0000
  N   N9        1.0  0.9743186338125795  0.3299748290056144  0.29595050743137113  1.0000
  N   N10       1.0  0.02562687251263181  0.17000463299287824  0.7959341237457096  1.0000
  N   N11       1.0  0.025677434697477977  0.6700139976246006  0.7040648657091069  1.0000
  N   N12       1.0  0.9743688224406315  0.8299898977825394  0.20405327421241284  1.0000
  N   N13       1.0  0.1499212998534176  0.38961905395307644  0.2756249987075492  1.0000
  N   N14       1.0  0.8500174425556608  0.11035419363020792  0.7756237230209921  1.0000
  N   N15       1.0  0.8500634106033546  0.6103720528041097  0.7243818107259729  1.0000
  N   N16       1.0  0.1499825562446516  0.88964413434104  0.22435796565160623  1.0000
  N   N17       1.0  0.14158912699137008  0.23163825645477942  0.2702764583522637  1.0000
  N   N18       1.0  0.858319481195977  0.2683364600899552  0.770270910882559  1.0000
  N   N19       1.0  0.8583795457386286  0.7683570368220315  0.7297309221606768  1.0000
  N   N20       1.0  0.14169198897927532  0.7316631701523381  0.22973361451310845  1.0000
