data_image0
_chemical_formula_structural       Zn2H40C60N4O12
_chemical_formula_sum              "Zn2 H40 C60 N4 O12"
_cell_length_a       9.435699481431191
_cell_length_b       10.878876704814136
_cell_length_c       28.149537187977923
_cell_angle_alpha    89.22888842355638
_cell_angle_beta     89.7006144723613
_cell_angle_gamma    89.37475207109401

_space_group_name_H-M_alt    "P 1"
_space_group_IT_number       1

loop_
  _space_group_symop_operation_xyz
  'x, y, z'

loop_
  _atom_site_type_symbol
  _atom_site_label
  _atom_site_symmetry_multiplicity
  _atom_site_fract_x
  _atom_site_fract_y
  _atom_site_fract_z
  _atom_site_occupancy
  Zn  Zn1       1.0  0.3561919712625822  0.4976054754897916  0.5001752081373568  1.0000
  Zn  Zn2       1.0  0.6438166623331866  0.502354191312385  0.4997423300921114  1.0000
  H   H1        1.0  0.27724673547821505  0.46057231513488267  0.3477720712221739  1.0000
  H   H2        1.0  0.7189127488836107  0.5556123856014992  0.6518247181923869  1.0000
  H   H3        1.0  0.35020205831771267  0.07525350646998419  0.5649982615568377  1.0000
  H   H4        1.0  0.6498119572301206  0.924693790357999  0.4350155956973155  1.0000
  H   H5        1.0  0.2545126107348352  0.9341379111290565  0.4871590249042371  1.0000
  H   H6        1.0  0.7454708328266476  0.065794621190669  0.5128716474829107  1.0000
  H   H7        1.0  0.098673588077844  0.42883394323218477  0.5748775590328921  1.0000
  H   H8        1.0  0.9013115089612924  0.5712321933355611  0.42508287366906233  1.0000
  H   H9        1.0  0.89984062942532  0.2986094789994667  0.5144887780584002  1.0000
  H   H10       1.0  0.10015260127865129  0.7013959856402393  0.4854697859249201  1.0000
  H   H11       1.0  0.10094141018286958  0.3674911138765395  0.43975150964126203  1.0000
  H   H12       1.0  0.8990595776784644  0.632485869827228  0.5602018423855741  1.0000
  H   H13       1.0  0.2775450244748043  0.45690771389214274  0.2585266363943291  1.0000
  H   H14       1.0  0.7187338744098425  0.5603884634856938  0.7410513896611235  1.0000
  H   H15       1.0  0.4493725129469937  0.19100234126985785  0.12210515457918804  1.0000
  H   H16       1.0  0.5052141954662092  0.8141098498593137  0.8778551833295442  1.0000
  H   H17       1.0  0.2796813876547546  0.45905496363121046  0.6534293791474967  1.0000
  H   H18       1.0  0.7244441576043811  0.5256136669426041  0.3467821782472385  1.0000
  H   H19       1.0  0.2793217410004729  0.4596482418330439  0.7426505425702674  1.0000
  H   H20       1.0  0.7256154706276732  0.5250337373496023  0.25755710527204206  1.0000
  H   H21       1.0  0.4958250764570875  0.1973806141816397  0.8772912068207861  1.0000
  H   H22       1.0  0.552103502719774  0.800401292947747  0.12250894822770422  1.0000
  H   H23       1.0  0.4919296409774033  0.190126877900731  0.9654055418622465  1.0000
  H   H24       1.0  0.5490058957376007  0.8082241986323666  0.034432174548641115  1.0000
  H   H25       1.0  0.4526856502141073  0.19045485967031078  0.034028047644632416  1.0000
  H   H26       1.0  0.5097359251771607  0.8139680098213798  0.9659329407376307  1.0000
  H   H27       1.0  0.6093322162153213  0.878457099233124  0.6878603098506562  1.0000
  H   H28       1.0  0.7859185341043613  0.8801740976801683  0.6659017839163968  1.0000
  H   H29       1.0  0.7171270476536763  0.008381940627217  0.6974057273033126  1.0000
  H   H30       1.0  0.7209342959518352  0.05500813477398479  0.6095999216465346  1.0000
  H   H31       1.0  0.5459400798577647  0.054169000975477395  0.6315841040107132  1.0000
  H   H32       1.0  0.5169012734783394  0.8371800499794729  0.6033173992050536  1.0000
  H   H33       1.0  0.6920302794405018  0.8372046593786491  0.5811033047284512  1.0000
  H   H34       1.0  0.21358475408549535  0.11921874768903251  0.33420178112187676  1.0000
  H   H35       1.0  0.38997821892305495  0.12111928724657871  0.3121304848579882  1.0000
  H   H36       1.0  0.28238560741765173  0.9910246221929101  0.30271339035314787  1.0000
  H   H37       1.0  0.45396225347278113  0.9455400950802472  0.368466550450684  1.0000
  H   H38       1.0  0.27906429748721717  0.944621454744144  0.3905411660154671  1.0000
  H   H39       1.0  0.3078762851249124  0.1625984587016305  0.4188886539254782  1.0000
  H   H40       1.0  0.4829579878152401  0.1625919901480373  0.3966392557968634  1.0000
  C   C1        1.0  0.5036384003216482  0.260083898213928  0.5020631821866743  1.0000
  C   C2        1.0  0.4964148357299294  0.7398654209075414  0.49790299705902913  1.0000
  C   C3        1.0  0.500980797545644  0.4965277417606657  0.10152826521802893  1.0000
  C   C4        1.0  0.5006311063364989  0.50489568361138  0.89834758671136  1.0000
  C   C5        1.0  0.48278714978159337  0.3841201512669556  0.12669194078154086  1.0000
  C   C6        1.0  0.5029786803354597  0.6185357819356695  0.8731970712189183  1.0000
  C   C7        1.0  0.46482793917964216  0.2759907426190935  0.10185189159489033  1.0000
  C   C8        1.0  0.5052263889791817  0.7278984323754827  0.8980756290360716  1.0000
  C   C9        1.0  0.5191370465921779  0.6068937870381462  0.12678693150595421  1.0000
  C   C10       1.0  0.4980055755247932  0.3932568336890299  0.8730814465630846  1.0000
  C   C11       1.0  0.5007236788192273  0.4935249446622906  0.35232838214162154  1.0000
  C   C12       1.0  0.4994005110472273  0.5069734797733928  0.647566258697907  1.0000
  C   C13       1.0  0.49382172140522573  0.3872061428018584  0.9738815975435531  1.0000
  C   C14       1.0  0.5148615262909786  0.613657135696627  0.025986005954166606  1.0000
  C   C15       1.0  0.5079323281290087  0.616286554764983  0.9740668813406475  1.0000
  C   C16       1.0  0.4869691296235956  0.3856489707202186  0.025826068705157506  1.0000
  C   C17       1.0  0.5008392808002283  0.5027666872935725  0.9491905263030562  1.0000
  C   C18       1.0  0.5009328915469737  0.49863640024560146  0.05069047803416281  1.0000
  C   C19       1.0  0.493547900807755  0.2792442015253301  0.9473329257358429  1.0000
  C   C20       1.0  0.5343994073246989  0.7201107282199003  0.05251064437477742  1.0000
  C   C21       1.0  0.4959968007897402  0.281836143914731  0.8977246483474915  1.0000
  C   C22       1.0  0.5368282591340829  0.7171189043859415  0.1021143346488529  1.0000
  C   C23       1.0  0.5000374956819228  0.49656438595143737  0.4056320915420387  1.0000
  C   C24       1.0  0.49999143287462294  0.5036527298690459  0.5942739376173378  1.0000
  C   C25       1.0  0.4672882655906533  0.27707135339977634  0.052233428484797215  1.0000
  C   C26       1.0  0.5080259378673162  0.7263680980769678  0.9476855384170053  1.0000
  C   C27       1.0  0.4161302580966222  0.0401848443902324  0.5359559344057702  1.0000
  C   C28       1.0  0.5838700696133969  0.9597551298585358  0.46405229523909963  1.0000
  C   C29       1.0  0.5483228718105052  0.952183151002515  0.5420711009203105  1.0000
  C   C30       1.0  0.451664899951197  0.047743038573706514  0.45793756783987777  1.0000
  C   C31       1.0  0.4938184406741328  0.875792855974332  0.4980703529189726  1.0000
  C   C32       1.0  0.5061967157652134  0.12414904069468947  0.5019165283166701  1.0000
  C   C33       1.0  0.36346299207040283  0.9640013338460347  0.4929116617302044  1.0000
  C   C34       1.0  0.6365321202347899  0.035931268636950585  0.5071012284500753  1.0000
  C   C35       1.0  0.9520218123210425  0.38653042497713125  0.5081998545137623  1.0000
  C   C36       1.0  0.04798424846977409  0.6134658682227824  0.4917519800464661  1.0000
  C   C37       1.0  0.0473243035871818  0.4598395108405028  0.5420865408284216  1.0000
  C   C38       1.0  0.9526763387117257  0.5401668950779523  0.4578659672454323  1.0000
  C   C39       1.0  0.04888009897779708  0.42557136149834907  0.4661331825057361  1.0000
  C   C40       1.0  0.9511196376343634  0.5744221940646312  0.5338147674313731  1.0000
  C   C41       1.0  0.4821313377701841  0.37957276943813417  0.17926922576526755  1.0000
  C   C42       1.0  0.5016958838888002  0.6231008549830149  0.8206083936280495  1.0000
  C   C43       1.0  0.5199646105124528  0.6072447985777386  0.17932910926079162  1.0000
  C   C44       1.0  0.49845966676098635  0.392787438323559  0.8205362364712914  1.0000
  C   C45       1.0  0.6280737430208844  0.5099851055563107  0.27760426174587854  1.0000
  C   C46       1.0  0.37478198104520277  0.4817324170844372  0.7224600821766674  1.0000
  C   C47       1.0  0.6273301007506689  0.510825728891497  0.3270338236712504  1.0000
  C   C48       1.0  0.3751508344157699  0.4808589093228761  0.6730305884870094  1.0000
  C   C49       1.0  0.37472766268149377  0.4740403574662366  0.3275826589425962  1.0000
  C   C50       1.0  0.6232098445686631  0.5355006976792467  0.6721355539516909  1.0000
  C   C51       1.0  0.3748168172864084  0.4724379670607989  0.2781569552169573  1.0000
  C   C52       1.0  0.6232485392287899  0.537676672680341  0.7215616272403838  1.0000
  C   C53       1.0  0.501564121106682  0.491058628775832  0.2535460352768908  1.0000
  C   C54       1.0  0.4990532713351428  0.5100380357239798  0.746339723813151  1.0000
  C   C55       1.0  0.5995730431350734  0.8975147088841452  0.5881706788009566  1.0000
  C   C56       1.0  0.6387972083324269  0.9944796914287153  0.6247490290916888  1.0000
  C   C57       1.0  0.6905912195270502  0.9375068224846004  0.6715555409545361  1.0000
  C   C58       1.0  0.4003282591549961  0.1022846887597808  0.4118319630166455  1.0000
  C   C59       1.0  0.3610697090547532  0.005176038105176399  0.37531684826203104  1.0000
  C   C60       1.0  0.30896296629492787  0.061975278064551304  0.32852266482056086  1.0000
  N   N1        1.0  0.5015783203831745  0.4924151766832026  0.20229806381857432  1.0000
  N   N2        1.0  0.49952363787652826  0.508841088323031  0.797608180304181  1.0000
  N   N3        1.0  0.14218410958175554  0.4988576321138183  0.5000373140207088  1.0000
  N   N4        1.0  0.8578209365486842  0.5011349980817386  0.4999113417147712  1.0000
  O   O1        1.0  0.3811910428062006  0.31120783721594586  0.5016019909207119  1.0000
  O   O2        1.0  0.6188664366663518  0.6887744152516788  0.4977622442237149  1.0000
  O   O3        1.0  0.6219169168350264  0.31581431068592286  0.5017056612084831  1.0000
  O   O4        1.0  0.3781339648252454  0.6841223517010064  0.49885028822478733  1.0000
  O   O5        1.0  0.37966977029985566  0.49496370332028755  0.4263042544622381  1.0000
  O   O6        1.0  0.6202512562615111  0.5072200271968227  0.5735741682893052  1.0000
  O   O7        1.0  0.6199855328477496  0.5006667864251141  0.4260689751908729  1.0000
  O   O8        1.0  0.3801311625515281  0.49740155506694345  0.5738982066839429  1.0000
  O   O9        1.0  0.466221173122527  0.2836312392655103  0.20220730172116672  1.0000
  O   O10       1.0  0.5021066267081692  0.7200891674716842  0.7976432441064392  1.0000
  O   O11       1.0  0.4981179584459952  0.297519072584393  0.7975096649292157  1.0000
  O   O12       1.0  0.5351408194648783  0.701505682266813  0.20231015514777795  1.0000
