data_image0
_chemical_formula_structural       Cd4H36C28N4O28
_chemical_formula_sum              "Cd4 H36 C28 N4 O28"
_cell_length_a       6.802633280000328
_cell_length_b       8.653118555001122
_cell_length_c       16.85834707600264
_cell_angle_alpha    89.99994402336999
_cell_angle_beta     90.00003144805933
_cell_angle_gamma    90.00001637685492

_space_group_name_H-M_alt    "P 1"
_space_group_IT_number       1

loop_
  _space_group_symop_operation_xyz
  'x, y, z'

loop_
  _atom_site_type_symbol
  _atom_site_label
  _atom_site_symmetry_multiplicity
  _atom_site_fract_x
  _atom_site_fract_y
  _atom_site_fract_z
  _atom_site_occupancy
  Cd  Cd1       1.0  0.06710209580509738  0.3876393469587284  0.10189898687706027  1.0000
  Cd  Cd2       1.0  0.9328983309250203  0.8876399252337136  0.8980991986743159  1.0000
  Cd  Cd3       1.0  0.06709944730539519  0.8876391485658456  0.39809990526986627  1.0000
  Cd  Cd4       1.0  0.9328950993496291  0.38764012362481276  0.6018994666367872  1.0000
  H   H1        1.0  0.6118648892363864  0.7241294292776529  0.33898982281144896  1.0000
  H   H2        1.0  0.3881354777893121  0.22412785863953386  0.661011410626031  1.0000
  H   H3        1.0  0.6118676176609482  0.22413067081473764  0.16100986588129015  1.0000
  H   H4        1.0  0.3881342193815343  0.7241277727587202  0.8389878084882765  1.0000
  H   H5        1.0  0.6834723599626642  0.7461713390143103  0.19462869726807233  1.0000
  H   H6        1.0  0.31652213503577536  0.24617410019531144  0.805371338758327  1.0000
  H   H7        1.0  0.6834752835814584  0.24617346143293867  0.30537099632503834  1.0000
  H   H8        1.0  0.3165221514543432  0.746173133430858  0.6946278533454728  1.0000
  H   H9        1.0  0.4704841590030497  0.6022695305764714  0.09778825470516488  1.0000
  H   H10       1.0  0.5295161635253719  0.10227099943531928  0.9022124466629929  1.0000
  H   H11       1.0  0.4704857435436691  0.10227031301884179  0.40221264995360406  1.0000
  H   H12       1.0  0.5295145789837576  0.6022713726473582  0.5977862718803663  1.0000
  H   H13       1.0  0.7940263930671277  0.17578408215577207  0.03225765525473179  1.0000
  H   H14       1.0  0.20597395630468898  0.6757843652384777  0.9677424160702228  1.0000
  H   H15       1.0  0.7940267787702168  0.6757849068620413  0.46774269144484026  1.0000
  H   H16       1.0  0.20597357060180593  0.17578469618493386  0.5322573798798229  1.0000
  H   H17       1.0  0.7115421753977245  0.34770477013367435  0.011009968278109699  1.0000
  H   H18       1.0  0.28845823675111854  0.8477038755763074  0.9889900168336252  1.0000
  H   H19       1.0  0.7115411198114499  0.8477043987445966  0.488990867008752  1.0000
  H   H20       1.0  0.28845782231881856  0.3477042469646604  0.5110097112807777  1.0000
  H   H21       1.0  0.844470180122684  0.6320912495374102  0.03614108259360189  1.0000
  H   H22       1.0  0.1555301532947695  0.13209251738655323  0.9638590106418686  1.0000
  H   H23       1.0  0.8444718480177257  0.13209307029625705  0.46385929725538216  1.0000
  H   H24       1.0  0.15552995541891326  0.6320918522805952  0.5361407959799536  1.0000
  H   H25       1.0  0.9503292517377699  0.7082175008241832  0.11202929816124647  1.0000
  H   H26       1.0  0.04967110947736589  0.20821657812563635  0.8879713500775066  1.0000
  H   H27       1.0  0.9503278769846303  0.20821715471928565  0.3879716602758235  1.0000
  H   H28       1.0  0.04967101421153329  0.7082169242303705  0.612028987962759  1.0000
  H   H29       1.0  0.1165746851117078  0.4465964990878887  0.930174723563972  1.0000
  H   H30       1.0  0.883424293129252  0.9465963314932535  0.06982580513388106  1.0000
  H   H31       1.0  0.11657600280041439  0.9465957698683667  0.5698255098416636  1.0000
  H   H32       1.0  0.8834259154774812  0.4465959050615139  0.430173832500884  1.0000
  H   H33       1.0  0.3399323299895939  0.4517541727856409  0.9610472874824793  1.0000
  H   H34       1.0  0.6600666501342969  0.9517540139803911  0.038952645450976285  1.0000
  H   H35       1.0  0.3399336059346396  0.9517546579809558  0.53895239992201  1.0000
  H   H36       1.0  0.6600683142270184  0.4517546844386898  0.46104693983352246  1.0000
  C   C1        1.0  0.24970063158596642  0.49593774162322285  0.2632113547434328  1.0000
  C   C2        1.0  0.7502998346907788  0.9959339634665054  0.7367897423901792  1.0000
  C   C3        1.0  0.24970364504875422  0.9959355389593652  0.23678930331235645  1.0000
  C   C4        1.0  0.7502982912459544  0.4959350104789378  0.7632106074657796  1.0000
  C   C5        1.0  0.07773633827100208  0.39339432393094836  0.28553857987441217  1.0000
  C   C6        1.0  0.9222640905618249  0.8933952493572618  0.7144613823247992  1.0000
  C   C7        1.0  0.07773785152651408  0.8933967863745377  0.21446209128951915  1.0000
  C   C8        1.0  0.9222640473267487  0.3933985651768665  0.7855384640863787  1.0000
  C   C9        1.0  0.3633434410967382  0.5714908075866134  0.3206529229881027  1.0000
  C   C10       1.0  0.6366554001730478  0.07149041330316659  0.6793472006370748  1.0000
  C   C11       1.0  0.3633461943152481  0.07149085856867288  0.17934738005700973  1.0000
  C   C12       1.0  0.6366511769351604  0.571490362321505  0.8206521503900459  1.0000
  C   C13       1.0  0.325759522530916  0.5570751080186367  0.40821014219223156  1.0000
  C   C14       1.0  0.6742378434558061  0.05707604445002798  0.5917893954835661  1.0000
  C   C15       1.0  0.3257665674180003  0.05707417000137129  0.09179015970907757  1.0000
  C   C16       1.0  0.6742322685876728  0.5570746711614587  0.9082099711454243  1.0000
  C   C17       1.0  0.5207413126419735  0.6638275014745857  0.2955371691834613  1.0000
  C   C18       1.0  0.47926050238329043  0.1638258685180318  0.7044640944939643  1.0000
  C   C19       1.0  0.5207426298011198  0.1638298159581737  0.20446252944650203  1.0000
  C   C20       1.0  0.4792606552411413  0.6638258653434264  0.7955351751627189  1.0000
  C   C21       1.0  0.5602024499933194  0.6771048766185501  0.21502453197789603  1.0000
  C   C22       1.0  0.43979495982307537  0.1771042372414441  0.7849761318625779  1.0000
  C   C23       1.0  0.560205346034621  0.17710588220449344  0.28497576196414076  1.0000
  C   C24       1.0  0.4397950038183254  0.6771043873108054  0.715022529164514  1.0000
  C   C25       1.0  0.4422510165997337  0.5970436053129048  0.16136269437214415  1.0000
  C   C26       1.0  0.5577493040200281  0.0970428901880851  0.8386380096172202  1.0000
  C   C27       1.0  0.4422525151792697  0.0970433531081625  0.338637613439296  1.0000
  C   C28       1.0  0.5577492754578585  0.5970431423952433  0.6613607178383701  1.0000
  N   N1        1.0  0.29097430412351605  0.5095849234153957  0.18524701018169046  1.0000
  N   N2        1.0  0.7090259845603057  0.009583131944054897  0.8147537376660734  1.0000
  N   N3        1.0  0.290974300390161  0.0095858723230862  0.31475390096128547  1.0000
  N   N4        1.0  0.709025988293888  0.5095856499950883  0.685246253707646  1.0000
  O   O1        1.0  0.041873803148298784  0.3810877036670489  0.35954464814705017  1.0000
  O   O2        1.0  0.9581222111334  0.881084155365286  0.6404559134021921  1.0000
  O   O3        1.0  0.0418766863568294  0.8810868400128268  0.14045602119921335  1.0000
  O   O4        1.0  0.9581237379822127  0.38108733032544245  0.8595445403499435  1.0000
  O   O5        1.0  0.9842323098784858  0.32386809788687276  0.23139519324236343  1.0000
  O   O6        1.0  0.0157651535294718  0.8238687174430337  0.7686059901780308  1.0000
  O   O7        1.0  0.9842368363800204  0.8238693016240645  0.26860512157492167  1.0000
  O   O8        1.0  0.0157650370844848  0.3238698250129061  0.7313948754894495  1.0000
  O   O9        1.0  0.21718102185260338  0.6588499326925968  0.44112792252891336  1.0000
  O   O10       1.0  0.7828222613733258  0.1588486447658184  0.5588721572887747  1.0000
  O   O11       1.0  0.21718067213546985  0.15884905732952595  0.058871710965263384  1.0000
  O   O12       1.0  0.7828182010329243  0.6588483644762416  0.9411277756742604  1.0000
  O   O13       1.0  0.4157599703377598  0.45138024016567607  0.4457702074191728  1.0000
  O   O14       1.0  0.5842419496859463  0.9513779279866909  0.5542279461687797  1.0000
  O   O15       1.0  0.4157597969199998  0.9513795406304835  0.05422932362195349  1.0000
  O   O16       1.0  0.5842391830669554  0.45137862751986535  0.9457706094995613  1.0000
  O   O17       1.0  0.784982868868802  0.2847147331357718  0.05096349403861919  1.0000
  O   O18       1.0  0.21501605026051604  0.7847138981923791  0.9490371158386777  1.0000
  O   O19       1.0  0.7849832292792627  0.7847155934460374  0.4490367960203299  1.0000
  O   O20       1.0  0.2150156898500839  0.28471534918812574  0.5509632206784261  1.0000
  O   O21       1.0  0.8877461026052912  0.6115506299445883  0.09180847180243747  1.0000
  O   O22       1.0  0.11225275329272928  0.11154968276031949  0.9081922249119426  1.0000
  O   O23       1.0  0.8877462252119769  0.11154908969959366  0.4081925211675139  1.0000
  O   O24       1.0  0.11225116066645308  0.6115500673529936  0.5918075823690285  1.0000
  O   O25       1.0  0.20140951657798203  0.47774477307748214  0.9756519001934404  1.0000
  O   O26       1.0  0.7985894730366426  0.9777435174091165  0.024348612884686798  1.0000
  O   O27       1.0  0.20140930275676536  0.9777429747645102  0.5243483364932897  1.0000
  O   O28       1.0  0.7985911568760287  0.47774531572338214  0.47565099022907004  1.0000
