data_image0
_chemical_formula_structural       Cd4H32C48S8N16Cl8
_chemical_formula_sum              "Cd4 H32 C48 S8 N16 Cl8"
_cell_length_a       8.612176515912784
_cell_length_b       11.430731057908444
_cell_length_c       18.11430894400997
_cell_angle_alpha    77.89196417046216
_cell_angle_beta     76.58801566382976
_cell_angle_gamma    67.91612011924963

_space_group_name_H-M_alt    "P 1"
_space_group_IT_number       1

loop_
  _space_group_symop_operation_xyz
  'x, y, z'

loop_
  _atom_site_type_symbol
  _atom_site_label
  _atom_site_symmetry_multiplicity
  _atom_site_fract_x
  _atom_site_fract_y
  _atom_site_fract_z
  _atom_site_occupancy
  Cd  Cd1       1.0  0.9999969280285651  0.9999988185351112  0.500003701526957  1.0000
  Cd  Cd2       1.0  0.5000005039577715  0.5000013151634874  2.2329631830992968e-07  1.0000
  Cd  Cd3       1.0  0.9613081186909228  0.25019744133665256  0.7499407555934712  1.0000
  Cd  Cd4       1.0  0.038689615010703296  0.749802330146423  0.2500611321725117  1.0000
  H   H1        1.0  0.7188151507198978  0.21845760344383078  0.6040348968574776  1.0000
  H   H2        1.0  0.45988250983216244  0.7191116879638031  0.10366489719214665  1.0000
  H   H3        1.0  0.2811794054910519  0.7815421680392516  0.3959665774891691  1.0000
  H   H4        1.0  0.5401218887190211  0.2808899894152077  0.8963340827742032  1.0000
  H   H5        1.0  0.44585005434700514  0.4014379070734364  0.5980753140194254  1.0000
  H   H6        1.0  0.5553632523767292  0.9024893708951041  0.09768497546374998  1.0000
  H   H7        1.0  0.5541459419866751  0.5985647232535384  0.40192317395934657  1.0000
  H   H8        1.0  0.4446416967170136  0.09751230648390669  0.9023134539600408  1.0000
  H   H9        1.0  0.425623588075851  0.2928723571356358  0.38651035029020164  1.0000
  H   H10       1.0  0.8935986641050917  0.7924963049047163  0.8870749686980588  1.0000
  H   H11       1.0  0.5743806682933723  0.7071274143474398  0.6134874087481919  1.0000
  H   H12       1.0  0.10640278298048857  0.2075072783702225  0.11292234099378363  1.0000
  H   H13       1.0  0.6990786968067791  0.1116683485140513  0.4023305536612868  1.0000
  H   H14       1.0  0.7861272659885965  0.6109892588300453  0.9028966647507775  1.0000
  H   H15       1.0  0.3009248540857853  0.8883304700210599  0.5976696232388221  1.0000
  H   H16       1.0  0.2138736305544242  0.3890143244449007  0.09710119548361723  1.0000
  H   H17       1.0  0.16352316476675802  0.0023547344231929  0.8611693265806155  1.0000
  H   H18       1.0  0.9735372428747837  0.5028315706215523  0.36165064405595615  1.0000
  H   H19       1.0  0.8364740293764543  0.9976383664241267  0.13882952682910604  1.0000
  H   H20       1.0  0.026465290775781997  0.4971672479135592  0.6383481561461437  1.0000
  H   H21       1.0  0.43844477777970037  0.8197248871280252  0.8620541296277795  1.0000
  H   H22       1.0  0.8801335385349133  0.32013619843367985  0.3624063230229808  1.0000
  H   H23       1.0  0.5615538437341101  0.18027202551115806  0.13794482566115823  1.0000
  H   H24       1.0  0.11987049180923007  0.6798616671534674  0.637592692870598  1.0000
  H   H25       1.0  0.6144123529366045  0.9868185952218196  0.6356856282194202  1.0000
  H   H26       1.0  0.7627372765870959  0.4856813660832486  0.13519448081071062  1.0000
  H   H27       1.0  0.38558546460814097  0.0131811762612557  0.36431378176343543  1.0000
  H   H28       1.0  0.237268321541613  0.5143164995038987  0.8648053612383111  1.0000
  H   H29       1.0  0.3319423229281996  0.1637145546075018  0.6452733429629092  1.0000
  H   H30       1.0  0.8592089590022808  0.6625990147552159  0.1449142121373228  1.0000
  H   H31       1.0  0.6680553816040131  0.8362842639276096  0.35472669544753904  1.0000
  H   H32       1.0  0.1407955088718821  0.3373978978839602  0.8550848816412824  1.0000
  C   C1        1.0  0.07247482167727508  0.2349197795509141  0.5562180729289922  1.0000
  C   C2        1.0  0.13569415977522672  0.7346504574921439  0.05621517485191421  1.0000
  C   C3        1.0  0.9275192131605294  0.7650809448801323  0.44378580131575524  1.0000
  C   C4        1.0  0.8643066529246748  0.265353125782795  0.9437851631656146  1.0000
  C   C5        1.0  0.9089562794042936  0.0160009492916942  0.690811845436933  1.0000
  C   C6        1.0  0.38540483877343235  0.5165130445647889  0.19086801078274362  1.0000
  C   C7        1.0  0.09102698335953338  0.9840007280873166  0.30919869455673427  1.0000
  C   C8        1.0  0.6145975125416071  0.4834895857621859  0.8091313040346934  1.0000
  C   C9        1.0  0.6494131460675021  0.2369133466951112  0.5571076642301733  1.0000
  C   C10       1.0  0.5571625683822817  0.737385418153643  0.05695540669978535  1.0000
  C   C11       1.0  0.3505833169656187  0.7630892836318636  0.44289275098916653  1.0000
  C   C12       1.0  0.4428441745210992  0.2626181651213031  0.9430425920242699  1.0000
  C   C13       1.0  0.49734712261914626  0.3390874746271066  0.5537561332600945  1.0000
  C   C14       1.0  0.6101225212173703  0.8397796770657137  0.05357042160258635  1.0000
  C   C15       1.0  0.5026519090232568  0.660913249803933  0.4462415472100503  1.0000
  C   C16       1.0  0.38988433293055624  0.1602191414693976  0.9464264520421681  1.0000
  C   C17       1.0  0.41563290762103117  0.359793128025359  0.4915537698722261  1.0000
  C   C18       1.0  0.732677825487478  0.860138457404453  0.9916642020689823  1.0000
  C   C19       1.0  0.5843689350730086  0.6402095023016159  0.5084448565961992  1.0000
  C   C20       1.0  0.2673262485462189  0.1398651258704859  0.008334071584748401  1.0000
  C   C21       1.0  0.48651345707067145  0.2779358507216044  0.43569889573840476  1.0000
  C   C22       1.0  0.799062277614652  0.7777885060024445  0.9360688936808546  1.0000
  C   C23       1.0  0.513487621807876  0.722063920761471  0.5642984498806529  1.0000
  C   C24       1.0  0.20094183834060422  0.2222150772724945  0.06392814108131262  1.0000
  C   C25       1.0  0.6378782334565826  0.1777152661192432  0.4445985289815227  1.0000
  C   C26       1.0  0.7393418092490475  0.677413543829644  0.9449761994770398  1.0000
  C   C27       1.0  0.3621231991088649  0.8222835524158681  0.5554013723056956  1.0000
  C   C28       1.0  0.2606624471201754  0.3225862276534315  0.05502155956135371  1.0000
  C   C29       1.0  0.2672438563573038  0.9962356270186489  0.8126268114282028  1.0000
  C   C30       1.0  0.9242939378714254  0.4963124535883452  0.3129000894390117  1.0000
  C   C31       1.0  0.7327513616407515  0.0037593797245989  0.18737298729658391  1.0000
  C   C32       1.0  0.07571016356369815  0.5036863649467662  0.6870995369185382  1.0000
  C   C33       1.0  0.42066719177300615  0.8946227854384361  0.8131934961320797  1.0000
  C   C34       1.0  0.8717216787402292  0.3947291533950689  0.313407156036739  1.0000
  C   C35       1.0  0.5793312037157249  0.1053722213048189  0.1868067160120361  1.0000
  C   C36       1.0  0.1282829021464732  0.6052687121920783  0.686591309314281  1.0000
  C   C37       1.0  0.5463476808850912  0.8901668007509257  0.748263405822172  1.0000
  C   C38       1.0  0.8150848954982662  0.3899072366887352  0.24821374077463795  1.0000
  C   C39       1.0  0.4536513362371791  0.1098291589402933  0.25173686624336267  1.0000
  C   C40       1.0  0.1849192059368646  0.6100915818463761  0.7517858855829119  1.0000
  C   C41       1.0  0.5177133651902821  0.9876762483909332  0.6865831095532757  1.0000
  C   C42       1.0  0.807852363129619  0.4869068571671065  0.1863172772431767  1.0000
  C   C43       1.0  0.48228339319090463  0.0123235230921424  0.31341616262313476  1.0000
  C   C44       1.0  0.19214867382736828  0.513092914315969  0.8136813072674515  1.0000
  C   C45       1.0  0.3612111522466678  0.08573291668016478  0.6920155121688083  1.0000
  C   C46       1.0  0.8611270155322828  0.5849585321995859  0.19180343162803137  1.0000
  C   C47       1.0  0.6387858176394586  0.9142639959590183  0.3079850947478136  1.0000
  C   C48       1.0  0.13887448812413797  0.4150412392834894  0.808197080123165  1.0000
  S   S1        1.0  0.12546415223387436  0.1957498063696903  0.47001087890481597  1.0000
  S   S2        1.0  0.2089876317656161  0.6966964459151299  0.9698138109957244  1.0000
  S   S3        1.0  0.8745327338091328  0.8042471062694857  0.5299922057949331  1.0000
  S   S4        1.0  0.7910135765427455  0.303306184411845  0.03018784379839452  1.0000
  S   S5        1.0  0.8225489228603778  0.0628030827300279  0.7744649163082897  1.0000
  S   S6        1.0  0.3409667610753572  0.5626814676059411  0.2748483524807455  1.0000
  S   S7        1.0  0.1774425014465847  0.9371995475969469  0.22554293157720917  1.0000
  S   S8        1.0  0.6590378926703194  0.43732306861696196  0.7251512199859675  1.0000
  N   N1        1.0  0.03414477701816283  0.2669864785959675  0.6178989873747583  1.0000
  N   N2        1.0  0.07929109929215626  0.765950033424829  0.11799855496492033  1.0000
  N   N3        1.0  0.9658484246811552  0.7330161517310073  0.38210349220837264  1.0000
  N   N4        1.0  0.9207097425771591  0.2340545027980738  0.8820036324081428  1.0000
  N   N5        1.0  0.9739197589109589  0.9807168693975895  0.6304455907940323  1.0000
  N   N6        1.0  0.4165038679481369  0.48153508948458057  0.13029379372901675  1.0000
  N   N7        1.0  0.026063983304453576  0.0192838550334571  0.3695637881930978  1.0000
  N   N8        1.0  0.5834957725756664  0.5184675408423871  0.8697070349096523  1.0000
  N   N9        1.0  0.7189035194560204  0.15732027375780427  0.5038050981880036  1.0000
  N   N10       1.0  0.6202695426245698  0.6572710826791164  0.003927548981188542  1.0000
  N   N11       1.0  0.28109257537006704  0.842678544777307  0.49619535295855854  1.0000
  N   N12       1.0  0.379735406469173  0.3427305946998942  0.9960708804426022  1.0000
  N   N13       1.0  0.2372336207843444  0.089922075937281  0.7532850817147223  1.0000
  N   N14       1.0  0.9198949915901976  0.5895422119144982  0.2533534619602592  1.0000
  N   N15       1.0  0.7627628824023419  0.9100748367018949  0.24671359796132467  1.0000
  N   N16       1.0  0.08010958929650497  0.4104556536726491  0.7466450033907537  1.0000
  Cl  Cl1       1.0  0.2295364175650007  0.4855822594948193  0.4828395922514801  1.0000
  Cl  Cl2       1.0  0.8014599575608017  0.9860476603175881  0.983020919520776  1.0000
  Cl  Cl3       1.0  0.7704652829470859  0.5144184649362272  0.5171578132890033  1.0000
  Cl  Cl4       1.0  0.1985419981457781  0.0139559229573507  0.016977078520064005  1.0000
  Cl  Cl5       1.0  0.7351727726359555  0.7641194203827624  0.7425230955701921  1.0000
  Cl  Cl6       1.0  0.7576830735269554  0.2638941624473432  0.24244471084919186  1.0000
  Cl  Cl7       1.0  0.2648270921449337  0.235879398152349  0.2574759795615762  1.0000
  Cl  Cl8       1.0  0.2423240632168982  0.7361027501918399  0.757554107999738  1.0000
