data_image0
_chemical_formula_structural       Al2H20C32O10F2
_chemical_formula_sum              "Al2 H20 C32 O10 F2"
_cell_length_a       7.232437844281708
_cell_length_b       15.294612966613979
_cell_length_c       15.241619173809628
_cell_angle_alpha    74.77219234070802
_cell_angle_beta     74.22019339540405
_cell_angle_gamma    76.16431780192761

_space_group_name_H-M_alt    "P 1"
_space_group_IT_number       1

loop_
  _space_group_symop_operation_xyz
  'x, y, z'

loop_
  _atom_site_type_symbol
  _atom_site_label
  _atom_site_symmetry_multiplicity
  _atom_site_fract_x
  _atom_site_fract_y
  _atom_site_fract_z
  _atom_site_occupancy
  Al  Al1       1.0  0.5001972963176867  0.5010257996544922  0.49842394821690317  1.0000
  Al  Al2       1.0  0.9990475485220714  0.5022449937551983  0.49948130447746303  1.0000
  H   H1        1.0  0.2620283008117212  0.5921740036225884  0.3963916083828564  1.0000
  H   H2        1.0  0.7590702489067309  0.39317749913231376  0.5803242593828487  1.0000
  H   H3        1.0  0.8913180630093436  0.7644510920572429  0.5286856227156064  1.0000
  H   H4        1.0  0.084481935861632  0.22059724616885026  0.5616029947583456  1.0000
  H   H5        1.0  0.6844273130584214  0.24258213502158557  0.4317997480028238  1.0000
  H   H6        1.0  0.7618891791966502  0.07523255287692622  0.433524150575721  1.0000
  H   H7        1.0  0.32228067385288733  0.7747795666797257  0.48482088068114143  1.0000
  H   H8        1.0  0.2412951534790436  0.942078328897793  0.48223614516388114  1.0000
  H   H9        1.0  0.8052920822488968  0.5343013187523269  0.7713887449611576  1.0000
  H   H10       1.0  0.4177237120868397  0.4531507773379033  0.7704650089163108  1.0000
  H   H11       1.0  0.1713478395652217  0.5456136596533341  0.20697431945534814  1.0000
  H   H12       1.0  0.6169093964466583  0.4667314183434997  0.2459740956096751  1.0000
  H   H13       1.0  0.6967668093547346  0.605298538256676  0.9876919691624549  1.0000
  H   H14       1.0  0.5761519321221655  0.5634542300208096  0.9267307397660928  1.0000
  H   H15       1.0  0.38356233434500103  0.39721796517007135  0.012016935378639486  1.0000
  H   H16       1.0  0.513723350802536  0.4650559749347707  0.912528539117801  1.0000
  H   H17       1.0  0.23218320331330486  0.6046193931630341  0.9598222172877158  1.0000
  H   H18       1.0  0.38216289730232234  0.5662070274271471  0.039998057723487086  1.0000
  H   H19       1.0  0.7000032879464724  0.397740250480993  0.03406031934988357  1.0000
  H   H20       1.0  0.5165712832411626  0.4691077227586149  0.10025435332992319  1.0000
  C   C1        1.0  0.8403920565882073  0.5094583791125089  0.3367449039792945  1.0000
  C   C2        1.0  0.6644809210953041  0.6590055412483268  0.502980151752183  1.0000
  C   C3        1.0  0.16304275759945586  0.48948510191446815  0.6611926143016545  1.0000
  C   C4        1.0  0.33188858478913363  0.3430321041171567  0.4966919993404132  1.0000
  C   C5        1.0  0.6119566392327158  0.7589498479291025  0.5056872823013164  1.0000
  C   C6        1.0  0.38021449843967753  0.24258650770989476  0.4964390524874176  1.0000
  C   C7        1.0  0.7482910284205957  0.8029459770408068  0.5187403472054724  1.0000
  C   C8        1.0  0.698212861566688  0.8959413229682343  0.5196809605253705  1.0000
  C   C9        1.0  0.2337601971995439  0.18921921737532443  0.5340179682181443  1.0000
  C   C10       1.0  0.2816615753887247  0.09525684485937803  0.5380034453931302  1.0000
  C   C11       1.0  0.5711793742863378  0.20051713736570784  0.461236463539727  1.0000
  C   C12       1.0  0.6140096271901782  0.10658932493178241  0.4632003666472073  1.0000
  C   C13       1.0  0.42823506789814286  0.8096965572946788  0.49402999546303034  1.0000
  C   C14       1.0  0.3833398194711392  0.903403556645614  0.49320159916950246  1.0000
  C   C15       1.0  0.5173743387455828  0.9501870420699918  0.5057796580236911  1.0000
  C   C16       1.0  0.47101694428150154  0.0501462582155483  0.5028363527705153  1.0000
  C   C17       1.0  0.6895234790949517  0.5430353731303369  0.9658557762477643  1.0000
  C   C18       1.0  0.37054919728102914  0.4622492683399813  0.9596757395570562  1.0000
  C   C19       1.0  0.28459976316859315  0.5441101040178183  0.010903081054230813  1.0000
  C   C20       1.0  0.6628768747622331  0.46452955985296285  0.05517581633440467  1.0000
  C   C21       1.0  0.9205914221423085  0.5129161384782821  0.8102822583459284  1.0000
  C   C22       1.0  0.8808618013693988  0.5127450096078262  0.9049705043621046  1.0000
  C   C23       1.0  0.2674593903866267  0.46631440589305845  0.8101084007371709  1.0000
  C   C24       1.0  0.22577322021759721  0.46609652404279006  0.9047256240495044  1.0000
  C   C25       1.0  0.07188588139224084  0.5228290685854234  0.17878126484547607  1.0000
  C   C26       1.0  0.11420987468258664  0.5173614395759428  0.085411019321775  1.0000
  C   C27       1.0  0.7585198852413837  0.4776557056682478  0.20078130149301637  1.0000
  C   C28       1.0  0.8031749283944689  0.4716086989614325  0.10768229322948031  1.0000
  C   C29       1.0  0.11473041523496617  0.4878090047434611  0.7630240735375081  1.0000
  C   C30       1.0  0.03160164501193205  0.4851922220761082  0.9525040668707732  1.0000
  C   C31       1.0  0.8940811680919863  0.5016718794833182  0.23711995175214184  1.0000
  C   C32       1.0  0.9844965799276864  0.4878034847974461  0.05152639113449445  1.0000
  O   O1        1.0  0.6585804409623109  0.5145299318562877  0.3756084103651175  1.0000
  O   O2        1.0  0.8437734775195549  0.622011523925302  0.499174105114065  1.0000
  O   O3        1.0  0.021580294690401906  0.49515780181268826  0.6235764300710754  1.0000
  O   O4        1.0  0.47507671346661334  0.38068785069548733  0.4918093451198187  1.0000
  O   O5        1.0  0.3438636969068796  0.4845881422622115  0.6207876959437969  1.0000
  O   O6        1.0  0.15203650626146004  0.38050794281993927  0.5032879320927606  1.0000
  O   O7        1.0  0.9781513391107525  0.5111681715619552  0.37378749159329766  1.0000
  O   O8        1.0  0.5254957787645083  0.6206981861242227  0.5035923723788258  1.0000
  O   O9        1.0  0.2505282708285391  0.5479278047422157  0.4553992379318074  1.0000
  O   O10       1.0  0.7493897219992787  0.45498545214337593  0.5420172673983287  1.0000
  F   F1        1.0  0.8331988737178548  0.9352744627204929  0.5363536735138723  1.0000
  F   F2        1.0  0.13597190895635689  0.04529030625065643  0.5803135834423683  1.0000
