data_image0
_chemical_formula_structural       Al2H12C26Cl2O10F2
_chemical_formula_sum              "Al2 H12 C26 Cl2 O10 F2"
_cell_length_a       6.614182765478214
_cell_length_b       11.165720383152841
_cell_length_c       15.253623662214926
_cell_angle_alpha    83.7621756898852
_cell_angle_beta     78.15943837204924
_cell_angle_gamma    71.68005475787669

_space_group_name_H-M_alt    "P 1"
_space_group_IT_number       1

loop_
  _space_group_symop_operation_xyz
  'x, y, z'

loop_
  _atom_site_type_symbol
  _atom_site_label
  _atom_site_symmetry_multiplicity
  _atom_site_fract_x
  _atom_site_fract_y
  _atom_site_fract_z
  _atom_site_occupancy
  Al  Al1       1.0  0.500294125791406  0.5023562328810698  0.5017988896851692  1.0000
  Al  Al2       1.0  0.0006124538786807148  0.5009300527918513  0.5026364975151482  1.0000
  H   H1        1.0  0.2997264287025774  0.35552310121534  0.5655297318848085  1.0000
  H   H2        1.0  0.697333141199728  0.655554515497748  0.45580349598004233  1.0000
  H   H3        1.0  0.7934289659791035  0.6378430945350502  0.7738623876536864  1.0000
  H   H4        1.0  0.08000118115265314  0.4570132199081768  0.2279710859644482  1.0000
  H   H5        1.0  0.6799047910098894  0.5273295505202426  0.23423293851683272  1.0000
  H   H6        1.0  0.768553893616165  0.5289138187306506  0.0682458756491187  1.0000
  H   H7        1.0  0.45402483158392215  0.3656982388500794  0.7728106766399492  1.0000
  H   H8        1.0  0.3752756191744595  0.3573745250386438  0.9386510729335598  1.0000
  H   H9        1.0  0.20075443701863804  0.23810113643456526  0.3721570443500682  1.0000
  H   H10       1.0  0.5256322373361259  0.1213746927189661  0.27013971720841573  1.0000
  H   H11       1.0  0.4231032509507881  0.767737636193573  0.37626366277545753  1.0000
  H   H12       1.0  0.636419769986695  0.885384671236672  0.272039462492117  1.0000
  C   C1        1.0  0.8615919909664954  0.27705087130227213  0.49412407173849  1.0000
  C   C2        1.0  0.6835760210043278  0.5017421851387952  0.6627218464506655  1.0000
  C   C3        1.0  0.13776706307010034  0.7275714500483021  0.5070588433028435  1.0000
  C   C4        1.0  0.31799640012214064  0.4973218836496471  0.3412497971213214  1.0000
  C   C5        1.0  0.6282516251794233  0.5017730848194404  0.7624138760658212  1.0000
  C   C6        1.0  0.3748725898955384  0.49305223429762185  0.24182486336068376  1.0000
  C   C7        1.0  0.6982918796284067  0.5776499393586435  0.8092017085355752  1.0000
  C   C8        1.0  0.6412490541999603  0.5771501776215757  0.9018032969615818  1.0000
  C   C9        1.0  0.23148501776715577  0.47266440221209666  0.19335889473521922  1.0000
  C   C10       1.0  0.28356172707891864  0.47474469116633594  0.1007184904967886  1.0000
  C   C11       1.0  0.5687562099257875  0.5127377961059807  0.19568723621861042  1.0000
  C   C12       1.0  0.6167558019330528  0.5142150886994801  0.10265553683542089  1.0000
  C   C13       1.0  0.5075854112197009  0.4245897506903091  0.8097906523013307  1.0000
  C   C14       1.0  0.4619317017201396  0.42140279757487076  0.9028217324046537  1.0000
  C   C15       1.0  0.5251806251102381  0.4986975112831829  0.9524968662687527  1.0000
  C   C16       1.0  0.47460527124520985  0.49622269747548853  0.05137333924231772  1.0000
  C   C17       1.0  0.932847263450114  0.13555080898365904  0.49565597767568903  1.0000
  C   C18       1.0  0.12435244052934995  0.07009334820429558  0.4367926517867105  1.0000
  C   C19       1.0  0.8118018179313751  0.06951898648766533  0.5544574628939004  1.0000
  C   C20       1.0  0.2491462921990291  0.13533612456451044  0.37437413657880114  1.0000
  C   C21       1.0  0.4313248425162969  0.06974022583509053  0.31724643958496307  1.0000
  C   C22       1.0  0.06486310160615735  0.8691915640857387  0.5020774788110245  1.0000
  C   C23       1.0  0.8785789236690961  0.9351251106496081  0.5579841100930665  1.0000
  C   C24       1.0  0.1903649312906239  0.9346331545185579  0.4393948927927697  1.0000
  C   C25       1.0  0.3759492366686459  0.8702925133300001  0.377781225310713  1.0000
  C   C26       1.0  0.4943346991302139  0.9364427182293725  0.3185995126180076  1.0000
  Cl  Cl1       1.0  0.7295317001558389  0.8562468993652532  0.6345523300837996  1.0000
  Cl  Cl2       1.0  0.5844468249196665  0.14743796306125742  0.6283222620074158  1.0000
  O   O1        1.0  0.67764626953074  0.33371383953612377  0.4736237747916904  1.0000
  O   O2        1.0  0.8571622404451419  0.5271391184940271  0.6253705578620841  1.0000
  O   O3        1.0  0.010798142322457186  0.6725151850473311  0.48921763715654987  1.0000
  O   O4        1.0  0.4453027965738984  0.5283083876674938  0.38076090372925364  1.0000
  O   O5        1.0  0.3244940412382108  0.6734368307546533  0.5260553389665574  1.0000
  O   O6        1.0  0.14395156722611793  0.47279113677495854  0.3795065006900274  1.0000
  O   O7        1.0  0.9903505472896799  0.32934995606088796  0.5140108752276263  1.0000
  O   O8        1.0  0.5541772509242052  0.4739320187698226  0.6226164359036872  1.0000
  O   O9        1.0  0.2644111334058792  0.4419346785912597  0.540937750220458  1.0000
  O   O10       1.0  0.7363270286623449  0.5640609911290255  0.4630199895839199  1.0000
  F   F1        1.0  0.6997104452375421  0.6594225304176932  0.9442547763719347  1.0000
  F   F2        1.0  0.13527645989538684  0.45775715313221355  0.0562255605417405  1.0000
