data_image0
_chemical_formula_structural       Zn8H24C108N24O74
_chemical_formula_sum              "Zn8 H24 C108 N24 O74"
_cell_length_a       24.417809557231227
_cell_length_b       24.417782536637205
_cell_length_c       24.417845948996472
_cell_angle_alpha    60.0001718728242
_cell_angle_beta     59.99993361325996
_cell_angle_gamma    60.00019791689374

_space_group_name_H-M_alt    "P 1"
_space_group_IT_number       1

loop_
  _space_group_symop_operation_xyz
  'x, y, z'

loop_
  _atom_site_type_symbol
  _atom_site_label
  _atom_site_symmetry_multiplicity
  _atom_site_fract_x
  _atom_site_fract_y
  _atom_site_fract_z
  _atom_site_occupancy
  Zn  Zn1       1.0  0.96716828965684  0.09849610002888913  0.4671689429984482  1.0000
  Zn  Zn2       1.0  0.9671690008574463  0.9671678945111989  0.5984956855961202  1.0000
  Zn  Zn3       1.0  0.09849659613564671  0.9671668354613985  0.4671682744615069  1.0000
  Zn  Zn4       1.0  0.9671640483375867  0.967164853583746  0.4671644000928479  1.0000
  Zn  Zn5       1.0  0.5328334976958689  0.4015029786966549  0.032831777314370945  1.0000
  Zn  Zn6       1.0  0.40150275437601124  0.5328306997852293  0.032833503870072854  1.0000
  Zn  Zn7       1.0  0.5328329673343222  0.5328313394100731  0.901503414140443  1.0000
  Zn  Zn8       1.0  0.5328359547652682  0.532833994254389  0.03283489252179091  1.0000
  H   H1        1.0  0.8497178522016359  0.23869748739177504  0.34804096954483316  1.0000
  H   H2        1.0  0.8480417857725868  0.06354581617728171  0.34971613845074506  1.0000
  H   H3        1.0  0.6519610092439904  0.2613012002586146  0.15028206598839225  1.0000
  H   H4        1.0  0.6502835161021211  0.43645342315245006  0.1519588990279105  1.0000
  H   H5        1.0  0.0635468369020418  0.8480395171244054  0.738696111775937  1.0000
  H   H6        1.0  0.23869811601419866  0.8497156672878887  0.5635456085581154  1.0000
  H   H7        1.0  0.4364561640759989  0.650280989523601  0.7613039211082365  1.0000
  H   H8        1.0  0.26130375786080157  0.6519594551504255  0.9364549978090507  1.0000
  H   H9        1.0  0.06354501927032899  0.23869640647543378  0.3497176919165809  1.0000
  H   H10       1.0  0.23869682758660116  0.06354327469232857  0.3480424619022883  1.0000
  H   H11       1.0  0.4364567439369864  0.2613003569104676  0.15195865201769718  1.0000
  H   H12       1.0  0.26130579065917914  0.43645187259140517  0.15028259536649102  1.0000
  H   H13       1.0  0.8480431717038643  0.8497157506976903  0.7386970121944572  1.0000
  H   H14       1.0  0.8497177617994118  0.8480396074508361  0.5635454167668997  1.0000
  H   H15       1.0  0.6502836543294142  0.6519583467437755  0.7613033720029775  1.0000
  H   H16       1.0  0.6519620134387198  0.6502808752676896  0.9364546244528356  1.0000
  H   H17       1.0  0.8497190998429435  0.06354319271126467  0.7386982099179207  1.0000
  H   H18       1.0  0.8480401729465897  0.2386948853615462  0.5635470848132584  1.0000
  H   H19       1.0  0.6519600075575128  0.43645416885856747  0.7613033355249642  1.0000
  H   H20       1.0  0.6502845917760426  0.2613030499292464  0.9364551759137569  1.0000
  H   H21       1.0  0.06354618063309665  0.8497163379283847  0.34803996685364796  1.0000
  H   H22       1.0  0.2386969637745013  0.8480386220146483  0.3497196856537527  1.0000
  H   H23       1.0  0.4364553264674741  0.6519575325601679  0.1502843268691195  1.0000
  H   H24       1.0  0.26130277351222025  0.6502818450677026  0.1519597731585165  1.0000
  C   C1        1.0  0.8955103872390995  0.10448920592948951  0.6044911755290557  1.0000
  C   C2        1.0  0.10449130057222789  0.8955098891081903  0.6044908382516496  1.0000
  C   C3        1.0  0.1044902719585394  0.10448968916953305  0.3955115020256557  1.0000
  C   C4        1.0  0.10448768987229319  0.8955078674098402  0.3955103641966958  1.0000
  C   C5        1.0  0.8955099599903208  0.1044870913941267  0.3955101187538546  1.0000
  C   C6        1.0  0.8955103080398888  0.8955082489082354  0.6044881748136747  1.0000
  C   C7        1.0  0.39551047104865233  0.3955076851959162  0.10448847489939081  1.0000
  C   C8        1.0  0.3955121142753556  0.6044884933203887  0.895509190015467  1.0000
  C   C9        1.0  0.6044897958003406  0.3955075085498121  0.8955111574229804  1.0000
  C   C10       1.0  0.6044919489616805  0.6044896356689903  0.8955089759843415  1.0000
  C   C11       1.0  0.6044922376960926  0.3955074832271776  0.1044906826925995  1.0000
  C   C12       1.0  0.39550987299010404  0.604488699259896  0.1044921640440251  1.0000
  C   C13       1.0  0.8328932829115346  0.21747357064134568  0.33165560598560967  1.0000
  C   C14       1.0  0.7915491845698313  0.2588441414106696  0.29184752035806133  1.0000
  C   C15       1.0  0.7694905829505031  0.33067412291525483  0.27003326708452857  1.0000
  C   C16       1.0  0.8316589785918681  0.11797669526765002  0.33289096554914005  1.0000
  C   C17       1.0  0.7918500961724534  0.157760171943515  0.291546758650334  1.0000
  C   C18       1.0  0.7700372497625098  0.12980167940330722  0.26948798761953435  1.0000
  C   C19       1.0  0.6683446833587255  0.28252488406283055  0.16710655098853525  1.0000
  C   C20       1.0  0.7081530127498256  0.24115512864689484  0.20845109367205333  1.0000
  C   C21       1.0  0.7299665102886623  0.16932576549451972  0.23050983247138404  1.0000
  C   C22       1.0  0.6671091336207269  0.38202141587162675  0.16834239014786334  1.0000
  C   C23       1.0  0.7084532251531785  0.3422390212259286  0.20815080876201347  1.0000
  C   C24       1.0  0.7305116485379061  0.37019736830534794  0.22996414848283564  1.0000
  C   C25       1.0  0.8521519026138124  0.14785140907131483  0.3521495062357688  1.0000
  C   C26       1.0  0.7706185361219086  0.22938189199714992  0.2706164540054843  1.0000
  C   C27       1.0  0.6478513034218099  0.3521490883284954  0.14784837672451087  1.0000
  C   C28       1.0  0.7293847568569873  0.2706162351276761  0.2293817059676472  1.0000
  C   C29       1.0  0.11797814374420326  0.8316562447685953  0.7174735266811895  1.0000
  C   C30       1.0  0.1577621270124969  0.7918462308454292  0.7588430878221785  1.0000
  C   C31       1.0  0.1298035603508866  0.770033406924547  0.8306728123892811  1.0000
  C   C32       1.0  0.21747439930204857  0.8328913718835196  0.6179771155602863  1.0000
  C   C33       1.0  0.25884471744615956  0.7915470208713842  0.6577603485196803  1.0000
  C   C34       1.0  0.33067446700559383  0.7694880906918227  0.6298026737886957  1.0000
  C   C35       1.0  0.3820247126742801  0.6671055977763273  0.7825272064106912  1.0000
  C   C36       1.0  0.34224200214139683  0.7084493703888413  0.741156945559524  1.0000
  C   C37       1.0  0.3701994594524084  0.7305076259870587  0.6693266663096793  1.0000
  C   C38       1.0  0.28252802866885696  0.6683420051219285  0.8820227905981213  1.0000
  C   C39       1.0  0.2411579087418548  0.7081507921070056  0.8422400901526572  1.0000
  C   C40       1.0  0.16932802303234984  0.7299638641755307  0.8701974836072283  1.0000
  C   C41       1.0  0.14785013574712041  0.8521504445882042  0.6478493108746477  1.0000
  C   C42       1.0  0.22938448930193578  0.7706152152161039  0.7293826114295497  1.0000
  C   C43       1.0  0.3521514163005934  0.6478477131872751  0.8521518016867518  1.0000
  C   C44       1.0  0.2706190817432133  0.7293808661892739  0.7706170537662941  1.0000
  C   C45       1.0  0.11797747215715769  0.21747275676244732  0.33289293750456744  1.0000
  C   C46       1.0  0.15776060489313448  0.25884235057572613  0.2915491086566888  1.0000
  C   C47       1.0  0.12980374805982128  0.33067220889664367  0.26949039952869924  1.0000
  C   C48       1.0  0.2174734762310422  0.11797514240416963  0.33165900206304855  1.0000
  C   C49       1.0  0.2588435700869953  0.15775779858080335  0.29184947520109006  1.0000
  C   C50       1.0  0.3306743489629085  0.1298009580674986  0.2700349421323481  1.0000
  C   C51       1.0  0.3820239891140461  0.2825245219273213  0.16834230574421846  1.0000
  C   C52       1.0  0.3422418348594435  0.24115426207760032  0.20815199572916745  1.0000
  C   C53       1.0  0.37019817426349283  0.16932388530742762  0.22996546579256721  1.0000
  C   C54       1.0  0.2825283825346789  0.3820208853774715  0.1671073230864124  1.0000
  C   C55       1.0  0.24115904628131093  0.3422373550356355  0.2084517960832813  1.0000
  C   C56       1.0  0.169328536594847  0.37019610390365887  0.23051142971070965  1.0000
  C   C57       1.0  0.1478485830407196  0.14784873515920077  0.35215272002629655  1.0000
  C   C58       1.0  0.2293839511201412  0.229380668677365  0.27061773688452456  1.0000
  C   C59       1.0  0.35215447277964534  0.35214685666259266  0.14784823136172068  1.0000
  C   C60       1.0  0.2706182915238601  0.2706149290407324  0.2293835202045855  1.0000
  C   C61       1.0  0.8316592172381266  0.8328901913396931  0.717473189025597  1.0000
  C   C62       1.0  0.7918501540461735  0.7915470878079275  0.758843543318342  1.0000
  C   C63       1.0  0.7700362983731142  0.769487760311293  0.8306736257037599  1.0000
  C   C64       1.0  0.8328930994208366  0.8316557953502295  0.6179771198008198  1.0000
  C   C65       1.0  0.7915490973173935  0.791847629261589  0.6577599827109636  1.0000
  C   C66       1.0  0.7694890250515274  0.7700347521262001  0.6298028368232808  1.0000
  C   C67       1.0  0.6671090720831289  0.668340771309232  0.7825263580781154  1.0000
  C   C68       1.0  0.7084527541046768  0.7081510679404274  0.7411561957309373  1.0000
  C   C69       1.0  0.7305102956955027  0.7299650951973503  0.6693267241190454  1.0000
  C   C70       1.0  0.6683456744283166  0.6671058268351328  0.8820222824651297  1.0000
  C   C71       1.0  0.7081540131776268  0.7084498506676481  0.8422402307669327  1.0000
  C   C72       1.0  0.7299675445639767  0.7305092684432064  0.8701973772864379  1.0000
  C   C73       1.0  0.8521523946083538  0.8521487815115731  0.6478504916167438  1.0000
  C   C74       1.0  0.7706189416914531  0.7706154868567406  0.7293829144177763  1.0000
  C   C75       1.0  0.6478515173371806  0.6478474817411809  0.8521516413421466  1.0000
  C   C76       1.0  0.7293848436312165  0.729380649763506  0.7706169639046225  1.0000
  C   C77       1.0  0.8328937537354478  0.11797545129495988  0.7174744671444985  1.0000
  C   C78       1.0  0.7915501811333814  0.1577578830569305  0.7588449359016138  1.0000
  C   C79       1.0  0.7694911778568143  0.12980098327007278  0.8306743927588016  1.0000
  C   C80       1.0  0.8316571005237705  0.21747128021081596  0.617978639533476  1.0000
  C   C81       1.0  0.7918486838565645  0.258841285395384  0.6577617152112794  1.0000
  C   C82       1.0  0.770035932828826  0.3306713705509025  0.6298034487634467  1.0000
  C   C83       1.0  0.6683442949690674  0.38202069291386886  0.782527965088299  1.0000
  C   C84       1.0  0.7081535213119139  0.3422388546699011  0.7411574213797322  1.0000
  C   C85       1.0  0.7299672433607827  0.3701953755719812  0.6693278510668463  1.0000
  C   C86       1.0  0.6671094152515809  0.282525288514357  0.8820246259677943  1.0000
  C   C87       1.0  0.7084539658272677  0.24115565838868497  0.8422408753322939  1.0000
  C   C88       1.0  0.7305128864096703  0.16932520229782008  0.8701986151495973  1.0000
  C   C89       1.0  0.852151810592325  0.14784681203062167  0.6478511505545583  1.0000
  C   C90       1.0  0.7706190123985908  0.2293809979330771  0.7293839519119133  1.0000
  C   C91       1.0  0.6478499870071703  0.3521515170072362  0.8521499595972839  1.0000
  C   C92       1.0  0.7293850287597865  0.2706154793093417  0.7706187727870388  1.0000
  C   C93       1.0  0.1179781104421097  0.8328905900491108  0.33165757328669804  1.0000
  C   C94       1.0  0.15776104596669438  0.7915467051722443  0.2918492811496236  1.0000
  C   C95       1.0  0.12980284789622978  0.7694873197715635  0.2700362622474373  1.0000
  C   C96       1.0  0.21747410437562578  0.8316547301951331  0.3328941000797628  1.0000
  C   C97       1.0  0.2588439940846428  0.7918470140951116  0.2915496837421331  1.0000
  C   C98       1.0  0.33067360617734926  0.7700336929148506  0.2694908721518773  1.0000
  C   C99       1.0  0.3820225165134803  0.6683409216821302  0.16711045984357756  1.0000
  C   C100      1.0  0.3422405942702228  0.7081500639696969  0.2084529791473599  1.0000
  C   C101      1.0  0.3701981239963673  0.7299638791591933  0.23051173443090528  1.0000
  C   C102      1.0  0.28252672662222283  0.6671058520020522  0.16834415097434166  1.0000
  C   C103      1.0  0.24115693071701846  0.7084502368437382  0.20815231006994858  1.0000
  C   C104      1.0  0.16932611827242985  0.7305097167576733  0.22996616387412427  1.0000
  C   C105      1.0  0.14785023436924405  0.8521484956627957  0.35215219959228256  1.0000
  C   C106      1.0  0.22938349956094597  0.7706155958273441  0.270618146751751  1.0000
  C   C107      1.0  0.3521509560612728  0.6478467841487541  0.14785149898644792  1.0000
  C   C108      1.0  0.27061741394547334  0.7293810451993036  0.22938396596076419  1.0000
  N   N1        1.0  0.7087175916885117  0.44414218715544956  0.20950627356009474  1.0000
  N   N2        1.0  0.7912859174888354  0.36236809027881367  0.29048873828371313  1.0000
  N   N3        1.0  0.7095070463569187  0.1376342149675764  0.20871607494660077  1.0000
  N   N4        1.0  0.7904981694431897  0.055856358076326156  0.29128150739035874  1.0000
  N   N5        1.0  0.13763446417591077  0.7095074075794444  0.9441420030424081  1.0000
  N   N6        1.0  0.05585861309536011  0.7904882519246286  0.8623668180089509  1.0000
  N   N7        1.0  0.4441440590839679  0.7087124296097184  0.6376326376670036  1.0000
  N   N8        1.0  0.36236928460093765  0.7912849907110057  0.5558586789515945  1.0000
  N   N9        1.0  0.1376381420737119  0.4441414190885736  0.20871904993040147  1.0000
  N   N10       1.0  0.055859224462665315  0.3623683970082538  0.29128639387377586  1.0000
  N   N11       1.0  0.4441437682836949  0.1376353257386142  0.2095009896974886  1.0000
  N   N12       1.0  0.3623675127866406  0.055855949420170165  0.29049105097514877  1.0000
  N   N13       1.0  0.7095046920130771  0.7087173220017817  0.94414182291667  1.0000
  N   N14       1.0  0.7904927612570636  0.7912835848209381  0.8623665878809348  1.0000
  N   N15       1.0  0.7087165640337932  0.709505453875934  0.6376353512358719  1.0000
  N   N16       1.0  0.791281555967821  0.7904952110539867  0.5558581919070208  1.0000
  N   N17       1.0  0.7087173864379184  0.13763228075736567  0.9441428091815992  1.0000
  N   N18       1.0  0.7912832444377501  0.05585667803138961  0.8623645838762498  1.0000
  N   N19       1.0  0.7095137110832401  0.4441406715238684  0.6376328358843963  1.0000
  N   N20       1.0  0.7904972937587901  0.3623619631139832  0.5558585139079709  1.0000
  N   N21       1.0  0.13763134449357756  0.7087132874533637  0.20951260961061993  1.0000
  N   N22       1.0  0.05585784537733234  0.7912796093900168  0.2905012562559932  1.0000
  N   N23       1.0  0.44414268573925875  0.7095062325528189  0.20871705562588977  1.0000
  N   N24       1.0  0.362365486793742  0.7904937834472817  0.2912836551078826  1.0000
  O   O1        1.0  0.9999977233066492  0.9999979185612344  0.4999982136406231  1.0000
  O   O2        1.0  0.9114442636965876  0.13462230814430134  0.541312438150939  1.0000
  O   O3        1.0  0.04131084359462307  0.9114445167794398  0.6346253101711383  1.0000
  O   O4        1.0  0.13462254588374387  0.041311639084433714  0.4114443019411596  1.0000
  O   O5        1.0  0.912621600670427  0.041307655878092764  0.6346272340462705  1.0000
  O   O6        1.0  0.0413080717018417  0.13462688686256286  0.41262389061625276  1.0000
  O   O7        1.0  0.13462580806520233  0.9126225751110582  0.5413105752912628  1.0000
  O   O8        1.0  0.1346237231253016  0.9114413092086122  0.4126247703033527  1.0000
  O   O9        1.0  0.9114407755673641  0.04131438104266736  0.41262005932873796  1.0000
  O   O10       1.0  0.041311422907618744  0.9126203579816233  0.41143980728580226  1.0000
  O   O11       1.0  0.9126220406669251  0.1346258162925124  0.4114447226688185  1.0000
  O   O12       1.0  0.9114451898070544  0.9126211184072303  0.6346247973248681  1.0000
  O   O13       1.0  0.9126191629996683  0.9114415092324746  0.5413122917603272  1.0000
  O   O14       1.0  0.5000027813748036  0.5000014308586811  1.5805501477161372e-06  1.0000
  O   O15       1.0  0.45869487760396066  0.36536942240788034  0.08855415566913649  1.0000
  O   O16       1.0  0.36537452592534686  0.588553830015023  0.9586917182400185  1.0000
  O   O17       1.0  0.5885532588781502  0.45869082488521673  0.8653738550328427  1.0000
  O   O18       1.0  0.3653801495462405  0.4586835874439145  0.08737665982991423  1.0000
  O   O19       1.0  0.58737920114136  0.3653755127773689  0.9586872981755051  1.0000
  O   O20       1.0  0.45868837320235667  0.5873783929258991  0.8653771817653179  1.0000
  O   O21       1.0  0.5873792455799819  0.5885545965022133  0.8653808734614472  1.0000
  O   O22       1.0  0.5873804952528305  0.4586893823507834  0.08855899976906303  1.0000
  O   O23       1.0  0.5885574186006226  0.5873807815753692  0.9586941515885312  1.0000
  O   O24       1.0  0.5885578972451244  0.36537604066683815  0.08737807930781828  1.0000
  O   O25       1.0  0.36537921294561926  0.5873762557397058  0.08855790411448079  1.0000
  O   O26       1.0  0.4586925311769508  0.588557145980971  0.08738091266916838  1.0000
  O   O27       1.0  0.7237501118821473  0.47521439814374816  0.14862764161814832  1.0000
  O   O28       1.0  0.676404768811743  0.46826608292038674  0.2551385533424551  1.0000
  O   O29       1.0  0.7762528440461554  0.347591606408919  0.3513710224600786  1.0000
  O   O30       1.0  0.8235961672633823  0.3998105346644181  0.24486007131416432  1.0000
  O   O31       1.0  0.6486302218220176  0.15240773780623565  0.22374758975482215  1.0000
  O   O32       1.0  0.7551407349782053  0.1001884567722442  0.17640317903182987  1.0000
  O   O33       1.0  0.8513751030171124  0.02478666391822054  0.27624873349221  1.0000
  O   O34       1.0  0.7448651800359017  0.031731445028682824  0.3235954907260492  1.0000
  O   O35       1.0  0.15240906463893839  0.6486276548012809  0.9752147186591384  1.0000
  O   O36       1.0  0.10019066979688766  0.7551389487555582  0.9682655076984188  1.0000
  O   O37       1.0  0.02478579765406891  0.8513693780018553  0.8475909305110606  1.0000
  O   O38       1.0  0.0317358265021924  0.7448583434540408  0.8998097151215845  1.0000
  O   O39       1.0  0.47521688305539583  0.7237454732965459  0.6524074022468724  1.0000
  O   O40       1.0  0.46826712622704786  0.6764028893675654  0.6001884689751407  1.0000
  O   O41       1.0  0.3475930552444313  0.7762514105643561  0.5247838571513269  1.0000
  O   O42       1.0  0.39980983963339156  0.8235948538815306  0.5317359443049909  1.0000
  O   O43       1.0  0.1524107879674903  0.47521207862537546  0.22374988153205067  1.0000
  O   O44       1.0  0.10019096769919877  0.46826621711597477  0.17640485111120802  1.0000
  O   O45       1.0  0.024785067101944894  0.3475912078331262  0.27625159142941413  1.0000
  O   O46       1.0  0.03173601999903765  0.3998084531087826  0.32359518068181353  1.0000
  O   O47       1.0  0.475213228826192  0.15240914087436855  0.14862848374539792  1.0000
  O   O48       1.0  0.4682696221149172  0.10018759488593781  0.2551379806429992  1.0000
  O   O49       1.0  0.3475922805018215  0.024783837935998948  0.35137211327381124  1.0000
  O   O50       1.0  0.3998098531979793  0.03173254618449303  0.24486091448365951  1.0000
  O   O51       1.0  0.6486323696278196  0.7237468691071028  0.9752126016908633  1.0000
  O   O52       1.0  0.7551426405333859  0.6764026373388246  0.9682678587270956  1.0000
  O   O53       1.0  0.8513733941813585  0.7762509489503627  0.8475918818251529  1.0000
  O   O54       1.0  0.744861794780711  0.8235956784508645  0.8998089090388962  1.0000
  O   O55       1.0  0.7237478126216035  0.6486283693836936  0.6524087784593675  1.0000
  O   O56       1.0  0.6764036099981684  0.7551393736695927  0.6001900580944338  1.0000
  O   O57       1.0  0.7762491084627076  0.8513710289210649  0.5247879420423233  1.0000
  O   O58       1.0  0.8235960869484205  0.7448609742675671  0.5317329881650465  1.0000
  O   O59       1.0  0.7237489941816904  0.15240686188636232  0.9752172385706005  1.0000
  O   O60       1.0  0.6764050463114232  0.10019011388860109  0.968265611820584  1.0000
  O   O61       1.0  0.7762533135236185  0.024785103888518657  0.8475919516846773  1.0000
  O   O62       1.0  0.8235980397883083  0.03173100453360427  0.8998120329163938  1.0000
  O   O63       1.0  0.6486297321603446  0.47521396720389236  0.6524092360571603  1.0000
  O   O64       1.0  0.7551408592903927  0.46826381741993833  0.6001908007586109  1.0000
  O   O65       1.0  0.8513712149582277  0.34758956566245286  0.5247873001109226  1.0000
  O   O66       1.0  0.7448611266577105  0.39980910372027256  0.5317339133108518  1.0000
  O   O67       1.0  0.15240831340894817  0.7237480441844609  0.14862715435673124  1.0000
  O   O68       1.0  0.10019027318416829  0.6764046354832088  0.2551378122962901  1.0000
  O   O69       1.0  0.024787391527198294  0.7762500691710342  0.3513716655794993  1.0000
  O   O70       1.0  0.0317318246869291  0.823596498857917  0.24486160729698264  1.0000
  O   O71       1.0  0.4752149443244918  0.6486278269794211  0.2237500954591454  1.0000
  O   O72       1.0  0.46826676886013285  0.7551382779406879  0.1764043788940199  1.0000
  O   O73       1.0  0.34759112548260174  0.851370565730356  0.27625263987334847  1.0000
  O   O74       1.0  0.3998115696717266  0.7448598508003241  0.3235963381103987  1.0000
