data_image0
_chemical_formula_structural       Li4H72C60N4
_chemical_formula_sum              "Li4 H72 C60 N4"
_cell_length_a       9.810402745
_cell_length_b       10.147910211355203
_cell_length_c       13.373
_cell_angle_alpha    90.0
_cell_angle_beta     90.0
_cell_angle_gamma    108.77728029993784

_space_group_name_H-M_alt    "P 1"
_space_group_IT_number       1

loop_
  _space_group_symop_operation_xyz
  'x, y, z'

loop_
  _atom_site_type_symbol
  _atom_site_label
  _atom_site_symmetry_multiplicity
  _atom_site_fract_x
  _atom_site_fract_y
  _atom_site_fract_z
  _atom_site_occupancy
  Li  Li1       1.0  0.3466299070490139  0.3820247139373123  0.2762865475211242  1.0000
  Li  Li2       1.0  0.15336837813114812  0.617975522224782  0.7762872952964912  1.0000
  Li  Li3       1.0  0.6533672189024885  0.617975522224782  0.7237134524788758  1.0000
  Li  Li4       1.0  0.8466307864726448  0.3820247139373123  0.2237134524788758  1.0000
  H   H1        1.0  0.9900745249203455  0.2141487483519668  0.4227443356015855  1.0000
  H   H2        1.0  0.5099262122189643  0.7858535694504525  0.9227420922754773  1.0000
  H   H3        1.0  0.009925312453638889  0.7858504469899685  0.5772579077245226  1.0000
  H   H4        1.0  0.49007364549671456  0.2141487483519668  0.0772556643984146  1.0000
  H   H5        1.0  0.16702008702302612  0.10422252693182799  0.4876422642638119  1.0000
  H   H6        1.0  0.3329805833653694  0.8957787500504253  0.9876422642638119  1.0000
  H   H7        1.0  0.8329811162330572  0.8957777092302663  0.5123584835115551  1.0000
  H   H8        1.0  0.6670185812384233  0.10422148611166898  0.0123577357361881  1.0000
  H   H9        1.0  0.34983569534279013  0.17418541740799748  0.4459268675689856  1.0000
  H   H10       1.0  0.1501646284896552  0.8258148187540968  0.9459268675689856  1.0000
  H   H11       1.0  0.650165507913286  0.8258148187540968  0.5540738802063885  1.0000
  H   H12       1.0  0.8498345361141304  0.17418541740799748  0.0540723846556475  1.0000
  H   H13       1.0  0.21701175579993054  0.0672713295369718  0.36439991026695406  1.0000
  H   H14       1.0  0.282989261144408  0.9327309882654404  0.864399910266954  1.0000
  H   H15       1.0  0.7829887746859471  0.9327299474452814  0.6356008375084129  1.0000
  H   H16       1.0  0.7170119624533626  0.0672723703571378  0.135600089733046  1.0000
  H   H17       1.0  0.18368217626903063  0.339890232135204  0.5325633739624607  1.0000
  H   H18       1.0  0.31631814756342186  0.6601100040268904  0.0325626261870937  1.0000
  H   H19       1.0  0.8163180076609039  0.6601100040268904  0.4674381215882732  1.0000
  H   H20       1.0  0.6836786318321375  0.339889191315045  0.9674366260375393  1.0000
  H   H21       1.0  0.22446624849993674  0.4721285153702652  0.4388431915052706  1.0000
  H   H22       1.0  0.27553442188845173  0.527872761611988  0.9388416959545366  1.0000
  H   H23       1.0  0.7755342819859407  0.527872761611988  0.5611583040454633  1.0000
  H   H24       1.0  0.7244627040630507  0.4721274745501063  0.0611560607193624  1.0000
  H   H25       1.0  0.361891709199007  0.4059812716083613  0.4821393853286509  1.0000
  H   H26       1.0  0.13810861463344537  0.594018964553733  0.9821378897779098  1.0000
  H   H27       1.0  0.6381084747309274  0.594018964553733  0.5178621102220902  1.0000
  H   H28       1.0  0.8618888578740069  0.4059823124285201  0.0178591191206152  1.0000
  H   H29       1.0  0.1788922885904398  0.1860195426510671  0.1753480894339319  1.0000
  H   H30       1.0  0.3211087283538987  0.8139827751513521  0.675345846107831  1.0000
  H   H31       1.0  0.8211096077775295  0.8139827751513521  0.8246526583414352  1.0000
  H   H32       1.0  0.6788911293617801  0.1860195426510671  0.3246519105660682  1.0000
  H   H33       1.0  0.0826828435811748  0.9840527896384046  0.0650272938009451  1.0000
  H   H34       1.0  0.4173178268072135  0.0159484873438487  0.5650250504748371  1.0000
  H   H35       1.0  0.9173183596749013  0.0159474465236897  0.934973453974429  1.0000
  H   H36       1.0  0.582682703678664  0.9840527896384046  0.43497270619905487  1.0000
  H   H37       1.0  0.768097252671474  0.6716620670060323  0.1279144544978692  1.0000
  H   H38       1.0  0.7319021185857509  0.328339209976221  0.6279129589471353  1.0000
  H   H39       1.0  0.2319019119323187  0.32833816915606207  0.8720870410528647  1.0000
  H   H40       1.0  0.26809671980378613  0.671663107826191  0.37208629327749776  1.0000
  H   H41       1.0  0.9167085015188547  0.7369537565946942  0.0439482539445137  1.0000
  H   H42       1.0  0.583292235620455  0.2630485612077251  0.5439460106184129  1.0000
  H   H43       1.0  0.0832916824110796  0.2630464795674001  0.9560539893815871  1.0000
  H   H44       1.0  0.41670864142137287  0.7369537565946942  0.4560517460554863  1.0000
  H   H45       1.0  0.7609560431032278  0.787685412935744  0.0311687729006209  1.0000
  H   H46       1.0  0.7390460599181736  0.21231794568683426  0.5311665295745129  1.0000
  H   H47       1.0  0.2390455067087984  0.21231586404650926  0.9688334704254871  1.0000
  H   H48       1.0  0.2609565295616889  0.7876864537559101  0.468831227099379  1.0000
  H   H49       1.0  0.7260223891565261  0.8133478748524752  0.2643012039183432  1.0000
  H   H50       1.0  0.7739800197374366  0.1866502796693013  0.7642974650415013  1.0000
  H   H51       1.0  0.2739801596399545  0.1866502796693013  0.7357025349584987  1.0000
  H   H52       1.0  0.22602218250309383  0.8133468340323089  0.23569879608165678  1.0000
  H   H53       1.0  0.8235205796599062  0.0159370383220647  0.3766529574515829  1.0000
  H   H54       1.0  0.6764808099079076  0.9840611161997046  0.8766484707993739  1.0000
  H   H55       1.0  0.1764819691365673  0.9840611161997046  0.623350781425259  1.0000
  H   H56       1.0  0.3235217388885658  0.0159370383220647  0.1233485380991581  1.0000
  H   H57       1.0  0.13530335629915413  0.39461655625839137  0.158076721752785  1.0000
  H   H58       1.0  0.3646962947630925  0.6053847207238618  0.6580767217527849  1.0000
  H   H59       1.0  0.8646971538450289  0.6053815982633779  0.841923278247215  1.0000
  H   H60       1.0  0.6353018505145515  0.3946155154382325  0.341924026022582  1.0000
  H   H61       1.0  0.06492158397681888  0.628427438292583  0.1468331713153361  1.0000
  H   H62       1.0  0.43507635464739286  0.37157175704935236  0.6468331713153361  1.0000
  H   H63       1.0  0.9350765613008252  0.3715727978695114  0.8531675764600308  1.0000
  H   H64       1.0  0.5649217906302582  0.6284284791127419  0.3531660809092969  1.0000
  H   H65       1.0  0.9289886234271307  0.6550110260527617  0.3162506543034453  1.0000
  H   H66       1.0  0.5710090353920592  0.34498816928916637  0.8162506543034453  1.0000
  H   H67       1.0  0.07100984806476872  0.3449871284690076  0.6837500934719216  1.0000
  H   H68       1.0  0.4289887633296416  0.6550110260527617  0.1837485979211877  1.0000
  H   H69       1.0  0.9196615016865836  0.436486669739331  0.4364076871307887  1.0000
  H   H70       1.0  0.5803371764587482  0.5635125256025971  0.9364076871307887  1.0000
  H   H71       1.0  0.0803362970351174  0.5635125256025971  0.5635930606445854  1.0000
  H   H72       1.0  0.4196602757070025  0.4364856289191721  0.0635915650938443  1.0000
  C   C1        1.0  0.056375183527528294  0.24241846477475087  0.3538420698422229  1.0000
  C   C2        1.0  0.44362481409066856  0.7575838530276684  0.8538405742914817  1.0000
  C   C3        1.0  0.9436250004024062  0.7575817713873433  0.6461601734838851  1.0000
  C   C4        1.0  0.556372658416784  0.242417423954592  0.1461586779331512  1.0000
  C   C5        1.0  0.23691238079696572  0.14717093010070667  0.4225267329694162  1.0000
  C   C6        1.0  0.263087270265288  0.8528303468815536  0.9225267329694163  1.0000
  C   C7        1.0  0.7630878031329686  0.8528293060613946  0.5774740148059507  1.0000
  C   C8        1.0  0.7369122408944477  0.14717093010070667  0.07747251925521678  1.0000
  C   C9        1.0  0.24696360986411753  0.3785848033015782  0.4639916249158773  1.0000
  C   C10       1.0  0.2530367139683349  0.621415432860516  0.9639908771405102  1.0000
  C   C11       1.0  0.7530365740658168  0.621415432860516  0.5360083750841227  1.0000
  C   C12       1.0  0.7469604119831673  0.3785848033015782  0.0360076273087557  1.0000
  C   C13       1.0  0.006405873175140195  0.11788537319971229  0.2843012039183463  1.0000
  C   C14       1.0  0.49359514376919833  0.882116944602707  0.7842982128168714  1.0000
  C   C15       1.0  0.9935956766368861  0.882115903782548  0.7157002916323947  1.0000
  C   C16       1.0  0.5064050401607362  0.11788329155938729  0.2156987960816537  1.0000
  C   C17       1.0  0.07828755731363661  0.1060189825316158  0.1958618111119392  1.0000
  C   C18       1.0  0.42171107442246847  0.8939822944506446  0.6958595677858384  1.0000
  C   C19       1.0  0.9217119538460992  0.8939822944506446  0.8041396844387947  1.0000
  C   C20       1.0  0.5782877436253743  0.1060169008912908  0.3041389366634277  1.0000
  C   C21       1.0  0.02432275370848199  0.9910523052285285  0.1332124429821278  1.0000
  C   C22       1.0  0.4756782632358565  0.008950012573890798  0.6332116952067608  1.0000
  C   C23       1.0  0.9756791426594874  0.008950012573890798  0.8667875570178722  1.0000
  C   C24       1.0  0.5243229603619142  0.9910533460486874  0.3667875570178722  1.0000
  C   C25       1.0  0.8961347317997053  0.8843932182972196  0.1556359829507201  1.0000
  C   C26       1.0  0.603865984997917  0.1156059770447158  0.6556322440738781  1.0000
  C   C27       1.0  0.10386781699677532  0.1156049362245497  0.8443662603753808  1.0000
  C   C28       1.0  0.3961335058201243  0.8843921774770607  0.3443647648246468  1.0000
  C   C29       1.0  0.833129614672565  0.7635134054911461  0.0862214910640873  1.0000
  C   C30       1.0  0.6668707759108018  0.23648787149110717  0.5862192477379793  1.0000
  C   C31       1.0  0.1668715885835113  0.23648683067094817  0.9137807522620207  1.0000
  C   C32       1.0  0.3331301011310259  0.7635144463113122  0.4137792567112868  1.0000
  C   C33       1.0  0.8254578224983362  0.8953624219855881  0.2447259403275268  1.0000
  C   C34       1.0  0.6745442601813779  0.10463781417650608  0.7447222014506849  1.0000
  C   C35       1.0  0.17454609218022912  0.10463677335634708  0.755277050773948  1.0000
  C   C36       1.0  0.32545796240084707  0.8953624219855881  0.2552748074478401  1.0000
  C   C37       1.0  0.8804521755636684  0.009655688643796597  0.3077133029238012  1.0000
  C   C38       1.0  0.6195499071160385  0.9903445475182977  0.8077088162715924  1.0000
  C   C39       1.0  0.11955004701855639  0.9903445475182977  0.6922904359530406  1.0000
  C   C40       1.0  0.3804512757983432  0.0096525661833127  0.19228819262693259  1.0000
  C   C41       1.0  0.032826910079954495  0.37054342672919915  0.3106468256935599  1.0000
  C   C42       1.0  0.467174106864384  0.6294588910732202  0.810646077918193  1.0000
  C   C43       1.0  0.9671739466201786  0.6294557686127362  0.689353922081807  1.0000
  C   C44       1.0  0.5328257508512948  0.37054342672919915  0.18935317430644008  1.0000
  C   C45       1.0  0.08164733690453832  0.4340907017261769  0.2165168623345579  1.0000
  C   C46       1.0  0.41835094827561653  0.5659095344359173  0.7165168623345579  1.0000
  C   C47       1.0  0.9183508083731056  0.5659095344359173  0.7834853809915501  1.0000
  C   C48       1.0  0.5816471970020275  0.4340907017261769  0.2834823898900751  1.0000
  C   C49       1.0  0.0444335916696446  0.5578275658772114  0.21026022582815776  1.0000
  C   C50       1.0  0.455565712836659  0.4421726702848829  0.7102602258281578  1.0000
  C   C51       1.0  0.955567591244737  0.4421695478243919  0.7897412697225761  1.0000
  C   C52       1.0  0.5444324324409919  0.5578275658772114  0.2897397741718422  1.0000
  C   C53       1.0  0.9726898607917249  0.5716673515726497  0.2996620055335413  1.0000
  C   C54       1.0  0.5273091639095496  0.42833288458944446  0.7996620055335342  1.0000
  C   C55       1.0  0.02731166867860679  0.4283308029491195  0.7003394900171998  1.0000
  C   C56       1.0  0.4726889813680942  0.5716673515726497  0.2003372466910918  1.0000
  C   C57       1.0  0.9655372332063692  0.4563486408926777  0.3616809990278895  1.0000
  C   C58       1.0  0.5344604256128136  0.5436505544492575  0.8616809990278895  1.0000
  C   C59       1.0  0.03446158484147325  0.5436505544492575  0.6383197487474774  1.0000
  C   C60       1.0  0.465536679996994  0.4563465592523528  0.1383197487474774  1.0000
  N   N1        1.0  0.21103068116424592  0.2728156176088632  0.3842585807223529  1.0000
  N   N2        1.0  0.2889689698980007  0.7271856593733899  0.8842578329469859  1.0000
  N   N3        1.0  0.7889695027656884  0.7271846185532311  0.615742914828388  1.0000
  N   N4        1.0  0.7110298684915364  0.27281665842902914  0.1157414192776471  1.0000
