data_image0
_chemical_formula_structural       Zn4H40C69N22O13
_chemical_formula_sum              "Zn4 H40 C69 N22 O13"
_cell_length_a       16.660359491699637
_cell_length_b       17.021139246614645
_cell_length_c       19.63820119307764
_cell_angle_alpha    106.84609821949012
_cell_angle_beta     115.73359518956991
_cell_angle_gamma    102.78724640207268

_space_group_name_H-M_alt    "P 1"
_space_group_IT_number       1

loop_
  _space_group_symop_operation_xyz
  'x, y, z'

loop_
  _atom_site_type_symbol
  _atom_site_label
  _atom_site_symmetry_multiplicity
  _atom_site_fract_x
  _atom_site_fract_y
  _atom_site_fract_z
  _atom_site_occupancy
  Zn  Zn1       1.0  0.6104202150579213  0.08555920437405719  0.0015080172710569086  1.0000
  Zn  Zn2       1.0  0.3840597733429475  0.9530472656109338  0.9974448083511755  1.0000
  Zn  Zn3       1.0  0.632481115717681  0.9499199613240987  0.09912559089058698  1.0000
  Zn  Zn4       1.0  0.36325059879057164  0.033256829035032395  0.8705204954848326  1.0000
  H   H1        1.0  0.6166262578719781  0.9711306114657247  0.8433298589463899  1.0000
  H   H2        1.0  0.3717691151988945  0.7519356168342953  0.8953436880976682  1.0000
  H   H3        1.0  0.7312228674559762  0.8330794545550333  0.21834622033657064  1.0000
  H   H4        1.0  0.3665536745042531  0.06831550838806069  0.7303635320537508  1.0000
  H   H5        1.0  0.4347335518489287  0.6540150059228578  0.014256869092569853  1.0000
  H   H6        1.0  0.6725285449790022  0.12716566161374487  0.8833788997091075  1.0000
  H   H7        1.0  0.34002477664225245  0.8649556907311436  0.7179887735485975  1.0000
  H   H8        1.0  0.6590348018359222  0.8067487417474551  0.9777431117290049  1.0000
  H   H9        1.0  0.6414007353213051  0.2650595229484907  0.12855212584453574  1.0000
  H   H10       1.0  0.3339298902840823  0.9090138186452846  0.12567869353447478  1.0000
  H   H11       1.0  0.8276369641168843  0.0995024788224299  0.2801597570354631  1.0000
  H   H12       1.0  0.822828347903858  0.2569728848327841  0.1414250354192177  1.0000
  H   H13       1.0  0.3357945193168561  0.1275297781532956  0.03141275915257317  1.0000
  H   H14       1.0  0.6456122133031953  0.9876928415438683  0.2664060603916523  1.0000
  H   H15       1.0  0.35039420494178586  0.9196026198359204  0.4857230418621936  1.0000
  H   H16       1.0  0.3659622978870374  0.9766413669325261  0.6221551678300797  1.0000
  H   H17       1.0  0.6587406272004442  0.0686752345614821  0.6071600244180287  1.0000
  H   H18       1.0  0.633371789273653  0.9562765914273683  0.49412820059113455  1.0000
  H   H19       1.0  0.6264329552586146  0.9368332870588245  0.3621253303582462  1.0000
  H   H20       1.0  0.34514281371227173  0.9499990171654743  0.2585303185437695  1.0000
  H   H21       1.0  0.35152083351528757  0.9679834693045917  0.3896280244103564  1.0000
  H   H22       1.0  0.1325143490741567  0.4700745917239786  0.6295220506022685  1.0000
  H   H23       1.0  0.23938697118133231  0.610084772411895  0.7605587463350643  1.0000
  H   H24       1.0  0.3450994053318439  0.7290912747956425  0.6335084079746093  1.0000
  H   H25       1.0  0.2365145892241926  0.589831626414927  0.5020623126068527  1.0000
  H   H26       1.0  0.9141100798198352  0.38693357071860396  0.27563124934593475  1.0000
  H   H27       1.0  0.9972233235408724  0.2129321437542586  0.3893513600558052  1.0000
  H   H28       1.0  0.12978565472572254  0.34540211557968786  0.5197415653294752  1.0000
  H   H29       1.0  0.4268329100958894  0.5859624855070535  0.09448795843925954  1.0000
  H   H30       1.0  0.7401657877413613  0.6919648847566434  0.23984094906477782  1.0000
  H   H31       1.0  0.7338388131187088  0.5529592359962335  0.256549455690461  1.0000
  H   H32       1.0  0.6416463086035267  0.3936160599670585  0.20188542345437097  1.0000
  H   H33       1.0  0.9852294057835137  0.7966367647409098  0.8593516102194909  1.0000
  H   H34       1.0  0.9545887226995758  0.9743850451012647  0.7400604407124262  1.0000
  H   H35       1.0  0.8603415098720574  0.7299083415286985  0.8817777578844497  1.0000
  H   H36       1.0  0.7304226619545773  0.744979863323529  0.9068831966567001  1.0000
  H   H37       1.0  0.6891328259508  0.9158546034224813  0.7807105415567007  1.0000
  H   H38       1.0  0.10610432227187516  0.9872336861733544  0.020461931534697372  1.0000
  H   H39       1.0  0.2323906678710799  0.006113575052644599  0.07838549988884579  1.0000
  H   H40       1.0  0.14252661443983058  0.9199214577165619  0.07397930468654577  1.0000
  C   C1        1.0  0.6211395021760212  0.9377916823229882  0.8834767408517122  1.0000
  C   C2        1.0  0.36453449281341926  0.7917827439725613  0.8603809099492989  1.0000
  C   C3        1.0  0.6579181461368151  0.7990649383879642  0.16273989161400954  1.0000
  C   C4        1.0  0.44023639245612156  0.0839532859149799  0.7790327538162172  1.0000
  C   C5        1.0  0.5057291099622461  0.7093461187975334  0.058954655799943995  1.0000
  C   C6        1.0  0.5963176649200292  0.1150469260335214  0.8572433404341877  1.0000
  C   C7        1.0  0.35197601543107027  0.8509493854865652  0.7713280949746772  1.0000
  C   C8        1.0  0.6436234355074292  0.8538278883303505  0.9519585232660505  1.0000
  C   C9        1.0  0.6527721744381338  0.8682698725991571  0.8878734056348134  1.0000
  C   C10       1.0  0.34205829182769776  0.7694320528041982  0.7774910706883559  1.0000
  C   C11       1.0  0.5835544684930909  0.7164835353469954  0.13345228938308656  1.0000
  C   C12       1.0  0.5222832083069662  0.0872839938051158  0.7734698904198183  1.0000
  C   C13       1.0  0.5672477432210243  0.2180949586852989  0.09971138440493368  1.0000
  C   C14       1.0  0.41119218814000646  0.9300576907266488  0.14970265875022892  1.0000
  C   C15       1.0  0.8133117344403618  0.1260475838494486  0.23401902968642924  1.0000
  C   C16       1.0  0.15486070178674527  0.9679992796124706  0.8218078720014501  1.0000
  C   C17       1.0  0.15888585942821  0.9201409330611126  0.9153327943082058  1.0000
  C   C18       1.0  0.8101750344041039  0.20698759823460475  0.16386340975714825  1.0000
  C   C19       1.0  0.4109532861190815  0.1491816558101888  0.04891358474636579  1.0000
  C   C20       1.0  0.5699626684726695  0.9699251069990708  0.22059160055882626  1.0000
  C   C21       1.0  0.486919131692467  0.2347922634405961  0.09778380088215496  1.0000
  C   C22       1.0  0.48854139641432676  0.9462949806639146  0.22773808679156823  1.0000
  C   C23       1.0  0.8623528454628371  0.21146914880121406  0.2445246945616546  1.0000
  C   C24       1.0  0.09117946798711067  0.9230818999886309  0.8415282042972975  1.0000
  C   C25       1.0  0.4215467707920765  0.9660013851033324  0.5417219875073015  1.0000
  C   C26       1.0  0.43062426563076167  0.9980520540425603  0.6192684293220266  1.0000
  C   C27       1.0  0.5207031166661409  0.05590822042393031  0.6950062726342238  1.0000
  C   C28       1.0  0.6011002164855341  0.07673362005782279  0.6860754575094175  1.0000
  C   C29       1.0  0.5932823997643553  0.04720133978339901  0.6088198014195285  1.0000
  C   C30       1.0  0.5027371228782725  0.9912956701647175  0.5345182731650623  1.0000
  C   C31       1.0  0.5703196352955046  0.9556865937350025  0.44270331584068845  1.0000
  C   C32       1.0  0.5664030245135407  0.9449085085708261  0.36825268852157916  1.0000
  C   C33       1.0  0.4869381465264269  0.945275943089804  0.3011901200753825  1.0000
  C   C34       1.0  0.40809274429118864  0.949865709281319  0.30938225745076403  1.0000
  C   C35       1.0  0.4114565056359254  0.9597501029552403  0.38340736621856303  1.0000
  C   C36       1.0  0.49405637846987815  0.9661497575912178  0.4525977830463219  1.0000
  C   C37       1.0  0.180334394195981  0.5263147633553231  0.6304755408941815  1.0000
  C   C38       1.0  0.2409484195155115  0.6053010637202261  0.7045805950989316  1.0000
  C   C39       1.0  0.2976145211877466  0.6814580623629497  0.7063473305906384  1.0000
  C   C40       1.0  0.29814122720202374  0.6726151032352733  0.6329876952691791  1.0000
  C   C41       1.0  0.2368229797273216  0.5940148004807285  0.5587203633770556  1.0000
  C   C42       1.0  0.1735740018940746  0.520918334854798  0.5553016606806195  1.0000
  C   C43       1.0  0.03395468764897199  0.44942055567157974  0.40291432286358736  1.0000
  C   C44       1.0  0.960726245808239  0.37537000861488684  0.32781290297099025  1.0000
  C   C45       1.0  0.9441054914237059  0.2884243278355427  0.3214403298367615  1.0000
  C   C46       1.0  0.006578380850321263  0.27963190638286756  0.3924873241686625  1.0000
  C   C47       1.0  0.08103751572977562  0.35444065744495384  0.46645424853537765  1.0000
  C   C48       1.0  0.09699043162420651  0.44240124895331684  0.475001675733793  1.0000
  C   C49       1.0  0.5827577006260186  0.6460305721344993  0.16094164998517613  1.0000
  C   C50       1.0  0.4858978920391692  0.32420951515504015  0.12638339464383108  1.0000
  C   C51       1.0  0.3994804678379822  0.42236284535950824  0.10014140117810648  1.0000
  C   C52       1.0  0.3993147369369439  0.3398137435999685  0.09631116358672637  1.0000
  C   C53       1.0  0.5726734681965908  0.40066419436944045  0.17332008008519753  1.0000
  C   C54       1.0  0.5763579202966653  0.48593013623111136  0.17962122008639603  1.0000
  C   C55       1.0  0.48780239703584977  0.4975861341435177  0.13645731987473642  1.0000
  C   C56       1.0  0.49357773231119495  0.5785500345428147  0.1299994157333373  1.0000
  C   C57       1.0  0.6699653083154757  0.6377221177220845  0.21158514235322898  1.0000
  C   C58       1.0  0.6666594908341282  0.5603303927779848  0.2208179596886523  1.0000
  C   C59       1.0  0.9872839284903494  0.8939084994632366  0.8091833142493242  1.0000
  C   C60       1.0  0.7056286692825822  0.8373923397799459  0.8507661021018007  1.0000
  C   C61       1.0  0.8224120711080191  0.7705377639783251  0.8598754492520512  1.0000
  C   C62       1.0  0.75023501610724  0.7791128709324865  0.8738026972187783  1.0000
  C   C63       1.0  0.7255528741563353  0.8744075780161538  0.8020787506049556  1.0000
  C   C64       1.0  0.8002328125737108  0.8679695885959615  0.7879300606471558  1.0000
  C   C65       1.0  0.8549752334872025  0.8204062589683473  0.8230974823941253  1.0000
  C   C66       1.0  0.9449244561981516  0.8320466400423925  0.8303458177556138  1.0000
  C   C67       1.0  0.9286397248170742  0.9320296494838586  0.7645753745238861  1.0000
  C   C68       1.0  0.8368230447061863  0.915613950576052  0.751060537929824  1.0000
  C   C69       1.0  0.15717527755789718  0.9551449718791574  0.039308221286788105  1.0000
  N   N1        1.0  0.5978258997403996  0.9634483188308491  0.941384091009766  1.0000
  N   N2        1.0  0.3838820291005404  0.8793878156126737  0.8988592683449779  1.0000
  N   N3        1.0  0.6249497782258757  0.835742940128071  0.10921415566118509  1.0000
  N   N4        1.0  0.46301201782707585  0.104387576756892  0.8587280972641194  1.0000
  N   N5        1.0  0.5303746671239081  0.779724624630937  0.044335720988250574  1.0000
  N   N6        1.0  0.560431484039114  0.12293180001718439  0.907301288303415  1.0000
  N   N7        1.0  0.3760750845981562  0.9155080016492504  0.8438239553836835  1.0000
  N   N8        1.0  0.6116325876895914  0.9116575533110021  0.983600172545138  1.0000
  N   N9        1.0  0.5403987225831557  0.1307105080442241  0.05489181988437501  1.0000
  N   N10       1.0  0.44505849988448176  0.9427273012405876  0.10094390673174994  1.0000
  N   N11       1.0  0.7381094301390405  0.07542243138264838  0.15397153231283056  1.0000
  N   N12       1.0  0.24824974540737796  0.9893396150803255  0.8789944519709961  1.0000
  N   N13       1.0  0.2509562897643746  0.9589292230170158  0.9353634881587566  1.0000
  N   N14       1.0  0.7366121317345886  0.1256809779269688  0.1103521304746096  1.0000
  N   N15       1.0  0.4431561596936576  0.08726195405888859  0.02180937131262794  1.0000
  N   N16       1.0  0.5436026304234145  0.9679942020965199  0.14471846801937005  1.0000
  N   N17       1.0  0.14167746784659832  0.987451291261685  0.7526111249244491  1.0000
  N   N18       1.0  0.7012828997735454  0.13176260233174733  0.7592774911180269  1.0000
  N   N19       1.0  0.03478966545544173  0.5369885498353354  0.4044697418337788  1.0000
  N   N20       1.0  0.3054772944289752  0.43063229421674265  0.0649604593939372  1.0000
  N   N21       1.0  0.30537727524148284  0.2630054533765146  0.05363745960124787  1.0000
  N   N22       1.0  0.7774716234004301  0.9500426966902324  0.6969748905040942  1.0000
  O   O1        1.0  0.05906551510117447  0.9700958712758234  0.6956456710805979  1.0000
  O   O2        1.0  0.21791216522841245  0.0206837114753853  0.7525143889669009  1.0000
  O   O3        1.0  0.14298909555492395  0.8869907148123344  0.9653605069003814  1.0000
  O   O4        1.0  0.7454733223311223  0.20421971547117576  0.7649351595208171  1.0000
  O   O5        1.0  0.7358036514891282  0.0996719499788696  0.8092157664726399  1.0000
  O   O6        1.0  0.03644098002112634  0.590158390349501  0.4639176996446679  1.0000
  O   O7        1.0  0.029669476378409006  0.5497541666884943  0.34381244379827075  1.0000
  O   O8        1.0  0.28810069325462706  0.4673285892822249  0.017226129048502504  1.0000
  O   O9        1.0  0.24997997397929336  0.4003755279855525  0.08609587223792659  1.0000
  O   O10       1.0  0.29046095875368394  0.23018692383434572  0.09774524606560679  1.0000
  O   O11       1.0  0.2509643079310493  0.2341779593218405  0.9766270761500163  1.0000
  O   O12       1.0  0.8190612869109373  0.011951691631253402  0.6868529955946057  1.0000
  O   O13       1.0  0.6875298216021406  0.9131118213595358  0.6616845060210038  1.0000
