data_image0
_chemical_formula_structural       Ag8H36C36N12
_chemical_formula_sum              "Ag8 H36 C36 N12"
_cell_length_a       6.4188069190105415
_cell_length_b       11.388522706018065
_cell_length_c       14.940551332001219
_cell_angle_alpha    90.00001725819118
_cell_angle_beta     89.99995763699184
_cell_angle_gamma    90.0002034051353

_space_group_name_H-M_alt    "P 1"
_space_group_IT_number       1

loop_
  _space_group_symop_operation_xyz
  'x, y, z'

loop_
  _atom_site_type_symbol
  _atom_site_label
  _atom_site_symmetry_multiplicity
  _atom_site_fract_x
  _atom_site_fract_y
  _atom_site_fract_z
  _atom_site_occupancy
  Ag  Ag1       1.0  0.25000547579932697  0.5474647306535444  0.7467381968969278  1.0000
  Ag  Ag2       1.0  0.7500050689741827  0.4525274476217759  0.2532576573365048  1.0000
  Ag  Ag3       1.0  0.250004055714065  0.45252782409118464  0.24673521855017808  1.0000
  Ag  Ag4       1.0  0.7500080470394295  0.5474827938029704  0.7532606356851517  1.0000
  Ag  Ag5       1.0  0.24999604412564486  0.8156863842408698  0.026410057923087  1.0000
  Ag  Ag6       1.0  0.7499958055986441  0.1843101844008145  0.9735857963137773  1.0000
  Ag  Ag7       1.0  0.2500014089553488  0.18431310874595402  0.5264116135780696  1.0000
  Ag  Ag8       1.0  0.7500044620893578  0.8156913626032675  0.47358624861554677  1.0000
  H   H1        1.0  0.24999889341517453  0.2627112574698102  0.1217873309723956  1.0000
  H   H2        1.0  0.7499945142292861  0.737285311173828  0.8782105312222582  1.0000
  H   H3        1.0  0.2500061826467928  0.7372882729099074  0.6217883452941776  1.0000
  H   H4        1.0  0.750002804228778  0.26271356421244  0.3782148714533946  1.0000
  H   H5        1.0  0.2499949698238026  0.2044931354508606  0.8366310915553825  1.0000
  H   H6        1.0  0.7499984378350605  0.795507823577708  0.1633661013204346  1.0000
  H   H7        1.0  0.2500019412842677  0.7955082352892547  0.3366395710181536  1.0000
  H   H8        1.0  0.7499961401221287  0.20449008951518266  0.6633690002854564  1.0000
  H   H9        1.0  0.24999273480624856  0.9881733637002058  0.8696446895162493  1.0000
  H   H10       1.0  0.7499928832351515  0.0118258391670665  0.1303551806379559  1.0000
  H   H11       1.0  0.250001002786064  0.011826263820900402  0.3696416091665071  1.0000
  H   H12       1.0  0.7499986365505934  0.9881711829055887  0.6303542450692416  1.0000
  H   H13       1.0  0.24998851746752848  0.9389148622174728  0.16957681031048819  1.0000
  H   H14       1.0  0.7500033322633046  0.06108434065563979  0.8304210518847128  1.0000
  H   H15       1.0  0.2500024538077454  0.06108468688005081  0.6695763294847907  1.0000
  H   H16       1.0  0.7500034172286619  0.9389171502381332  0.3304215327085203  1.0000
  H   H17       1.0  0.1130599832869521  0.06730563470980398  0.20640803566232785  1.0000
  H   H18       1.0  0.6130694458699892  0.9326915379668037  0.7935885307314976  1.0000
  H   H19       1.0  0.3869418291036696  0.9326974411441782  0.7064110603298628  1.0000
  H   H20       1.0  0.8869358100513837  0.06731081656506178  0.2935887669832197  1.0000
  H   H21       1.0  0.8869380981222504  0.9326900558611014  0.7935878185734637  1.0000
  H   H22       1.0  0.38693330930524883  0.06730590876398419  0.20641334737785394  1.0000
  H   H23       1.0  0.6130687157078045  0.06730790828712678  0.2935888098211592  1.0000
  H   H24       1.0  0.1130529238482652  0.9326927766902599  0.7064104338516586  1.0000
  H   H25       1.0  0.24999867333242073  0.4068231641815814  0.893200647192181  1.0000
  H   H26       1.0  0.7499962922487955  0.5931786729260792  0.1067992229608734  1.0000
  H   H27       1.0  0.2500059285639225  0.5931791068156896  0.3932023866321685  1.0000
  H   H28       1.0  0.7499983845407814  0.4068218522254909  0.6068035073934013  1.0000
  H   H29       1.0  0.1123562305486914  0.42229300742320663  0.9960630057669987  1.0000
  H   H30       1.0  0.6123570475898462  0.5777076761452875  0.0039382460841395  1.0000
  H   H31       1.0  0.3876450757913831  0.5777066696586529  0.49606269060863173  1.0000
  H   H32       1.0  0.8876424826725539  0.42229280869156577  0.5039384751215792  1.0000
  H   H33       1.0  0.8876356191875132  0.5777088296815976  0.0039382030252213  1.0000
  H   H34       1.0  0.38765038135885993  0.4222924048213485  0.9960643013441268  1.0000
  H   H35       1.0  0.6123514476989413  0.4222916551429137  0.5039391875017927  1.0000
  H   H36       1.0  0.11236338835875159  0.5777081503501263  0.4960620643490045  1.0000
  C   C1        1.0  0.24999575020370202  0.40486500781828033  0.6655249792873903  1.0000
  C   C2        1.0  0.7500179104247097  0.5951306827682146  0.3344708749459642  1.0000
  C   C3        1.0  0.24999367022588365  0.5951345396900505  0.1655273885010899  1.0000
  C   C4        1.0  0.7500012953730889  0.40487256587942977  0.8344711430138856  1.0000
  C   C5        1.0  0.25001364542443844  0.6905675915333163  0.8275310820176002  1.0000
  C   C6        1.0  0.7499891097352673  0.3094219525022551  0.1724600869813457  1.0000
  C   C7        1.0  0.2500144399868773  0.30942148259164526  0.3275334251035957  1.0000
  C   C8        1.0  0.7500101260702009  0.6905689395455141  0.6724717995982488  1.0000
  C   C9        1.0  0.2499781159184025  0.08366256492232789  0.0768411777412012  1.0000
  C   C10       1.0  0.7499888070532563  0.916334881772471  0.9231600310544152  1.0000
  C   C11       1.0  0.25000678567690937  0.9163351916653465  0.5768415641810165  1.0000
  C   C12       1.0  0.7500053170381379  0.08366488930582962  0.42316031392716974  1.0000
  C   C13       1.0  0.24999253082960146  0.20497241397632135  0.063511697063845  1.0000
  C   C14       1.0  0.7499977609726116  0.7950250327414636  0.9364875037700884  1.0000
  C   C15       1.0  0.2500110891188427  0.795026215482288  0.5635120554281059  1.0000
  C   C16       1.0  0.7500041294422318  0.20497474356915288  0.4364904919990451  1.0000
  C   C17       1.0  0.24999655659859604  0.25270749374619333  0.9773943094999922  1.0000
  C   C18       1.0  0.7499952931365925  0.7472934652812099  0.0226048913340975  1.0000
  C   C19       1.0  0.2500016665082327  0.7472912979383465  0.477396084610085  1.0000
  C   C20       1.0  0.7500026466004075  0.2527105391795885  0.5226084707769019  1.0000
  C   C21       1.0  0.2499994843445137  0.17303867420372399  0.9055515699716778  1.0000
  C   C22       1.0  0.7500001550014519  0.8269622848312111  0.0944462922225071  1.0000
  C   C23       1.0  0.2500050959638642  0.8269618454817972  0.4055587180760369  1.0000
  C   C24       1.0  0.7499945433628528  0.1730356012469159  0.5944485145885423  1.0000
  C   C25       1.0  0.2500022078158608  0.05330497424012751  0.9231412684462724  1.0000
  C   C26       1.0  0.7499958735997226  0.9466942286398777  0.0768599403446686  1.0000
  C   C27       1.0  0.24999922592160573  0.9466946742586232  0.4231417510708866  1.0000
  C   C28       1.0  0.7500019713417532  0.053305406701255706  0.5768581190809883  1.0000
  C   C29       1.0  0.24999813552940964  0.0353323462879445  0.1697928958893655  1.0000
  C   C30       1.0  0.7500046196491751  0.9646659785197255  0.8302083129007441  1.0000
  C   C31       1.0  0.24999750912780883  0.9646654467451012  0.6697932935198307  1.0000
  C   C32       1.0  0.7500036881343846  0.0353346342150331  0.3302079152707265  1.0000
  C   C33       1.0  0.2500032097804024  0.38293772721390695  0.9643024382228873  1.0000
  C   C34       1.0  0.7499948716456687  0.6170649879742812  0.03569943988780009  1.0000
  C   C35       1.0  0.2500059416621312  0.6170636935805333  0.4643021752337617  1.0000
  C   C36       1.0  0.7499983714476741  0.38293814353713873  0.5357010415145423  1.0000
  N   N1        1.0  0.2499924210702815  0.3237780985438263  0.6174096103015215  1.0000
  N   N2        1.0  0.7500118920187405  0.6762158358798089  0.3825889212104626  1.0000
  N   N3        1.0  0.24999085173433852  0.6762196739425405  0.1174026678117528  1.0000
  N   N4        1.0  0.7500009980472698  0.32379621239421397  0.8825972023434119  1.0000
  N   N5        1.0  0.25000918714935244  0.772280569658676  0.8753834085753808  1.0000
  N   N6        1.0  0.7499873363571298  0.2277221455274231  0.124615792258183  1.0000
  N   N7        1.0  0.25001414094621316  0.22772345052680276  0.3753817168338784  1.0000
  N   N8        1.0  0.7500041934878325  0.7722845331422902  0.6246127987614827  1.0000
  N   N9        1.0  0.25000286798157845  0.008719556215361  0.0066811075844058  1.0000
  N   N10       1.0  0.7499967713498207  0.9912778905123073  0.9933207705254288  1.0000
  N   N11       1.0  0.2500070829432913  0.9912799290505131  0.5066815113738556  1.0000
  N   N12       1.0  0.7499987880852502  0.0087201519141686  0.4933190280966215  1.0000
