data_image0
_chemical_formula_structural       Zn2H38C44N2O8
_chemical_formula_sum              "Zn2 H38 C44 N2 O8"
_cell_length_a       8.235021437892788
_cell_length_b       11.385469811114861
_cell_length_c       11.78819889647866
_cell_angle_alpha    67.22920605112114
_cell_angle_beta     72.9215935173181
_cell_angle_gamma    77.32889228391386

_space_group_name_H-M_alt    "P 1"
_space_group_IT_number       1

loop_
  _space_group_symop_operation_xyz
  'x, y, z'

loop_
  _atom_site_type_symbol
  _atom_site_label
  _atom_site_symmetry_multiplicity
  _atom_site_fract_x
  _atom_site_fract_y
  _atom_site_fract_z
  _atom_site_occupancy
  Zn  Zn1       1.0  0.42011265491365185  0.4771578645217432  0.41954492060423104  1.0000
  Zn  Zn2       1.0  0.5798880008047008  0.5228421442361508  0.580454919296912  1.0000
  H   H1        1.0  0.5235346891300168  0.37653951695462956  0.20936553280303366  1.0000
  H   H2        1.0  0.4764659665883428  0.6234604918032575  0.7906343070981093  1.0000
  H   H3        1.0  0.39605222567949744  0.37186206724867793  0.04215509073991087  1.0000
  H   H4        1.0  0.6039485831219765  0.6281369818751442  0.9578442283210792  1.0000
  H   H5        1.0  0.9253307209450555  0.5620809535216936  0.20948506082105206  1.0000
  H   H6        1.0  0.07466866266416616  0.43791905449054996  0.7905133443622887  1.0000
  H   H7        1.0  0.07437507030626023  0.5643364013833648  0.3631828419030468  1.0000
  H   H8        1.0  0.9256255844945187  0.43566360721688824  0.6368161499395057  1.0000
  H   H9        1.0  0.16101249347684643  0.4212404053404485  0.9465472542409329  1.0000
  H   H10       1.0  0.8389881622415062  0.5787596034174386  0.05345258566020305  1.0000
  H   H11       1.0  0.2019159223747949  0.8262878293091447  0.6843794992514347  1.0000
  H   H12       1.0  0.7980860036175487  0.17371217987911794  0.31562007925033  1.0000
  H   H13       1.0  0.9443448843036465  0.9792619861337355  0.7291176245899679  1.0000
  H   H14       1.0  0.055656886770428605  0.02073898237332371  0.2708807786347691  1.0000
  H   H15       1.0  0.6857738595478228  0.8555823284505095  0.5338061725840788  1.0000
  H   H16       1.0  0.3142255258965534  0.1444176798770087  0.4661939287164358  1.0000
  H   H17       1.0  0.9436516434475807  0.709532694742727  0.48454492414553846  1.0000
  H   H18       1.0  0.0563477419967953  0.29046731358479155  0.5154551771549762  1.0000
  H   H19       1.0  0.5448277770743459  0.9684098196091782  0.7438002383196435  1.0000
  H   H20       1.0  0.45517287956158736  0.0315901893063497  0.2562004496400831  1.0000
  H   H21       1.0  0.5796433149883242  0.0632153805076996  0.5816751718188939  1.0000
  H   H22       1.0  0.42035734073003556  0.9367846282501946  0.4183246680822492  1.0000
  H   H23       1.0  0.6715682489993854  0.09646982490723134  0.6828124394890551  1.0000
  H   H24       1.0  0.3284322527182796  0.9035311433270932  0.31718707319364375  1.0000
  H   H25       1.0  0.803319705568889  0.8794825316167378  0.31842452791870823  1.0000
  H   H26       1.0  0.1966809492318973  0.12051747698351532  0.6815744639238446  1.0000
  H   H27       1.0  0.8616508025272651  0.0884896886279094  0.14565977635675859  1.0000
  H   H28       1.0  0.1383485829171107  0.9115103196996089  0.8543403249437631  1.0000
  H   H29       1.0  0.6786449180692529  0.9749179413177771  0.9020390581015788  1.0000
  H   H30       1.0  0.3213557376491067  0.025082067440109806  0.0979607817995642  1.0000
  H   H31       1.0  0.6157066737343229  0.768098981638417  0.07641284684581966  1.0000
  H   H32       1.0  0.38429144051850284  0.2319010261010989  0.9235866677954832  1.0000
  H   H33       1.0  0.7925137177397872  0.1788711193719125  0.8192994921812795  1.0000
  H   H34       1.0  0.20748566678701508  0.821128888797965  0.18069976106065158  1.0000
  H   H35       1.0  0.9197059458829389  0.205324603161543  0.9039990568133475  1.0000
  H   H36       1.0  0.0802934395614372  0.7946754051659681  0.09600104448716712  1.0000
  H   H37       1.0  0.695782519939371  0.25050443747198875  0.9358075693343365  1.0000
  H   H38       1.0  0.3042168655050047  0.7494955708555225  0.06419253196617797  1.0000
  C   C1        1.0  0.3922103207734439  0.41788490788029253  0.2035414132591029  1.0000
  C   C2        1.0  0.6077901800266476  0.5821160601963912  0.7964572513650124  1.0000
  C   C3        1.0  0.32011137561512726  0.4150090178756045  0.11217632568936864  1.0000
  C   C4        1.0  0.6798892801032322  0.5849909908822895  0.8878235142117745  1.0000
  C   C5        1.0  0.14993708506452919  0.4692938465986602  0.10908965575517728  1.0000
  C   C6        1.0  0.85006356973625  0.5307061620015929  0.8909093360873757  1.0000
  C   C7        1.0  0.059004477177765594  0.5217630551970984  0.203279945905237  1.0000
  C   C8        1.0  0.9409949082666105  0.47823695313041986  0.7967201553952774  1.0000
  C   C9        1.0  0.14023146329082442  0.522294452496226  0.29052638188825597  1.0000
  C   C10       1.0  0.8597677681528637  0.477706515307723  0.7094733921938217  1.0000
  C   C11       1.0  0.07798285008421149  0.4706560123814114  0.009689593124122068  1.0000
  C   C12       1.0  0.9220178056341412  0.5293439963764754  0.990310246777014  1.0000
  C   C13       1.0  0.24437629124154372  0.6684097005845332  0.5527403336940536  1.0000
  C   C14       1.0  0.7556243644768161  0.33159030817336094  0.44725950620708227  1.0000
  C   C15       1.0  0.08973349240476128  0.7582650871427746  0.5817021835275683  1.0000
  C   C16       1.0  0.9102684335875751  0.24173492204548816  0.41829739497419643  1.0000
  C   C17       1.0  0.08765273964451838  0.8336190084695477  0.6520635209079229  1.0000
  C   C18       1.0  0.9123479160738415  0.16638100028833955  0.34793631899321303  1.0000
  C   C19       1.0  0.9434130617136707  0.9182083317662093  0.6772738487107757  1.0000
  C   C20       1.0  0.05658647773140053  0.08179071708487132  0.3227265798081831  1.0000
  C   C21       1.0  0.7969731348052209  0.928400452387862  0.6348427782501602  1.0000
  C   C22       1.0  0.20302609663846746  0.07160051541608682  0.36515699583192424  1.0000
  C   C23       1.0  0.7990191373279246  0.8506277680755121  0.5665817960295029  1.0000
  C   C24       1.0  0.20098024903403203  0.14937224040964037  0.43341915332960207  1.0000
  C   C25       1.0  0.9437369067628367  0.7679399432340266  0.5389591717961861  1.0000
  C   C26       1.0  0.05626374987309651  0.23206006568150173  0.46104151616354727  1.0000
  C   C27       1.0  0.6410945015904802  0.018925899246205802  0.6619742422148462  1.0000
  C   C28       1.0  0.3589072704011614  0.9810750694184878  0.3380250090684809  1.0000
  C   C29       1.0  0.6518363726795399  0.6908585339627039  0.31474026269021493  1.0000
  C   C30       1.0  0.3481628587641481  0.30914243384124523  0.6852595113918697  1.0000
  C   C31       1.0  0.7051764116808387  0.8106144399377728  0.20819833092177475  1.0000
  C   C32       1.0  0.2948229728459638  0.18938556823211172  0.7918009223201495  1.0000
  C   C33       1.0  0.7766532245291273  0.9009600150349686  0.22680881586004645  1.0000
  C   C34       1.0  0.2233461599976749  0.09903999313491602  0.7731904373818849  1.0000
  C   C35       1.0  0.8079817779472195  0.017783797068190707  0.13035348237726652  1.0000
  C   C36       1.0  0.19201760749716357  0.9822162112593279  0.869646618923248  1.0000
  C   C37       1.0  0.7712303522774774  0.047379438444579605  0.012577976179954953  1.0000
  C   C38       1.0  0.2287703025233085  0.9526205701556736  0.9874210156625974  1.0000
  C   C39       1.0  0.7069076694018008  0.9543304858312281  0.9930156324432317  1.0000
  C   C40       1.0  0.2930917151250015  0.04566952233865611  0.006983620798692383  1.0000
  C   C41       1.0  0.6729697063022614  0.8380333923317878  0.08976962764084132  1.0000
  C   C42       1.0  0.3270309494160983  0.16196661642609914  0.9102302122603021  1.0000
  C   C43       1.0  0.7967523626813886  0.17664547393042798  0.9123050646734967  1.0000
  C   C44       1.0  0.20324702276299433  0.8233545343970903  0.08769503662702506  1.0000
  N   N1        1.0  0.3046120759450588  0.4721273567512014  0.2904606728953354  1.0000
  N   N2        1.0  0.695387309499317  0.5278726515763169  0.7095394284051793  1.0000
  O   O1        1.0  0.24241974433015653  0.6120745827126371  0.47822630292235146  1.0000
  O   O2        1.0  0.7575796420318001  0.3879254257725152  0.5217746464367605  1.0000
  O   O3        1.0  0.36740197719607454  0.6536235505173097  0.6041320516819296  1.0000
  O   O4        1.0  0.6325996398772988  0.34637837746618066  0.3958660243243698  1.0000
  O   O5        1.0  0.5708091846283383  0.6216447243237583  0.2924757693094194  1.0000
  O   O6        1.0  0.42919020081604503  0.37835528400376006  0.7075243319910952  1.0000
  O   O7        1.0  0.6883069621359398  0.667555391412293  0.41990103540729956  1.0000
  O   O8        1.0  0.31169369266483943  0.3324446171879599  0.5800979564352531  1.0000
