data_image0
_chemical_formula_structural       Cu2H32C12N28
_chemical_formula_sum              "Cu2 H32 C12 N28"
_cell_length_a       7.2662589404622935
_cell_length_b       8.182099295566717
_cell_length_c       11.268967530595402
_cell_angle_alpha    91.21573329192886
_cell_angle_beta     82.17947631234186
_cell_angle_gamma    73.70469157384096

_space_group_name_H-M_alt    "P 1"
_space_group_IT_number       1

loop_
  _space_group_symop_operation_xyz
  'x, y, z'

loop_
  _atom_site_type_symbol
  _atom_site_label
  _atom_site_symmetry_multiplicity
  _atom_site_fract_x
  _atom_site_fract_y
  _atom_site_fract_z
  _atom_site_occupancy
  Cu  Cu1       1.0  0.5000074308310333  0.9999754744521285  0.9999827412392506  1.0000
  Cu  Cu2       1.0  0.4999941530992801  0.5000110550326866  0.5000036333550285  1.0000
  H   H1        1.0  0.874998446090338  0.22256151103132993  0.4089231221318101  1.0000
  H   H2        1.0  0.1249991932973913  0.7774649679312803  0.5910790147494396  1.0000
  H   H3        1.0  0.8047923407540979  0.5945532719461822  0.4535433982434682  1.0000
  H   H4        1.0  0.19519390437569228  0.4054804932495415  0.5464651139544685  1.0000
  H   H5        1.0  0.021586647221276664  0.34625998931117163  0.34028167841506024  1.0000
  H   H6        1.0  0.9783877812030822  0.6537834294263122  0.6597232627742146  1.0000
  H   H7        1.0  0.13635677922908226  0.03661662857832941  0.0865411244203855  1.0000
  H   H8        1.0  0.8636613329901832  0.9633403585250381  0.9134390128393476  1.0000
  H   H9        1.0  0.5040304235839629  0.291513866067227  0.3273281646535793  1.0000
  H   H10       1.0  0.495966264501952  0.7085026611440172  0.6726756920848375  1.0000
  H   H11       1.0  0.4485071569129103  0.48843188427336787  0.2806368614382677  1.0000
  H   H12       1.0  0.5514782351976493  0.511579010953618  0.7193635335585782  1.0000
  H   H13       1.0  0.7548971555982507  0.49920386789779064  0.23385063400847633  1.0000
  H   H14       1.0  0.2450843069323482  0.5008252853198912  0.766152580917435  1.0000
  H   H15       1.0  0.8448839503839312  0.43982309976554035  0.5491727741648162  1.0000
  H   H16       1.0  0.15510261867977698  0.560196091979215  0.45082330434531315  1.0000
  H   H17       1.0  0.5024222710711754  0.27569544867103  0.10792741504708665  1.0000
  H   H18       1.0  0.4976002978159854  0.7242345052080597  0.8920683325530732  1.0000
  H   H19       1.0  0.6179667494189333  0.26442318001202386  0.9669766184205387  1.0000
  H   H20       1.0  0.3820421683440571  0.7355495366322417  0.033015267338996145  1.0000
  H   H21       1.0  0.7978367687149658  0.2748572562167909  0.20556789964214056  1.0000
  H   H22       1.0  0.20215482208270422  0.7251758978242508  0.7944363647535438  1.0000
  H   H23       1.0  0.28375927575496024  0.4836903228125778  0.006690714935423596  1.0000
  H   H24       1.0  0.7162557054331202  0.5162909094356182  0.9933417923152703  1.0000
  H   H25       1.0  0.011977652955252356  0.3466607871334447  0.02579585377260679  1.0000
  H   H26       1.0  0.988022709205417  0.6533169711525916  0.9742218589410427  1.0000
  H   H27       1.0  0.3249716224464478  0.3242938355633598  0.8872373808982202  1.0000
  H   H28       1.0  0.6750297312353625  0.6757017667698622  0.11276285061609315  1.0000
  H   H29       1.0  0.16269994302912497  0.07139891041467912  0.9408097144570179  1.0000
  H   H30       1.0  0.8373009156598171  0.9285857548618995  0.05916810089524201  1.0000
  H   H31       1.0  0.14822041046062404  0.3020685441726698  0.14734712602361102  1.0000
  H   H32       1.0  0.8518050984827213  0.6978715263218335  0.8526654034662188  1.0000
  C   C1        1.0  0.33216840222001315  0.020488127961314703  0.4171216360033654  1.0000
  C   C2        1.0  0.6678333137267387  0.9795237474789648  0.5828765105515927  1.0000
  C   C3        1.0  0.8720374639581719  0.34723630726181653  0.37408823277056064  1.0000
  C   C4        1.0  0.12794551718151578  0.6528019147694623  0.6259159312255136  1.0000
  C   C5        1.0  0.7464974895358054  0.38073919229041314  0.2749745095907059  1.0000
  C   C6        1.0  0.2535012492534107  0.6192799536627619  0.7250297837272512  1.0000
  C   C7        1.0  0.15431677828632226  0.2805734342571071  0.05022471491231069  1.0000
  C   C8        1.0  0.8456878860847042  0.7193880652730089  0.9497864108454905  1.0000
  C   C9        1.0  0.3127300009924029  0.34672640208919603  0.9847192748578666  1.0000
  C   C10       1.0  0.6872646169017995  0.6532510663397207  0.015296542508345083  1.0000
  C   C11       1.0  0.037929986695992575  0.16513558925386468  0.6926960024693188  1.0000
  C   C12       1.0  0.9620686578182355  0.8348756907519574  0.30729812483707525  1.0000
  N   N1        1.0  0.7832952893140473  0.4781950358063158  0.47300210283523114  1.0000
  N   N2        1.0  0.21668074999701056  0.5218190990388367  0.5270118328163491  1.0000
  N   N3        1.0  0.20530866231871414  0.09459997793070583  0.021437887175075304  1.0000
  N   N4        1.0  0.7947104727490598  0.905357155962669  0.9785519397544888  1.0000
  N   N5        1.0  0.39566656960234065  0.09219073192257103  0.31787246712980294  1.0000
  N   N6        1.0  0.6043366493507704  0.9078170366819976  0.6821150362514247  1.0000
  N   N7        1.0  0.4890571119757466  0.9616940028799238  0.23971603987281748  1.0000
  N   N8        1.0  0.5109528388792981  0.038308635237868295  0.7602798671077267  1.0000
  N   N9        1.0  0.22157162721971707  0.12568921004395153  0.5139432747973842  1.0000
  N   N10       1.0  0.7784114885362001  0.8743207216746927  0.4860592802494779  1.0000
  N   N11       1.0  0.16429135194347572  0.05151323820678751  0.6042212636737503  1.0000
  N   N12       1.0  0.8357180853070644  0.9485091806964193  0.3957616982803884  1.0000
  N   N13       1.0  0.38639237424686007  0.847422707640476  0.4006877563868372  1.0000
  N   N14       1.0  0.6136092847572386  0.15258903908383564  0.5993095125753101  1.0000
  N   N15       1.0  0.4830035844724491  0.8140892614078015  0.2898915400435129  1.0000
  N   N16       1.0  0.5170042960689756  0.18591836648347038  0.7101123411834322  1.0000
  N   N17       1.0  0.8296210529236561  0.3842389441124184  0.7854006339437732  1.0000
  N   N18       1.0  0.1703724840587739  0.6157591880396824  0.21459956946870312  1.0000
  N   N19       1.0  0.9469627724492471  0.33176404419540273  0.6821179451630854  1.0000
  N   N20       1.0  0.05303655537684893  0.6682487804020739  0.3178867132570531  1.0000
  N   N21       1.0  0.9789178153382138  0.11486543135271893  0.8014125235015116  1.0000
  N   N22       1.0  0.021090084813522453  0.8851345880231422  0.19858294689949932  1.0000
  N   N23       1.0  0.5418053280649389  0.40453604053571024  0.32707605545325447  1.0000
  N   N24       1.0  0.458180369367909  0.5954909990823652  0.6729213769914183  1.0000
  N   N25       1.0  0.4977402809275445  0.24636472818124852  0.01982378700844122  1.0000
  N   N26       1.0  0.5022684111841117  0.7536096436966064  0.9801706953806433  1.0000
  N   N27       1.0  0.8499079369213975  0.25504350374689727  0.8575901057917293  1.0000
  N   N28       1.0  0.15009503577137204  0.7449504192800307  0.1424073447352825  1.0000
