data_image0
_chemical_formula_structural       Ca8H16C16O40
_chemical_formula_sum              "Ca8 H16 C16 O40"
_cell_length_a       6.330920882237963
_cell_length_b       9.970847307438257
_cell_length_c       14.608154961008275
_cell_angle_alpha    90.00000208874285
_cell_angle_beta     89.99988310793898
_cell_angle_gamma    106.9981155766762

_space_group_name_H-M_alt    "P 1"
_space_group_IT_number       1

loop_
  _space_group_symop_operation_xyz
  'x, y, z'

loop_
  _atom_site_type_symbol
  _atom_site_label
  _atom_site_symmetry_multiplicity
  _atom_site_fract_x
  _atom_site_fract_y
  _atom_site_fract_z
  _atom_site_occupancy
  Ca  Ca1       1.0  0.9081418691919577  0.9479715824463778  0.12387630962104623  1.0000
  Ca  Ca2       1.0  0.5918584977018426  0.5520268613292032  0.6238766165123126  1.0000
  Ca  Ca3       1.0  0.09185741592455801  0.052027853349805794  0.8761236071380837  1.0000
  Ca  Ca4       1.0  0.4081407874146734  0.4479725744669806  0.3761233002468175  1.0000
  Ca  Ca5       1.0  0.5604675855646093  0.5632022216532063  0.12311181662451531  1.0000
  Ca  Ca6       1.0  0.939533277569332  0.9367972715306082  0.6231125112661077  1.0000
  Ca  Ca7       1.0  0.43953219186708026  0.43679826286275153  0.8768881001344085  1.0000
  Ca  Ca8       1.0  0.06046649986060261  0.0632032129850373  0.3768880900419661  1.0000
  H   H1        1.0  0.942818429711316  0.4517066388354605  0.13457647574683312  1.0000
  H   H2        1.0  0.5571808368894721  0.048292701478637005  0.6345761285691439  1.0000
  H   H3        1.0  0.0571808554051998  0.5482927969607232  0.865423441012297  1.0000
  H   H4        1.0  0.44281894054221727  0.9517077830373208  0.36542378818978  1.0000
  H   H5        1.0  0.7978573076171287  0.40673307655344354  0.22337009333183747  1.0000
  H   H6        1.0  0.7021419953090842  0.09326723249746749  0.7233703040302758  1.0000
  H   H7        1.0  0.2021440464421431  0.5932674016788795  0.77662982342639  1.0000
  H   H8        1.0  0.29785728980743187  0.9067322032987161  0.2766296127288541  1.0000
  H   H9        1.0  0.538090418142005  0.06371843242109781  0.1254913129946758  1.0000
  H   H10       1.0  0.96190938742879  0.43628196479627224  0.625491303344596  1.0000
  H   H11       1.0  0.4619093592896918  0.9362820520948605  0.8745086037642482  1.0000
  H   H12       1.0  0.03809039000289981  0.5637185197196858  0.37450861341433495  1.0000
  H   H13       1.0  0.7264776310305693  0.21264145400140685  0.12741960677389133  1.0000
  H   H14       1.0  0.7735221646390613  0.2873589414792477  0.6274190749035711  1.0000
  H   H15       1.0  0.2735221463993724  0.7873590305142385  0.8725809945341825  1.0000
  H   H16       1.0  0.22647761279263534  0.7126415430367103  0.3725808418553528  1.0000
  C   C1        1.0  0.7369268867659642  0.7551876086611105  0.3199579554282437  1.0000
  C   C2        1.0  0.7630729654910694  0.7448117072096706  0.8199581162425105  1.0000
  C   C3        1.0  0.26307082172297663  0.24481183341870857  0.6800419613315825  1.0000
  C   C4        1.0  0.2369263196236844  0.2551877285862076  0.1800424850657621  1.0000
  C   C5        1.0  0.7529398546211183  0.7501561158723717  0.42690163860496716  1.0000
  C   C6        1.0  0.7470594484402113  0.7498431036666416  0.9269018136655376  1.0000
  C   C7        1.0  0.24705785386781542  0.24984332620744712  0.5730982781548591  1.0000
  C   C8        1.0  0.2529414133021248  0.25015632584559466  0.07309878764204572  1.0000
  C   C9        1.0  0.3355434471651933  0.8178687991769847  0.1278565291367926  1.0000
  C   C10       1.0  0.16445865309479052  0.6821309398119766  0.6278547216651803  1.0000
  C   C11       1.0  0.6644579068940787  0.1821316790553311  0.872143387621435  1.0000
  C   C12       1.0  0.8355416166538419  0.3178705934240611  0.3721445105443948  1.0000
  C   C13       1.0  0.13413462386260722  0.6863055616886483  0.11771570521605673  1.0000
  C   C14       1.0  0.3658665438426141  0.813692088995097  0.617714408044229  1.0000
  C   C15       1.0  0.8658646612539018  0.3136938741075355  0.8822842115430731  1.0000
  C   C16       1.0  0.634132741275657  0.18630734680139233  0.3822848241657583  1.0000
  O   O1        1.0  0.842432890593301  0.8690308900862577  0.2815464886895853  1.0000
  O   O2        1.0  0.6575687355500364  0.6309684541010867  0.7815460550950348  1.0000
  O   O3        1.0  0.15756639452321514  0.1309685457099263  0.7184534280695446  1.0000
  O   O4        1.0  0.34243212619229985  0.3690309754111496  0.21845454621254856  1.0000
  O   O5        1.0  0.8712168421095046  0.8601271330311563  0.4657374299937801  1.0000
  O   O6        1.0  0.62878383814288  0.6398720452420293  0.9657377065530995  1.0000
  O   O7        1.0  0.12877928975185426  0.13987231533230468  0.5342624867667426  1.0000
  O   O8        1.0  0.3712186002270316  0.3601273779865721  0.03426289475378751  1.0000
  O   O9        1.0  0.6203811248766229  0.6452401616763764  0.2807223865753841  1.0000
  O   O10       1.0  0.879618928869931  0.8547591895367077  0.7807224474160324  1.0000
  O   O11       1.0  0.37961707592924643  0.354760329123522  0.7192768456350934  1.0000
  O   O12       1.0  0.12038193287416021  0.1452402399758412  0.21927746934240844  1.0000
  O   O13       1.0  0.6468656338544676  0.6369665217230249  0.46557460337609774  1.0000
  O   O14       1.0  0.8531350472345809  0.8630326566969161  0.965574687777391  1.0000
  O   O15       1.0  0.3531336512620413  0.363032914073159  0.5344253133830394  1.0000
  O   O16       1.0  0.14686423788017317  0.13696677909895527  0.03442591353088891  1.0000
  O   O17       1.0  0.29301684504822834  0.9318618011162624  0.1469089211536598  1.0000
  O   O18       1.0  0.20698515736545184  0.5681379207099583  0.6469091269465963  1.0000
  O   O19       1.0  0.7069824400682877  0.0681376346799212  0.8530909956054772  1.0000
  O   O20       1.0  0.7930151123814184  0.431863612525774  0.3530907898121286  1.0000
  O   O21       1.0  0.5250270844855364  0.8016654411273121  0.12085761493132453  1.0000
  O   O22       1.0  0.9749712289720095  0.6983319629320519  0.6208562186388422  1.0000
  O   O23       1.0  0.47497269294791533  0.19833504338895838  0.8791416172784567  1.0000
  O   O24       1.0  0.02502647951692441  0.3016674791477669  0.37914369812098414  1.0000
  O   O25       1.0  0.9451925874352511  0.7049503937817789  0.12120586399189653  1.0000
  O   O26       1.0  0.5548088774863444  0.7950469973961417  0.6212055251564339  1.0000
  O   O27       1.0  0.05480669768126489  0.29504904201440496  0.8787940527672335  1.0000
  O   O28       1.0  0.44519040763017165  0.20495243840004207  0.3787943916027032  1.0000
  O   O29       1.0  0.17547744841371576  0.5698649811041604  0.1096202073174481  1.0000
  O   O30       1.0  0.32452376086128965  0.9301326768711462  0.609620318645078  1.0000
  O   O31       1.0  0.8245234133321377  0.43013444840869414  0.8903790248918427  1.0000
  O   O32       1.0  0.6754771008845637  0.0698667526417154  0.3903789135642129  1.0000
  O   O33       1.0  0.791020208580882  0.396239878871377  0.15630207820426284  1.0000
  O   O34       1.0  0.7089789464511823  0.10375944187298808  0.6563015985911208  1.0000
  O   O35       1.0  0.2089795688490597  0.6037606056442754  0.8436985231038109  1.0000
  O   O36       1.0  0.29102033866533356  0.8962399939231956  0.3436983181680163  1.0000
  O   O37       1.0  0.6955992038860616  0.1119820690243571  0.11225548643451333  1.0000
  O   O38       1.0  0.8044001773401064  0.38801729139562  0.6122556144375509  1.0000
  O   O39       1.0  0.3044000812304545  0.8880173667718264  0.8877444303246167  1.0000
  O   O40       1.0  0.19559910777465472  0.6119821444002513  0.3877449868707218  1.0000
