data_image0
_chemical_formula_structural       CdH26C30N8O6
_chemical_formula_sum              "Cd1 H26 C30 N8 O6"
_cell_length_a       7.625880833943688
_cell_length_b       9.272086915064696
_cell_length_c       11.620749641322568
_cell_angle_alpha    78.16239808692832
_cell_angle_beta     70.5508207537522
_cell_angle_gamma    75.41441661223526

_space_group_name_H-M_alt    "P 1"
_space_group_IT_number       1

loop_
  _space_group_symop_operation_xyz
  'x, y, z'

loop_
  _atom_site_type_symbol
  _atom_site_label
  _atom_site_symmetry_multiplicity
  _atom_site_fract_x
  _atom_site_fract_y
  _atom_site_fract_z
  _atom_site_occupancy
  Cd  Cd1       1.0  0.5000020655185153  1.326514613700468e-06  0.99999930795002  1.0000
  H   H1        1.0  0.9275858702394614  0.4636835197385168  0.0907319349228217  1.0000
  H   H2        1.0  0.07241358716347426  0.5363182709793153  0.9092677126927526  1.0000
  H   H3        1.0  0.9614146911516173  0.24788439118557198  0.2533260845656358  1.0000
  H   H4        1.0  0.03858198604612538  0.7521173817709084  0.746675892405996  1.0000
  H   H5        1.0  0.353215381614632  0.2963169067901816  0.3923871120413692  1.0000
  H   H6        1.0  0.6467810000904991  0.7036859740601429  0.6076130208762507  1.0000
  H   H7        1.0  0.3192131424426562  0.5178844153192089  0.23108189107828278  1.0000
  H   H8        1.0  0.6807835463441521  0.48211733312188454  0.7689175058550362  1.0000
  H   H9        1.0  0.565164505614213  0.23718206552592855  0.7053994575357051  1.0000
  H   H10       1.0  0.4348398429354317  0.7628118978065641  0.2946013089614113  1.0000
  H   H11       1.0  0.4108723164818072  0.2991168365606215  0.6111261419342854  1.0000
  H   H12       1.0  0.5891277434954176  0.7008827138541278  0.38887461375099963  1.0000
  H   H13       1.0  0.6297303881225602  0.35911055098736  0.5642825728926512  1.0000
  H   H14       1.0  0.3702716645315435  0.6408867680049752  0.4357181261843124  1.0000
  H   H15       1.0  0.10174458094659387  0.7916534044870575  0.28607719362343437  1.0000
  H   H16       1.0  0.8982574717075026  0.208343914505285  0.713923505453529  1.0000
  H   H17       1.0  0.16941336730158688  0.7057463260477378  0.08156771763251668  1.0000
  H   H18       1.0  0.8305809820784231  0.29424862581131356  0.9184333374673697  1.0000
  H   H19       1.0  0.9351991509976402  0.8103842450534986  0.9619764135498343  1.0000
  H   H20       1.0  0.06479904615639495  0.18961189854398708  0.038025323551366286  1.0000
  H   H21       1.0  0.5813485631354  0.06882460203020462  0.23150763820014217  1.0000
  H   H22       1.0  0.4186570379370949  0.9311750247662263  0.7684927588368993  1.0000
  H   H23       1.0  0.27625434508646407  0.06997874911755281  0.2588144043705114  1.0000
  H   H24       1.0  0.7237480107862948  0.9300174456373467  0.7411864187349267  1.0000
  H   H25       1.0  0.27680480535499896  0.2089816488177121  0.14132005955033122  1.0000
  H   H26       1.0  0.7231944786829769  0.7910156278978918  0.8586803888443769  1.0000
  C   C1        1.0  0.6043700656633532  0.6377421874177572  0.05215542281057843  1.0000
  C   C2        1.0  0.3956310850608275  0.3622584879433078  0.9478431841554383  1.0000
  C   C3        1.0  0.6204517819502867  0.5045692624235585  0.14994851245172922  1.0000
  C   C4        1.0  0.3795476793156638  0.49543252012247063  0.8500502751510766  1.0000
  C   C5        1.0  0.8011550544648215  0.42829316491655334  0.15629885768419877  1.0000
  C   C6        1.0  0.19884440293811415  0.5717086258012785  0.8437007899313756  1.0000
  C   C7        1.0  0.8213130878974724  0.3081690807042038  0.24792833465818379  1.0000
  C   C8        1.0  0.17868297899993726  0.6918349488989506  0.7520742542692744  1.0000
  C   C9        1.0  0.6596120284982518  0.2618983404120812  0.33159074032279534  1.0000
  C   C10       1.0  0.34038465642553445  0.7381034162008079  0.6684095166232923  1.0000
  C   C11       1.0  0.47755734529993527  0.33633079405039723  0.3274115876023486  1.0000
  C   C12       1.0  0.5224401155630929  0.6636732362616371  0.6725889766343229  1.0000
  C   C13       1.0  0.45950647947110207  0.45879872680743733  0.23669389889295903  1.0000
  C   C14       1.0  0.5404909813919261  0.5412053035045973  0.7633066653437055  1.0000
  C   C15       1.0  0.5602916675348409  0.2632505356791413  0.6099564497349377  1.0000
  C   C16       1.0  0.43970839244237675  0.736749014735608  0.3900443059503473  1.0000
  C   C17       1.0  0.6551071863723978  0.1308270132544678  0.5438934012402896  1.0000
  C   C18       1.0  0.34489288133086377  0.8691725208166903  0.45610563441945123  1.0000
  C   C19       1.0  0.7833792160628333  0.9888852257045287  0.3951333915241407  1.0000
  C   C20       1.0  0.21662639273569784  0.011114384748303502  0.6048652854873566  1.0000
  C   C21       1.0  0.8359615398831791  0.9377003291044163  0.275134576473647  1.0000
  C   C22       1.0  0.16404684912053827  0.062299299109767524  0.7248617711818071  1.0000
  C   C23       1.0  0.0022393766354297743  0.8324405193106728  0.23223116643175254  1.0000
  C   C24       1.0  0.9977629869633658  0.16755565910064268  0.7677679366481414  1.0000
  C   C25       1.0  0.03960263346085203  0.7847051758003334  0.11888051751427038  1.0000
  C   C26       1.0  0.9603974381054311  0.21529435009902903  0.8811176581327017  1.0000
  C   C27       1.0  0.9107590098029164  0.8427677599363508  0.05166839703667841  1.0000
  C   C28       1.0  0.08923858477682955  0.15723062396422452  0.9483322319948116  1.0000
  C   C29       1.0  0.7140968127735903  0.9894355820897544  0.20138556791381032  1.0000
  C   C30       1.0  0.2859087921619263  0.010564036534873403  0.7986139691104626  1.0000
  N   N1        1.0  0.6872737224078592  0.13233261710454514  0.42019225251356573  1.0000
  N   N2        1.0  0.31272664851405807  0.86766579272917  0.5798069071746427  1.0000
  N   N3        1.0  0.7265215165255653  0.9943209667398637  0.5906027567352083  1.0000
  N   N4        1.0  0.2734796303355936  0.005679716792997202  0.409396710243584  1.0000
  N   N5        1.0  0.8068938854706859  0.9046926474792301  0.4978483831278809  1.0000
  N   N6        1.0  0.1931080489187735  0.09531028523738172  0.5021488111031758  1.0000
  N   N7        1.0  0.749625185961598  0.9426588746334373  0.09286509724260125  1.0000
  N   N8        1.0  0.2503734877760451  0.05734065872884031  0.9071359631079404  1.0000
  O   O1        1.0  0.47053957599617735  0.7499771275275365  0.08492751045982061  1.0000
  O   O2        1.0  0.5294609682906922  0.25002579630840677  0.9150708484492611  1.0000
  O   O3        1.0  0.7269103350026711  0.6295939812308687  0.9472820306850237  1.0000
  O   O4        1.0  0.2730884763147117  0.3703998975481468  0.05271823444756761  1.0000
  O   O5        1.0  0.2748730546423488  0.09868129301303702  0.1706880899910246  1.0000
  O   O6        1.0  0.7251262255326054  0.9013159918743628  0.829313218416452  1.0000
