data_image0
_chemical_formula_structural       Li6H34C44N2O18
_chemical_formula_sum              "Li6 H34 C44 N2 O18"
_cell_length_a       9.746126005530206
_cell_length_b       10.83335118791354
_cell_length_c       11.50239271854899
_cell_angle_alpha    116.1263207948108
_cell_angle_beta     92.87052694736136
_cell_angle_gamma    110.60825801491795

_space_group_name_H-M_alt    "P 1"
_space_group_IT_number       1

loop_
  _space_group_symop_operation_xyz
  'x, y, z'

loop_
  _atom_site_type_symbol
  _atom_site_label
  _atom_site_symmetry_multiplicity
  _atom_site_fract_x
  _atom_site_fract_y
  _atom_site_fract_z
  _atom_site_occupancy
  Li  Li1       1.0  0.9310730283817037  0.455309936263781  0.6629044881151813  1.0000
  Li  Li2       1.0  0.06892186635175088  0.5446968780525695  0.3370937752108604  1.0000
  Li  Li3       1.0  0.7655389907912139  0.22958705966430415  0.7947060712532094  1.0000
  Li  Li4       1.0  0.23447233962019712  0.770407359574456  0.20529556366327747  1.0000
  Li  Li5       1.0  0.7148784195911305  0.1788522013195505  0.5042054899749219  1.0000
  Li  Li6       1.0  0.2851171161871023  0.8211512096736158  0.4957966002874912  1.0000
  H   H1        1.0  0.7970525917161453  0.6522415639141314  0.6134544147766476  1.0000
  H   H2        1.0  0.20294707657467373  0.34776188600294944  0.3865400451932217  1.0000
  H   H3        1.0  0.6404796662504281  0.7985755777713733  0.6731099388203816  1.0000
  H   H4        1.0  0.3595203839971434  0.2014312706430488  0.32688334442573114  1.0000
  H   H5        1.0  0.504267634234168  0.3083283418398395  0.06773354440972676  1.0000
  H   H6        1.0  0.4957365868093576  0.6916637939972291  0.9322668335991509  1.0000
  H   H7        1.0  0.31529463814125347  0.4194445449166438  0.12373398465047818  1.0000
  H   H8        1.0  0.6847095751867587  0.5805475798295063  0.8762698659570703  1.0000
  H   H9        1.0  0.9993983982878094  0.84939155998471  0.2549652313143725  1.0000
  H   H10       1.0  0.0005950818429667091  0.1506118467965081  0.7450358992711443  1.0000
  H   H11       1.0  0.8522459651922462  0.005673192127829902  0.3163129833883218  1.0000
  H   H12       1.0  0.1477566780249975  0.9943324994942914  0.683691231931377  1.0000
  H   H13       1.0  0.4796641384138384  0.17635821415088063  0.5995294777371855  1.0000
  H   H14       1.0  0.5203295472332102  0.8236407052197167  0.40046023007738546  1.0000
  H   H15       1.0  0.1868528388494894  0.4644698098970537  0.7287022160249563  1.0000
  H   H16       1.0  0.813150094317834  0.5355291242682086  0.27129311256017985  1.0000
  H   H17       1.0  0.8130282301239619  0.9186884290484728  0.010373591782091365  1.0000
  H   H18       1.0  0.186971010059672  0.0812991409162436  0.9896342339304597  1.0000
  H   H19       1.0  0.7372378777147404  0.0400669966759395  0.12101640666099911  1.0000
  H   H20       1.0  0.2627571648112907  0.9599228321383962  0.8789878318110385  1.0000
  H   H21       1.0  0.9359667826297271  0.10196371093685741  0.14739181102022061  1.0000
  H   H22       1.0  0.06402771292970769  0.8980272650180726  0.8526067958034745  1.0000
  H   H23       1.0  0.18455212771102236  0.6543649152358242  0.6904642642760238  1.0000
  H   H24       1.0  0.8154506172999234  0.3456385312946182  0.30953467373304033  1.0000
  H   H25       1.0  0.06572629680144372  0.661897287956215  0.6000598667838518  1.0000
  H   H26       1.0  0.9342753234142621  0.3381084084917562  0.3999416983232251  1.0000
  H   H27       1.0  0.886173346905224  0.4854767506473863  0.8990237838518665  1.0000
  H   H28       1.0  0.11382975127193629  0.5145176378799406  0.10097835310536145  1.0000
  H   H29       1.0  0.02205932472293888  0.44175179009639726  0.8640086311911974  1.0000
  H   H30       1.0  0.9779465047236401  0.5582516641383324  0.13599131225838346  1.0000
  H   H31       1.0  0.5956815931019435  0.145222909163472  0.2982803662495854  1.0000
  H   H32       1.0  0.4043129906064138  0.8547782172001915  0.7017276868842686  1.0000
  H   H33       1.0  0.5272616707645954  0.9716179187145644  0.2685654339422926  1.0000
  H   H34       1.0  0.4727299303018242  0.028380954853148007  0.7314363364404031  1.0000
  C   C1        1.0  0.4843639535624008  0.3939571299917688  0.631157558910175  1.0000
  C   C2        1.0  0.5156389948933083  0.6060542412648504  0.3688394710507198  1.0000
  C   C3        1.0  0.6322697146590742  0.4529445102197728  0.6096609441187227  1.0000
  C   C4        1.0  0.3677287482604684  0.5470634652065343  0.39033187061345137  1.0000
  C   C5        1.0  0.6845246295645849  0.603744109379484  0.6270616337013379  1.0000
  C   C6        1.0  0.3154789637936659  0.396263864099403  0.3729374868965962  1.0000
  C   C7        1.0  0.5980253640869082  0.6845418798860552  0.6599770861729655  1.0000
  C   C8        1.0  0.40197504111313265  0.31546832820749426  0.3400271744447565  1.0000
  C   C9        1.0  0.44972415942784494  0.6252187655308887  0.6820332592413153  1.0000
  C   C10       1.0  0.5502808311731897  0.3747925905285712  0.31797080744416223  1.0000
  C   C11       1.0  0.39927895078034237  0.4764436271516956  0.6681450540728804  1.0000
  C   C12       1.0  0.6007280052477172  0.5235699948477617  0.33186004070212505  1.0000
  C   C13       1.0  0.3944301949882458  0.2892391798782157  0.7706154108102865  1.0000
  C   C14       1.0  0.6055831238540892  0.7107699534828102  0.22938548097283026  1.0000
  C   C15       1.0  0.47999326330617026  0.2756221495543087  0.8667961573696132  1.0000
  C   C16       1.0  0.5200188368053773  0.7243790749973158  0.13320051965037305  1.0000
  C   C17       1.0  0.4461197285548907  0.325192119990497  0.99630908270656  1.0000
  C   C18       1.0  0.5538860913899342  0.6747989054710645  0.0036865549182536475  1.0000
  C   C19       1.0  0.34225232695388297  0.38600930950165246  0.02658177579996136  1.0000
  C   C20       1.0  0.6577524487717455  0.6139816902857406  0.9734207612585807  1.0000
  C   C21       1.0  0.266143768703195  0.41026158634599613  0.9334649192286975  1.0000
  C   C22       1.0  0.7338584888421735  0.5897282863238118  0.06653356254098246  1.0000
  C   C23       1.0  0.3025877571359105  0.3640437337672823  0.8052053874496466  1.0000
  C   C24       1.0  0.6974154484789495  0.6359608328960746  0.1947975143210456  1.0000
  C   C25       1.0  0.25447739628346977  0.1612461509083616  0.537434280409677  1.0000
  C   C26       1.0  0.7455229053366283  0.83875388459461  0.4625674790952419  1.0000
  C   C27       1.0  0.19313050773575918  0.010412740722287601  0.4239849017249854  1.0000
  C   C28       1.0  0.8068685942996937  0.9895918286080987  0.5760126080932297  1.0000
  C   C29       1.0  0.0453899046837379  0.9603030112852765  0.34406662379876707  1.0000
  C   C30       1.0  0.9546086330252095  0.039702680231137294  0.6559330677181237  1.0000
  C   C31       1.0  0.9643516618235639  0.0465669715384891  0.37721278406851166  1.0000
  C   C32       1.0  0.03564696803469782  0.9534364610226053  0.6227859708860778  1.0000
  C   C33       1.0  0.02100147825341742  0.19227467843612803  0.4954292828031939  1.0000
  C   C34       1.0  0.9789975219883261  0.8077321359859297  0.5045735043256557  1.0000
  C   C35       1.0  0.17082026136447578  0.24538455522858973  0.572668959608187  1.0000
  C   C36       1.0  0.8291822897034536  0.7546233953488511  0.42733619227381353  1.0000
  C   C37       1.0  0.4128888455833035  0.24276845634514646  0.6286255600615577  1.0000
  C   C38       1.0  0.5871128822127433  0.7572350033293347  0.37136812328587615  1.0000
  C   C39       1.0  0.2530474617967259  0.3977490899436305  0.6984233699118506  1.0000
  C   C40       1.0  0.7469587515354804  0.60225776556117  0.30157452866430395  1.0000
  C   C41       1.0  0.8294957828201602  0.03692449781745921  0.07011162324773322  1.0000
  C   C42       1.0  0.17049532885180713  0.9630607991168816  0.9298905590452408  1.0000
  C   C43       1.0  0.8311861088990895  0.10395943380959241  0.9856487719429411  1.0000
  C   C44       1.0  0.16880116792588515  0.8960190778348861  0.014348681309343275  1.0000
  N   N1        1.0  0.8319806773548848  0.1567217800208383  0.9167339143185205  1.0000
  N   N2        1.0  0.16800360139712472  0.8432544566458446  0.08326420137996142  1.0000
  O   O1        1.0  0.7167482022603479  0.3804703360484254  0.584926537186398  1.0000
  O   O2        1.0  0.2832492145111162  0.619537610930969  0.4150740451291739  1.0000
  O   O3        1.0  0.37275743334301853  0.7048128318146922  0.7195501873273856  1.0000
  O   O4        1.0  0.6272368050572652  0.2951849487334925  0.28044254768651916  1.0000
  O   O5        1.0  0.5783700262550298  0.22053680359938713  0.8383391883881118  1.0000
  O   O6        1.0  0.4216424403822503  0.7794677972677493  0.16166325710546686  1.0000
  O   O7        1.0  0.1669986531872355  0.4648632022775134  0.9616552239728267  1.0000
  O   O8        1.0  0.8329976082122174  0.5351221204366965  0.03834458268923417  1.0000
  O   O9        1.0  0.26498903951026886  0.924949165753226  0.3933493574167528  1.0000
  O   O10       1.0  0.7350093101849354  0.07504862321885501  0.6066452969509513  1.0000
  O   O11       1.0  0.9433229802251831  0.27258509434347644  0.526143306618856  1.0000
  O   O12       1.0  0.05667509109321864  0.7274194687218412  0.4738550255854151  1.0000
  O   O13       1.0  0.07536952669227055  0.6335586346224319  0.6694666225340599  1.0000
  O   O14       1.0  0.924630688565145  0.36644366815405494  0.33053346908415193  1.0000
  O   O15       1.0  0.9217239372432289  0.4277736608348733  0.8200988158697414  1.0000
  O   O16       1.0  0.07827982691149772  0.572229775324267  0.17990450865127633  1.0000
  O   O17       1.0  0.6093839350576927  0.07332002610447572  0.3252626106241792  1.0000
  O   O18       1.0  0.3905994222012197  0.9266788001154252  0.6747448706972534  1.0000
