data_image0
_chemical_formula_structural       Cu6H32C48N52
_chemical_formula_sum              "Cu6 H32 C48 N52"
_cell_length_a       13.301688241613023
_cell_length_b       14.560373355005265
_cell_length_c       15.730516280614443
_cell_angle_alpha    90.00005337823121
_cell_angle_beta     92.89245478041086
_cell_angle_gamma    90.00007872065449

_space_group_name_H-M_alt    "P 1"
_space_group_IT_number       1

loop_
  _space_group_symop_operation_xyz
  'x, y, z'

loop_
  _atom_site_type_symbol
  _atom_site_label
  _atom_site_symmetry_multiplicity
  _atom_site_fract_x
  _atom_site_fract_y
  _atom_site_fract_z
  _atom_site_occupancy
  Cu  Cu1       1.0  0.529495827507887  0.197981714826355  0.3886319557107285  1.0000
  Cu  Cu2       1.0  0.9705030050124251  0.6979827668132901  0.11136845008552139  1.0000
  Cu  Cu3       1.0  0.47050541891420045  0.8020184987672111  0.6113667771082945  1.0000
  Cu  Cu4       1.0  0.029492978218776503  0.3020188203699377  0.8886338783100598  1.0000
  Cu  Cu5       1.0  0.499999886133118  0.9999989613937361  0.50000082308717  1.0000
  Cu  Cu6       1.0  0.9999985991593049  0.4999986118130835  0.9999990426538689  1.0000
  H   H1        1.0  0.8514866142633223  0.8696588972972993  0.06267308403477048  1.0000
  H   H2        1.0  0.7331309698818629  0.9747928393423851  0.1348773140155046  1.0000
  H   H3        1.0  0.732787779779713  0.7799009626757397  0.3415073571053782  1.0000
  H   H4        1.0  0.8528710408677257  0.6835964620812122  0.2622460830984892  1.0000
  H   H5        1.0  0.05750375910049141  0.8781802110839934  0.166553982979643  1.0000
  H   H6        1.0  0.18511105538249245  0.9338547435606729  0.2775452725087106  1.0000
  H   H7        1.0  0.20834405527317304  0.6552087903815718  0.3696982192210996  1.0000
  H   H8        1.0  0.0830203453658243  0.6098725897376269  0.2519552393537339  1.0000
  H   H9        1.0  0.6485132388383974  0.36965804365919314  0.4373275124137308  1.0000
  H   H10       1.0  0.766869048244523  0.4747920614638873  0.3651240157848292  1.0000
  H   H11       1.0  0.7672119342886035  0.2799006639224402  0.1584937917645135  1.0000
  H   H12       1.0  0.6471277692090213  0.18359677930336454  0.2377543093426553  1.0000
  H   H13       1.0  0.44249858423975763  0.3781809952199993  0.3334464171796441  1.0000
  H   H14       1.0  0.3148906190718748  0.4338552558306433  0.2224532408149287  1.0000
  H   H15       1.0  0.29165342374477643  0.15520918069503867  0.1303017862942255  1.0000
  H   H16       1.0  0.4169778136604735  0.10987119546380342  0.2480434838480434  1.0000
  H   H17       1.0  0.14851087244993272  0.13034131629510887  0.9373280354101328  1.0000
  H   H18       1.0  0.2668687750602388  0.0252087478426475  0.8651238992525806  1.0000
  H   H19       1.0  0.2672127199065173  0.22009993771483494  0.6584951589349544  1.0000
  H   H20       1.0  0.14712795133071674  0.3164037515121763  0.7377550988947732  1.0000
  H   H21       1.0  0.9424982430667515  0.12181931571544881  0.8334466883608229  1.0000
  H   H22       1.0  0.8148886875570086  0.06614615682813252  0.7224546692606566  1.0000
  H   H23       1.0  0.7916556916704566  0.3447921100085196  0.6303042655450568  1.0000
  H   H24       1.0  0.9169801533188251  0.3901276238570547  0.7480466409370906  1.0000
  H   H25       1.0  0.35148876132731743  0.6303421699351831  0.5626718874286638  1.0000
  H   H26       1.0  0.23313144743649866  0.525207465334262  0.6348759572580889  1.0000
  H   H27       1.0  0.23278705290414345  0.720098862873769  0.8415042114824516  1.0000
  H   H28       1.0  0.3528704672437329  0.8164034342885745  0.7622449341288444  1.0000
  H   H29       1.0  0.5575034159264903  0.6218199051699501  0.6665529826630703  1.0000
  H   H30       1.0  0.6851121318359717  0.5661470181503105  0.7775449188042103  1.0000
  H   H31       1.0  0.7083448107075229  0.8447930932829808  0.8696961856798425  1.0000
  H   H32       1.0  0.5830211725301739  0.8901269577409325  0.7519538836490938  1.0000
  C   C1        1.0  0.8247358660358729  0.8534587780088926  0.1252862661190051  1.0000
  C   C2        1.0  0.7581535071966529  0.9108597568772229  0.1650246770639185  1.0000
  C   C3        1.0  0.7235493113233745  0.8853054853993143  0.2444718592056319  1.0000
  C   C4        1.0  0.7577892868810353  0.8018179677244676  0.2798589766201403  1.0000
  C   C5        1.0  0.8250510672479691  0.7489258004669639  0.23660663275365582  1.0000
  C   C6        1.0  0.6564498741005096  0.9429914877248964  0.2913945329410694  1.0000
  C   C7        1.0  0.09387801607072531  0.830884766370403  0.212213189100126  1.0000
  C   C8        1.0  0.16417047768594273  0.8616148227222242  0.2738228035760599  1.0000
  C   C9        1.0  0.20786993541863547  0.7982765310109486  0.3319118295949721  1.0000
  C   C10       1.0  0.17695845472166385  0.7062974108474125  0.32534732390853094  1.0000
  C   C11       1.0  0.10745423161409921  0.6808185925697219  0.2609739828697997  1.0000
  C   C12       1.0  0.28435685947891204  0.8269194206327769  0.39578319044373705  1.0000
  C   C13       1.0  0.6752632090498595  0.3534592684614566  0.37471428401632784  1.0000
  C   C14       1.0  0.7418471649293396  0.410859604042308  0.3349772604068876  1.0000
  C   C15       1.0  0.7764498154491835  0.3853052959617642  0.2555299919931215  1.0000
  C   C16       1.0  0.7422097086382847  0.3018176996934302  0.22014216132254918  1.0000
  C   C17       1.0  0.6749470920090914  0.24892617841083362  0.2633937890627678  1.0000
  C   C18       1.0  0.8435508471533525  0.4429899616166112  0.208606798609857  1.0000
  C   C19       1.0  0.40612124551363143  0.3308840852985072  0.2877889493019481  1.0000
  C   C20       1.0  0.3358318408103003  0.3616146782172224  0.2261782169532793  1.0000
  C   C21       1.0  0.2921292722895715  0.29827627318012173  0.1680883712873893  1.0000
  C   C22       1.0  0.3230421139710415  0.20629788520238895  0.1746522183832084  1.0000
  C   C23       1.0  0.39255005503445534  0.18081853215419133  0.23902187764379332  1.0000
  C   C24       1.0  0.2156423929171396  0.32692037611430186  0.10421703703022442  1.0000
  C   C25       1.0  0.17526161967581536  0.14654074878762202  0.8747142175763898  1.0000
  C   C26       1.0  0.241846237744916  0.08914114351222932  0.8349765362038468  1.0000
  C   C27       1.0  0.27644892613094646  0.11469541498851751  0.7555280200153832  1.0000
  C   C28       1.0  0.24220970531793995  0.1981829326644942  0.7201422053734419  1.0000
  C   C29       1.0  0.17494641946528594  0.25107441312544415  0.7633944866912543  1.0000
  C   C30       1.0  0.34354911809899863  0.05701009945963881  0.7086066490528327  1.0000
  C   C31       1.0  0.9061254895796368  0.16911476042937323  0.7877862732903083  1.0000
  C   C32       1.0  0.8358300179961519  0.13838607766707162  0.7261771694674906  1.0000
  C   C33       1.0  0.7921298095229333  0.20172436937850347  0.6680893836727861  1.0000
  C   C34       1.0  0.8230427957045521  0.2937028027474399  0.6746539519072741  1.0000
  C   C35       1.0  0.8925485232957373  0.3191809342302108  0.7390267197448495  1.0000
  C   C36       1.0  0.7156466451698834  0.17307941937109925  0.6042156361971892  1.0000
  C   C37       1.0  0.3247372856312084  0.6465416319275192  0.6252850532780272  1.0000
  C   C38       1.0  0.25815483723843613  0.5891406095527144  0.6650234109338982  1.0000
  C   C39       1.0  0.22355068323600596  0.6146956044284976  0.7444718882980155  1.0000
  C   C40       1.0  0.25779003430121616  0.6981832006953824  0.7798577804468181  1.0000
  C   C41       1.0  0.32505264892781593  0.751074035181759  0.7366048812078958  1.0000
  C   C42       1.0  0.15645040127026993  0.5570095651820284  0.7913932057072373  1.0000
  C   C43       1.0  0.5938747377159644  0.6691154414979935  0.7122133790926739  1.0000
  C   C44       1.0  0.6641701593564805  0.6383869089683075  0.7738211828897548  1.0000
  C   C45       1.0  0.7078704646442802  0.7017253140023384  0.8319077559871316  1.0000
  C   C46       1.0  0.6769576259664375  0.793704388776611  0.8253458161392191  1.0000
  C   C47       1.0  0.6074496828988175  0.8191809946418687  0.7609748853789641  1.0000
  C   C48       1.0  0.7843520818252544  0.6730805242714126  0.895783321569084  1.0000
  N   N1        1.0  0.8585721215738787  0.7741641469807092  0.16049577797297587  1.0000
  N   N2        1.0  0.6301810329127022  0.0303438470292576  0.2709123945346192  1.0000
  N   N3        1.0  0.5737687462535703  0.05784313796360151  0.3334076436446339  1.0000
  N   N4        1.0  0.566199393135669  0.9885583061747455  0.3887058988181806  1.0000
  N   N5        1.0  0.61683664520087  0.9159901317433848  0.36471770929519925  1.0000
  N   N6        1.0  0.066432625113805  0.7420305679884862  0.20512901157559332  1.0000
  N   N7        1.0  0.33065579544182094  0.9096680145900751  0.39575200614388  1.0000
  N   N8        1.0  0.3950944016797423  0.9060060943887296  0.46205784386847887  1.0000
  N   N9        1.0  0.3885244208870446  0.8249594246205233  0.5014739789810747  1.0000
  N   N10       1.0  0.3195464403579038  0.773520432786441  0.4610848530144196  1.0000
  N   N11       1.0  0.41762115826995233  0.13098132937584953  0.442459436513083  1.0000
  N   N12       1.0  0.32975163452275075  0.15271903881994578  0.4380814832553952  1.0000
  N   N13       1.0  0.24429278643643934  0.1710887051725365  0.4354895814019032  1.0000
  N   N14       1.0  0.6414260760580461  0.2741652463202159  0.3395040315249602  1.0000
  N   N15       1.0  0.8698205510400289  0.5303428308795263  0.2290892522267711  1.0000
  N   N16       1.0  0.9262336333450137  0.5578428164391981  0.1665940599206124  1.0000
  N   N17       1.0  0.9338014002103493  0.4885574820777876  0.11129611078487052  1.0000
  N   N18       1.0  0.8831632811850414  0.415989268279951  0.13528356591475443  1.0000
  N   N19       1.0  0.433568753069288  0.24202855489067338  0.2948712309117526  1.0000
  N   N20       1.0  0.16934208357088212  0.40966822522548807  0.104250142849807  1.0000
  N   N21       1.0  0.10490422236080121  0.40600684420353156  0.03794306150165031  1.0000
  N   N22       1.0  0.11147325829405469  0.3249606465381802  0.998526030711858  1.0000
  N   N23       1.0  0.18045197498511814  0.2735219651508843  0.0389146578627191  1.0000
  N   N24       1.0  0.08238155414954922  0.6309811534560696  0.0575420369277211  1.0000
  N   N25       1.0  0.17024885157924532  0.6527169171528586  0.0619186450440878  1.0000
  N   N26       1.0  0.25571073929524607  0.6710866933259751  0.0645106890480918  1.0000
  N   N27       1.0  0.14142461239731574  0.22583675340678872  0.8395053101980707  1.0000
  N   N28       1.0  0.3698187120293995  0.9696577401557678  0.729088818733466  1.0000
  N   N29       1.0  0.42623099868692554  0.9421563888346967  0.6665935696224922  1.0000
  N   N30       1.0  0.43380035180482696  0.011441220623552802  0.6112953144489452  1.0000
  N   N31       1.0  0.3831638514822587  0.0840107686462304  0.6352828994975468  1.0000
  N   N32       1.0  0.9335701287955372  0.2579696456066998  0.7948710552901801  1.0000
  N   N33       1.0  0.6693469584669814  0.09033151220953071  0.6042480607215737  1.0000
  N   N34       1.0  0.6049091039695472  0.09399205881989302  0.5379416185213232  1.0000
  N   N35       1.0  0.6114798355022373  0.17503804179237656  0.49852424318419253  1.0000
  N   N36       1.0  0.6804570622882907  0.22647772042122238  0.5389127021277957  1.0000
  N   N37       1.0  0.5823778289227945  0.8690181974203527  0.5575385667338891  1.0000
  N   N38       1.0  0.6702526248696329  0.8472784275939135  0.5619186461574587  1.0000
  N   N39       1.0  0.7557047022788764  0.8289115084205179  0.564512809541391  1.0000
  N   N40       1.0  0.3585736638794331  0.725837027658777  0.66049400299746  1.0000
  N   N41       1.0  0.13017994464100013  0.4696566959186228  0.7709107208161472  1.0000
  N   N42       1.0  0.073766862335475  0.44215602356337785  0.8334059131219861  1.0000
  N   N43       1.0  0.06619758998495232  0.5114413579238075  0.8887037997093684  1.0000
  N   N44       1.0  0.11683495726924063  0.5840102585170542  0.8647169490548166  1.0000
  N   N45       1.0  0.5664309878665464  0.7579702851107728  0.7051274393582718  1.0000
  N   N46       1.0  0.8306531429130718  0.590332675160397  0.8957496112744893  1.0000
  N   N47       1.0  0.8950902523799799  0.5939919957954559  0.9620572970967061  1.0000
  N   N48       1.0  0.8885204667067016  0.6750375066657031  0.0014762038595818924  1.0000
  N   N49       1.0  0.8195425027587576  0.7264768748490696  0.9610876079832167  1.0000
  N   N50       1.0  0.9176227092485618  0.36901837334579574  0.942460635482874  1.0000
  N   N51       1.0  0.829746372898356  0.34727848886777213  0.9380798375792666  1.0000
  N   N52       1.0  0.7442965240597489  0.3289100862920194  0.9354851152167996  1.0000
