data_image0
_chemical_formula_structural       Zn2H22C25N2O8
_chemical_formula_sum              "Zn2 H22 C25 N2 O8"
_cell_length_a       9.908060216061273
_cell_length_b       11.07197617736166
_cell_length_c       11.0371381198956
_cell_angle_alpha    95.61867054776958
_cell_angle_beta     92.43033627012859
_cell_angle_gamma    84.96984352928554

_space_group_name_H-M_alt    "P 1"
_space_group_IT_number       1

loop_
  _space_group_symop_operation_xyz
  'x, y, z'

loop_
  _atom_site_type_symbol
  _atom_site_label
  _atom_site_symmetry_multiplicity
  _atom_site_fract_x
  _atom_site_fract_y
  _atom_site_fract_z
  _atom_site_occupancy
  Zn  Zn1       1.0  0.6472233943468167  0.4894984220852122  0.5147788645918966  1.0000
  Zn  Zn2       1.0  0.35618061364374404  0.4957406197147166  0.5022197577700425  1.0000
  H   H1        1.0  0.30818639328099096  0.10632381576426304  0.40237486197697353  1.0000
  H   H2        1.0  0.8425026811408145  0.465485017773581  0.8966660671190215  1.0000
  H   H3        1.0  0.8241566522221646  0.2442516256098202  0.5120225059463976  1.0000
  H   H4        1.0  0.9775713090694325  0.21078949816760686  0.5998709218276517  1.0000
  H   H5        1.0  0.835124636089567  0.3012784597158245  0.6658208131732907  1.0000
  H   H6        1.0  0.9203919568713488  0.7868374443356602  0.6850096543402345  1.0000
  H   H7        1.0  0.8517649586428746  0.9027322683242718  0.5938016450043407  1.0000
  H   H8        1.0  0.7468310417878001  0.7898736667727493  0.6325158069197414  1.0000
  H   H9        1.0  0.1061928404621995  0.7844912513416489  0.5283418595734659  1.0000
  H   H10       1.0  0.21868460554789954  0.9061245885235394  0.3132000832428403  1.0000
  H   H11       1.0  0.37072657897881806  0.8756068696493459  0.2342771584344377  1.0000
  H   H12       1.0  0.1589175305881554  0.31765724708724724  0.5477042997057853  1.0000
  H   H13       1.0  0.31854224605692855  0.7650648622218271  0.32609584653618384  1.0000
  H   H14       1.0  0.303185595564841  0.45738646758494644  0.8926453932068201  1.0000
  H   H15       1.0  0.8516211233899896  0.48154372355953984  0.12661237481415105  1.0000
  H   H16       1.0  0.8210011414375558  0.7452483602259296  0.4157157859672439  1.0000
  H   H17       1.0  0.0697624276056032  0.7369818890669677  0.3720145540445331  1.0000
  H   H18       1.0  0.6100690771370835  0.0755354055847874  0.4798459437337003  1.0000
  H   H19       1.0  0.5197960261610318  0.9156704984058379  0.5882171248071801  1.0000
  H   H20       1.0  0.3118591494643397  0.4662908570771905  0.11943829579868043  1.0000
  H   H21       1.0  0.7990308817912464  0.6401795543821509  0.12999147307760953  1.0000
  H   H22       1.0  0.7922078754914139  0.6243634868537384  0.9003509116454114  1.0000
  C   C1        1.0  0.5105008124693454  0.4838378688983767  0.7427623808240897  1.0000
  C   C2        1.0  0.0889057935881752  0.3974533258521759  0.5354133244255408  1.0000
  C   C3        1.0  0.9490223464117162  0.393406429535581  0.5489926672756483  1.0000
  C   C4        1.0  0.4664845027437464  0.7307166123405154  0.5269857941450411  1.0000
  C   C5        1.0  0.9192293409985692  0.591200650417882  0.509257999810771  1.0000
  C   C6        1.0  0.890277163347619  0.7261649253651613  0.49318820999685203  1.0000
  C   C7        1.0  0.0473611612585429  0.7240161453712022  0.46626489327376675  1.0000
  C   C8        1.0  0.523336137915024  0.5053600753565207  0.27615055113420794  1.0000
  C   C9        1.0  0.49756317770918207  0.2550485805790572  0.47113408468701584  1.0000
  C   C10       1.0  0.4027545693286499  0.05528622357536511  0.4293891559938174  1.0000
  C   C11       1.0  0.5095930192166804  0.12002723082369468  0.46143565329661135  1.0000
  C   C12       1.0  0.5126691682469157  0.49050822576564473  0.8782952544159247  1.0000
  C   C13       1.0  0.399842860291038  0.923091610430163  0.42608254454780353  1.0000
  C   C14       1.0  0.4632047274246959  0.8638924560181639  0.5168543324898495  1.0000
  C   C15       1.0  0.6296416813719717  0.5137067694509909  0.9480722547424281  1.0000
  C   C16       1.0  0.8947988060419975  0.2803210189938312  0.5833765701129039  1.0000
  C   C17       1.0  0.8493833951141952  0.8062106022449032  0.6085949084311295  1.0000
  C   C18       1.0  0.32279920601261836  0.8627362206953181  0.3198035497826767  1.0000
  C   C19       1.0  0.3972273682068561  0.4748228133204577  0.9438183803570581  1.0000
  C   C20       1.0  0.4017902632316818  0.48051177721063004  0.07075741876365531  1.0000
  C   C21       1.0  0.5212576369739353  0.5033456478382236  0.14074609198461732  1.0000
  C   C22       1.0  0.6340161189646737  0.5209243447798997  0.07523945366109791  1.0000
  C   C23       1.0  0.7814336089592897  0.5494927943918171  0.0852118507186646  1.0000
  C   C24       1.0  0.7764006543880413  0.5402073460669429  0.9411339549199553  1.0000
  C   C25       1.0  0.0579059325305877  0.5928609049820891  0.4938238435792429  1.0000
  N   N1        1.0  0.14608956701402318  0.49686904904058343  0.5053826199914512  1.0000
  N   N2        1.0  0.8601265319316695  0.4930039247513491  0.5325645855957291  1.0000
  O   O1        1.0  0.6264205410373832  0.47517330278135017  0.6945249429651952  1.0000
  O   O2        1.0  0.39592750845879005  0.4880558794878881  0.6860400159449115  1.0000
  O   O3        1.0  0.5833196152467721  0.675364987812337  0.5423275618168404  1.0000
  O   O4        1.0  0.3541183647680981  0.6824466215324138  0.520789317622601  1.0000
  O   O5        1.0  0.6388912289381139  0.5082654502109066  0.3320445547053552  1.0000
  O   O6        1.0  0.4095993688092463  0.503412541177859  0.3253559574555284  1.0000
  O   O7        1.0  0.608085223065153  0.3068701758471946  0.47513797622702475  1.0000
  O   O8        1.0  0.37869626089717906  0.30959613645072886  0.4759609610891644  1.0000
