data_image0
_chemical_formula_structural       Sr4H32C44N8O20
_chemical_formula_sum              "Sr4 H32 C44 N8 O20"
_cell_length_a       6.607090599
_cell_length_b       12.597286742489976
_cell_length_c       14.03
_cell_angle_alpha    103.63731880570951
_cell_angle_beta     90.0
_cell_angle_gamma    90.0

_space_group_name_H-M_alt    "P 1"
_space_group_IT_number       1

loop_
  _space_group_symop_operation_xyz
  'x, y, z'

loop_
  _atom_site_type_symbol
  _atom_site_label
  _atom_site_symmetry_multiplicity
  _atom_site_fract_x
  _atom_site_fract_y
  _atom_site_fract_z
  _atom_site_occupancy
  Sr  Sr1       1.0  0.0660956579081997  0.1621473112912994  0.46944890286840035  1.0000
  Sr  Sr2       1.0  0.5660933422898893  0.3378510765313507  0.530555281852088  1.0000
  Sr  Sr3       1.0  0.9339042514316205  0.8378510980553672  0.5305526848406217  1.0000
  Sr  Sr4       1.0  0.43390505352445524  0.6621481496659954  0.469446478782821  1.0000
  H   H1        1.0  0.043059800034079394  0.1782645921338428  0.2566791502666206  1.0000
  H   H2        1.0  0.5430605114667344  0.3217346125394869  0.7433209308295118  1.0000
  H   H3        1.0  0.9569401093057408  0.8217338172128167  0.7433202991672729  1.0000
  H   H4        1.0  0.4569409113985755  0.6782637968071796  0.2566792313627602  1.0000
  H   H5        1.0  0.855261467256895  0.0043922061269299  0.2755313905921  1.0000
  H   H6        1.0  0.3552607558242471  0.4956069985464069  0.7244715415375397  1.0000
  H   H7        1.0  0.1447339015064699  0.995609470622469  0.7244701760621197  1.0000
  H   H8        1.0  0.6447391535155802  0.504390593949573  0.27552916048721704  1.0000
  H   H9        1.0  0.025518039668703797  0.9193221515586956  0.14151415139291154  1.0000
  H   H10       1.0  0.5255202646268415  0.5806803635653992  0.8584857039341003  1.0000
  H   H11       1.0  0.9744773290946682  0.0806819757427562  0.8584872212806047  1.0000
  H   H12       1.0  0.47447964471297865  0.4193180457812602  0.1415123199830504  1.0000
  H   H13       1.0  0.288458281514778  0.8037876076891877  0.04144770319765462  1.0000
  H   H14       1.0  0.788458992947433  0.6962149074349142  0.9585535776461143  1.0000
  H   H15       1.0  0.7115416278250422  0.19622223756704932  0.958554879957113  1.0000
  H   H16       1.0  0.2115409163923871  0.303781868210379  0.04144481317762681  1.0000
  H   H17       1.0  0.2807771396809358  0.6023979726962523  0.01832277145049231  1.0000
  H   H18       1.0  0.7807702834861628  0.8976061761292087  0.9816795680034289  1.0000
  H   H19       1.0  0.7192363913882502  0.3976094220079318  0.9816792929266002  1.0000
  H   H20       1.0  0.21922659880269177  0.1023922332174507  0.018319881430464608  1.0000
  H   H21       1.0  0.0026638048527232  0.5156173897480656  0.09436344482966769  1.0000
  H   H22       1.0  0.5026584621834402  0.9843843085253496  0.90563623757145  1.0000
  H   H23       1.0  0.9973482126909728  0.4843875544040728  0.9056381007697425  1.0000
  H   H24       1.0  0.4973384201054145  0.0156132839706302  0.0943630389365495  1.0000
  H   H25       1.0  0.7372019388892923  0.6305736033334242  0.19216134602622506  1.0000
  H   H26       1.0  0.2371997139311546  0.8694256443879382  0.8078371048388462  1.0000
  H   H27       1.0  0.2628055380779557  0.3694280734159676  0.8078373695944947  1.0000
  H   H28       1.0  0.7627971683577002  0.1305711312573621  0.1921627115016449  1.0000
  H   H29       1.0  0.20985636252813578  0.0862267581845586  0.24469311636539  1.0000
  H   H30       1.0  0.7098601010117633  0.4137716296380916  0.7553075045632269  1.0000
  H   H31       1.0  0.790140519760719  0.913771651162108  0.755308471343632  1.0000
  H   H32       1.0  0.2901428353790294  0.5862259628578883  0.2446931974615296  1.0000
  C   C1        1.0  0.2460402162861257  0.8803730772525569  0.3751924338432602  1.0000
  C   C2        1.0  0.7460500088716912  0.6196253536181189  0.6248058440959171  1.0000
  C   C3        1.0  0.7539551524772392  0.119624515243423  0.6248089809398749  1.0000
  C   C4        1.0  0.2539574680955567  0.3803746894299067  0.3751925256730146  1.0000
  C   C5        1.0  0.4390873647833899  0.8982523050201153  0.325378718742158  1.0000
  C   C6        1.0  0.9390895897415276  0.601745308999881  0.6746186735127466  1.0000
  C   C7        1.0  0.5609095175054648  0.10174692117723082  0.6746201908592582  1.0000
  C   C8        1.0  0.0609133466492651  0.39825310034678557  0.32537935040439686  1.0000
  C   C9        1.0  0.5631798057322186  0.9906405679127629  0.3371474196759081  1.0000
  C   C10       1.0  0.0631806078250534  0.5093562292565466  0.6628540762033523  1.0000
  C   C11       1.0  0.4368155630311463  0.009358658284583  0.6628529154422508  1.0000
  C   C12       1.0  0.9368208150402566  0.49064218009012  0.3371467987472911  1.0000
  C   C13       1.0  0.5677173551347607  0.0992759478586578  0.4063814806262016  1.0000
  C   C14       1.0  0.0677196707530712  0.40072080626261913  0.5936216454841343  1.0000
  C   C15       1.0  0.43227498657764574  0.9007232783386883  0.5936202800087146  1.0000
  C   C16       1.0  0.9322787250612663  0.5992776030840403  0.4063778039497663  1.0000
  C   C17       1.0  0.7083919812917969  0.8481728232961814  0.2356600857546809  1.0000
  C   C18       1.0  0.2083927833846246  0.6518272412758677  0.7643406763113987  1.0000
  C   C19       1.0  0.2916064145225477  0.1518272197518513  0.7643397095310007  1.0000
  C   C20       1.0  0.7916056124297128  0.34817198492147833  0.23565965880676035  1.0000
  C   C21       1.0  0.8622100627562475  0.782478423900244  0.17376124688122016  1.0000
  C   C22       1.0  0.3622078377981097  0.7175224575224846  0.8262375498356319  1.0000
  C   C23       1.0  0.13778833305809  0.217524886550521  0.826239952866402  1.0000
  C   C24       1.0  0.6377920715417175  0.2824759518241748  0.17376118683989014  1.0000
  C   C25       1.0  0.0192747470451309  0.8307453139567755  0.13098211597337442  1.0000
  C   C26       1.0  0.5192769720032686  0.6692547506152736  0.8690172205759552  1.0000
  C   C27       1.0  0.9807251622946893  0.16926044704604237  0.8690188897935514  1.0000
  C   C28       1.0  0.4807244508620343  0.3307420250300197  0.1309797447310288  1.0000
  C   C29       1.0  0.1679771123719718  0.7659894759965553  0.0749704935404978  1.0000
  C   C30       1.0  0.6679793373301095  0.7340114054261734  0.9250297286931044  1.0000
  C   C31       1.0  0.8320227969678554  0.2340138344542098  0.9250314189655029  1.0000
  C   C32       1.0  0.3320235990606832  0.2659853702191199  0.0749686621306367  1.0000
  C   C33       1.0  0.1633048592013111  0.6525330002666934  0.06162622113208023  1.0000
  C   C34       1.0  0.6633025435829935  0.8474695148574084  0.9383750597116818  1.0000
  C   C35       1.0  0.8366980771894816  0.3474760281388569  0.9383783273719146  1.0000
  C   C36       1.0  0.3366973657568266  0.1525280776385713  0.0616220785211965  1.0000
  C   C37       1.0  0.0078294673313266  0.6041100917295523  0.10418344222512133  1.0000
  C   C38       1.0  0.5078256381875264  0.8958916065438629  0.8958162401760035  1.0000
  C   C39       1.0  0.9921825502123696  0.3958964861239522  0.8958170237093271  1.0000
  C   C40       1.0  0.4921742711522938  0.1041051691014303  0.1041821506477376  1.0000
  C   C41       1.0  0.8576240805382085  0.6682573759303239  0.1590320224661284  1.0000
  C   C42       1.0  0.3576233691055535  0.8317443223430914  0.840968372693368  1.0000
  C   C43       1.0  0.1423773423271015  0.3317451176697617  0.8409675788388569  1.0000
  C   C44       1.0  0.6423750267087839  0.168254087003568  0.1590310767405327  1.0000
  N   N1        1.0  0.5321162086883007  0.8113132530392662  0.2630572628873651  1.0000
  N   N2        1.0  0.0321154972556457  0.6886859946820962  0.7369411879776989  1.0000
  N   N3        1.0  0.46788370065151946  0.18868679000876648  0.7369432451566879  1.0000
  N   N4        1.0  0.9678859256096572  0.3113124146645632  0.2630568359394445  1.0000
  N   N5        1.0  0.7295979868551541  0.9563687806222063  0.2785642720800467  1.0000
  N   N6        1.0  0.2296018159989544  0.5436296502484694  0.7214375696510018  1.0000
  N   N7        1.0  0.2703958683827352  0.0436320792765059  0.7214356961315218  1.0000
  N   N8        1.0  0.770398093340873  0.45636875909819  0.2785633052996488  1.0000
  O   O1        1.0  0.1248461766401121  0.9586837354601697  0.40885192068076043  1.0000
  O   O2        1.0  0.6248468880727671  0.541314695410513  0.5911463572584097  1.0000
  O   O3        1.0  0.8751491921232527  0.04131304018513051  0.5911486084181021  1.0000
  O   O4        1.0  0.3751530212670531  0.45868453078683297  0.4088532651013779  1.0000
  O   O5        1.0  0.4344907878869577  0.1248343889048584  0.47279643542514543  1.0000
  O   O6        1.0  0.9344914993196056  0.375163182067105  0.527206150852706  1.0000
  O   O7        1.0  0.565506094401897  0.8751648372924876  0.5272053252097635  1.0000
  O   O8        1.0  0.0655114370711871  0.6248352272795543  0.47279472409794476  1.0000
  O   O9        1.0  0.7154419829986053  0.1622069413912186  0.39763971605227516  1.0000
  O   O10       1.0  0.2154412715659504  0.33778817902869923  0.6023637769646442  1.0000
  O   O11       1.0  0.2845518722392839  0.8377922848061345  0.602362044582634  1.0000
  O   O12       1.0  0.7845571242483871  0.6622094134672807  0.3976376378184838  1.0000
  O   O13       1.0  0.0680753492419299  0.1002994617654949  0.2621141938328719  1.0000
  O   O14       1.0  0.5680760606745849  0.3996997429078348  0.7378851745048891  1.0000
  O   O15       1.0  0.9319230465724075  0.8996997644318512  0.7378861412852943  1.0000
  O   O16       1.0  0.4319268757162078  0.6002978495881379  0.262113389244739  1.0000
  O   O17       1.0  0.212178110621366  0.7836432529753807  0.3837148955117584  1.0000
  O   O18       1.0  0.7121879032069245  0.7163551778953021  0.6162791058771688  1.0000
  O   O19       1.0  0.7878202851929714  0.2163551563712858  0.6162845539221351  1.0000
  O   O20       1.0  0.287816546709351  0.2836440483020439  0.3837183782074973  1.0000
