data_image0
_chemical_formula_structural       Cu6H12C20N32O8
_chemical_formula_sum              "Cu6 H12 C20 N32 O8"
_cell_length_a       7.489849579034505
_cell_length_b       8.316459963568583
_cell_length_c       14.807899638472964
_cell_angle_alpha    90.0017395582955
_cell_angle_beta     90.00361200862557
_cell_angle_gamma    106.25063163948339

_space_group_name_H-M_alt    "P 1"
_space_group_IT_number       1

loop_
  _space_group_symop_operation_xyz
  'x, y, z'

loop_
  _atom_site_type_symbol
  _atom_site_label
  _atom_site_symmetry_multiplicity
  _atom_site_fract_x
  _atom_site_fract_y
  _atom_site_fract_z
  _atom_site_occupancy
  Cu  Cu1       1.0  0.06740362227839822  0.7054482114838052  0.014497274062293298  1.0000
  Cu  Cu2       1.0  0.4327206480390516  0.7947027929734175  0.5144596407494149  1.0000
  Cu  Cu3       1.0  0.9326552232388965  0.2946641868154813  0.985537726841919  1.0000
  Cu  Cu4       1.0  0.567390103281241  0.20548084038444617  0.4854315193433152  1.0000
  Cu  Cu5       1.0  0.500051183927326  5.24480351131999e-05  8.982127063500002e-06  1.0000
  Cu  Cu6       1.0  0.0001262259079624111  0.5000663562822111  0.5000240533066318  1.0000
  H   H1        1.0  0.4492895238037349  0.8632041129341985  0.1944575668734316  1.0000
  H   H2        1.0  0.0504598346717131  0.6365154797428829  0.6945591810017646  1.0000
  H   H3        1.0  0.5507758765218966  0.136853055485183  0.8055598755176803  1.0000
  H   H4        1.0  0.949540436529972  0.3637577866435252  0.3055332220180702  1.0000
  H   H5        1.0  0.6219833937242427  0.6970255768892171  0.2857365775392822  1.0000
  H   H6        1.0  0.8776811534098101  0.8026046590696793  0.7858614963377519  1.0000
  H   H7        1.0  0.3780401039628672  0.3030004402555945  0.7142606045203337  1.0000
  H   H8        1.0  0.12204890121790163  0.1975319757273155  0.2141721491016355  1.0000
  H   H9        1.0  0.8910787209718904  0.6198129279217424  0.2083847680100561  1.0000
  H   H10       1.0  0.6089695069413992  0.8802766690364905  0.7083567819871348  1.0000
  H   H11       1.0  0.10901752062734724  0.3802741925633484  0.7916434801216069  1.0000
  H   H12       1.0  0.3909065210134415  0.11989936495933762  0.2915208681617187  1.0000
  C   C1        1.0  0.8221231023127588  0.8829634726623539  0.9509474639661875  1.0000
  C   C2        1.0  0.6778284285001207  0.6170082656469518  0.4509526937264496  1.0000
  C   C3        1.0  0.1779493240616432  0.1171074595924679  0.0490747058427132  1.0000
  C   C4        1.0  0.3222052659618768  0.38290229206463516  0.5490775780619899  1.0000
  C   C5        1.0  0.7585903088407875  0.8261059149086731  0.04525043335171119  1.0000
  C   C6        1.0  0.7414870167517265  0.6739355905138568  0.545252411552525  1.0000
  C   C7        1.0  0.2415281266795972  0.17400492859412253  0.9547818671892543  1.0000
  C   C8        1.0  0.2586215426087577  0.3261313944591322  0.4547326164408289  1.0000
  C   C9        1.0  0.5681095381788666  0.8275822909342665  0.1672168949361676  1.0000
  C   C10       1.0  0.9317289261486152  0.6722156576996313  0.6672800349000026  1.0000
  C   C11       1.0  0.43196915693145843  0.17248735521719283  0.8328039243282319  1.0000
  C   C12       1.0  0.06827047454423511  0.3279873606754222  0.3327536151514678  1.0000
  C   C13       1.0  0.6633117737819063  0.7357809665378596  0.2168600758496666  1.0000
  C   C14       1.0  0.8364982020644193  0.7640121370087202  0.7169237231747516  1.0000
  C   C15       1.0  0.3367772978245611  0.26429615426688713  0.7831647955208965  1.0000
  C   C16       1.0  0.16336947759184287  0.2361501466099369  0.2830829119499043  1.0000
  C   C17       1.0  0.8092177664333565  0.6917475641870537  0.1748985571999455  1.0000
  C   C18       1.0  0.6907749098367404  0.8082561157040048  0.6748983181794584  1.0000
  C   C19       1.0  0.19087462038795883  0.3083358125281991  0.8251330674207011  1.0000
  C   C20       1.0  0.3091353842621061  0.19187207913339677  0.3250326820331964  1.0000
  N   N1        1.0  0.31208522955803636  0.7684750265699236  0.954046615858573  1.0000
  N   N2        1.0  0.18783805090255612  0.7318483818709112  0.45409980614663675  1.0000
  N   N3        1.0  0.6879715283354035  0.23162233020888578  0.046016072824144806  1.0000
  N   N4        1.0  0.8121909557021637  0.2683005406590055  0.5458318713495203  1.0000
  N   N5        1.0  0.31026264144051646  0.7481880240264259  0.872592614092703  1.0000
  N   N6        1.0  0.1897786673385796  0.7516598501843249  0.3726110484632059  1.0000
  N   N7        1.0  0.689795916370258  0.2516998310403409  0.1274923584364416  1.0000
  N   N8        1.0  0.8104940234092269  0.24806509231006404  0.6272915909930034  1.0000
  N   N9        1.0  0.31237604596312724  0.7292713245233106  0.7950183686903074  1.0000
  N   N10       1.0  0.1877425573055618  0.770160574115792  0.2949958282910501  1.0000
  N   N11       1.0  0.6876508041502376  0.27037709002670596  0.2050747053280304  1.0000
  N   N12       1.0  0.8127301875279473  0.22920082120405993  0.7048635912964869  1.0000
  N   N13       1.0  0.11144131146409111  0.5324193341774119  0.0935470121992239  1.0000
  N   N14       1.0  0.388539047677945  0.9672951196342295  0.5938793667532778  1.0000
  N   N15       1.0  0.8883203546507374  0.46733201458823004  0.9063002438099089  1.0000
  N   N16       1.0  0.6107781401792848  0.03202194459679929  0.4064824693887275  1.0000
  N   N17       1.0  0.2588075272381688  0.499092595523699  0.0956411357872682  1.0000
  N   N18       1.0  0.2413201528996325  0.0008467727748425001  0.5959214237859031  1.0000
  N   N19       1.0  0.741065121972241  0.5008702054269136  0.9043756276339322  1.0000
  N   N20       1.0  0.7582407349066784  0.9989156264757496  0.4039920101343526  1.0000
  N   N21       1.0  0.3948390931866329  0.45757001043714496  0.09975286633981277  1.0000
  N   N22       1.0  0.1053073307907511  0.04247755997216981  0.5999445414829551  1.0000
  N   N23       1.0  0.6051101300298994  0.5425630179737979  0.900411793569738  1.0000
  N   N24       1.0  0.8943459734967618  0.9575390056002248  0.3995319668208523  1.0000
  N   N25       1.0  0.8556730478970139  0.7378687631282046  0.0891406595359854  1.0000
  N   N26       1.0  0.6444184536048001  0.7622122563842737  0.5891166975228044  1.0000
  N   N27       1.0  0.14440561219865342  0.26221342825213867  0.9108902895509985  1.0000
  N   N28       1.0  0.3556306196164627  0.23786506129199134  0.4108170056840876  1.0000
  N   N29       1.0  0.6170218159019782  0.871839532252494  0.0813428664627267  1.0000
  N   N30       1.0  0.8829827549876654  0.6280880916806098  0.5813700823653036  1.0000
  N   N31       1.0  0.3830800100001426  0.1282525778460908  0.918684031161426  1.0000
  N   N32       1.0  0.1171237549590813  0.37204413720332496  0.418654114372643  1.0000
  O   O1        1.0  0.7349159421055732  0.9641020478235589  0.9060875821853146  1.0000
  O   O2        1.0  0.7649205570150885  0.5357565730957391  0.40611788062896886  1.0000
  O   O3        1.0  0.2651899561063687  0.03601136798810239  0.09394944539030797  1.0000
  O   O4        1.0  0.23500714469402342  0.4639751344162022  0.5939657380927059  1.0000
  O   O5        1.0  0.9708058736981472  0.8477608215404828  0.9255353292233721  1.0000
  O   O6        1.0  0.5290835183160993  0.6521810494998235  0.4255642398351753  1.0000
  O   O7        1.0  0.029245835461175297  0.15228261665565407  0.0744780609637132  1.0000
  O   O8        1.0  0.4709496331876579  0.34768560389851183  0.5744430708956685  1.0000
