data_image0
_chemical_formula_structural       Al6H62C84Cl12O28
_chemical_formula_sum              "Al6 H62 C84 Cl12 O28"
_cell_length_a       13.706427060567115
_cell_length_b       13.900558253930152
_cell_length_c       27.556887962133427
_cell_angle_alpha    86.37129825278514
_cell_angle_beta     88.99047673943828
_cell_angle_gamma    62.38418641229861

_space_group_name_H-M_alt    "P 1"
_space_group_IT_number       1

loop_
  _space_group_symop_operation_xyz
  'x, y, z'

loop_
  _atom_site_type_symbol
  _atom_site_label
  _atom_site_symmetry_multiplicity
  _atom_site_fract_x
  _atom_site_fract_y
  _atom_site_fract_z
  _atom_site_occupancy
  Al  Al1       1.0  0.510528458186684  0.6983075120249751  0.7521196750410583  1.0000
  Al  Al2       1.0  0.739380354487416  0.7075158237307163  0.7546482011455495  1.0000
  Al  Al3       1.0  0.7482330735784902  0.4889701531887951  0.7537588872626912  1.0000
  Al  Al4       1.0  0.21353817412504839  0.3065220228428416  0.2475754129259897  1.0000
  Al  Al5       1.0  0.4587290751173185  0.2757593600714117  0.2421322384290363  1.0000
  Al  Al6       1.0  0.2748245751590233  0.5027406545620607  0.24395834759442894  1.0000
  H   H1        1.0  0.041380028941475126  0.6965210504107875  0.024087756014424096  1.0000
  H   H2        1.0  0.5580632140271292  0.6449810272493791  0.5170396702756577  1.0000
  H   H3        1.0  0.842212586059446  0.5546937789956418  0.5302567736484392  1.0000
  H   H4        1.0  0.6330398266328245  0.8013823884997322  0.5203020231356135  1.0000
  H   H5        1.0  0.92772575076296  0.677194189414543  0.5478019853114446  1.0000
  H   H6        1.0  0.714813584912271  0.45157934196003413  0.5212786401630397  1.0000
  H   H7        1.0  0.4277181777582158  0.8877595287659189  0.5332098835063945  1.0000
  H   H8        1.0  0.6662381612827204  0.33603541139947163  0.4480969674232398  1.0000
  H   H9        1.0  0.10338404874562467  0.6300404377615151  0.4777964834061308  1.0000
  H   H10       1.0  0.32381846401901265  0.08776354463378772  0.46907797198593926  1.0000
  H   H11       1.0  0.0696925463492235  0.6192920573003634  0.561199109267811  1.0000
  H   H12       1.0  0.7297195239468265  0.41944207912199255  0.0377117990909213  1.0000
  H   H13       1.0  0.6860730481682609  0.3409570853994311  0.532135287096125  1.0000
  H   H14       1.0  0.35563170179425896  0.022538560731455007  0.5508255899289622  1.0000
  H   H15       1.0  0.6900792044614547  0.4498139292555052  0.4375009274793414  1.0000
  H   H16       1.0  0.9622311863734225  0.6799134239094331  0.4642884072586568  1.0000
  H   H17       1.0  0.3904798292734525  0.9526163172777234  0.4515533136408081  1.0000
  H   H18       1.0  0.07521800116043663  0.3757916381036424  0.9793515768627474  1.0000
  H   H19       1.0  0.5130536504843235  0.3006608394715827  0.9719352007018572  1.0000
  H   H20       1.0  0.39427863746750086  0.0860954876398381  0.9205000496874689  1.0000
  H   H21       1.0  0.6282554577377368  0.5569626932337002  0.026677221636006703  1.0000
  H   H22       1.0  0.8973044791885341  0.7444501517065447  0.0280285616253479  1.0000
  H   H23       1.0  0.3578064857346775  0.9413219955290943  0.056009166706878916  1.0000
  H   H24       1.0  0.4916475727519227  0.8923032444435463  0.08104380750344123  1.0000
  H   H25       1.0  0.7961325435612634  0.6092206957002873  0.9752818481614938  1.0000
  H   H26       1.0  0.4300546577412234  0.5927744023201597  0.946273316750947  1.0000
  H   H27       1.0  0.6672258929347946  0.9116189226146079  0.978529054856601  1.0000
  H   H28       1.0  0.3827834178161638  0.5144932237976648  0.0403548469141413  1.0000
  H   H29       1.0  0.9016089744065923  0.48285825438482993  0.06647178271644802  1.0000
  H   H30       1.0  0.5489384237163436  0.11104032033898649  0.023872659657755  1.0000
  H   H31       1.0  0.8733877363750436  0.46712102579551373  0.9844753854046361  1.0000
  H   H32       1.0  0.383196759028813  0.4944518601727239  0.9567460224508082  1.0000
  H   H33       1.0  0.5815232139739023  0.0372796508052318  0.9473074694943692  1.0000
  H   H34       1.0  0.6576162218718552  0.2512590055090627  0.9684865561693456  1.0000
  H   H35       1.0  0.4317971061175643  0.6107557268905738  0.029989943597520604  1.0000
  H   H36       1.0  0.8183305070247401  0.6248950174087327  0.0583013652798954  1.0000
  H   H37       1.0  0.6058473621027216  0.9814953814798956  0.054615818485800105  1.0000
  H   H38       1.0  0.9735249844106589  0.40742532579591995  0.4550216427608262  1.0000
  H   H39       1.0  0.3946122105516989  0.6596568827448268  0.4450805565795477  1.0000
  H   H40       1.0  0.6728516249365342  0.9353849719908568  0.44422623735132316  1.0000
  H   H41       1.0  0.381535359252716  0.5089188665280062  0.5449216521451987  1.0000
  H   H42       1.0  0.12486854979712081  0.3290406157454699  0.5569777793615742  1.0000
  H   H43       1.0  0.6028416254128218  0.07262757658639878  0.5509788617141211  1.0000
  H   H44       1.0  0.922169744944497  0.41186510478418387  0.5367595104049201  1.0000
  H   H45       1.0  0.14825705076035675  0.4467511939440599  0.9585932068963177  1.0000
  H   H46       1.0  0.42190682974936766  0.6686379743205965  0.5281495936716709  1.0000
  H   H47       1.0  0.7051144642555798  0.8773256683515528  0.5267293454581647  1.0000
  H   H48       1.0  0.3596020194248625  0.49833174996162194  0.4615482528283367  1.0000
  H   H49       1.0  0.1763733555911172  0.33454104521030104  0.4757113717493411  1.0000
  H   H50       1.0  0.5741924830330588  0.1296929631987354  0.46832273371444444  1.0000
  H   H51       1.0  0.1856101869123492  0.4121906646801747  0.5702177231940696  1.0000
  H   H52       1.0  0.4901818508914317  0.3744923631550847  0.5476138650077544  1.0000
  H   H53       1.0  0.4592469841660005  0.1335463901075897  0.5597743573951278  1.0000
  H   H54       1.0  0.5291208417011788  0.6412575093738513  0.4337642440346983  1.0000
  H   H55       1.0  0.8867043114107175  0.5489285523089578  0.4477212417895444  1.0000
  H   H56       1.0  0.3276696216673685  0.009751811820969196  0.9426052132704044  1.0000
  H   H57       1.0  0.5996019507627038  0.8606366068694412  0.4380734827928876  1.0000
  H   H58       1.0  0.22764807481051708  0.4258506039197273  0.48823510186444  1.0000
  H   H59       1.0  0.4699329713641661  0.36496957215771175  0.46414132224692395  1.0000
  H   H60       1.0  0.4304776344943093  0.19321797230049503  0.4775527752612945  1.0000
  H   H61       1.0  0.3304798311884625  0.791045467343423  0.7811542823227455  1.0000
  H   H62       1.0  0.09068120888533572  0.2475494181363231  0.2803875553619477  1.0000
  C   C1        1.0  0.5829959482036388  0.8020273711439926  0.8279009145327906  1.0000
  C   C2        1.0  0.4814919622344006  0.6095393529618677  0.4557786998899473  1.0000
  C   C3        1.0  0.9550883548057527  0.48564501656528597  0.46971467715721366  1.0000
  C   C4        1.0  0.6052947514845428  0.921902843770532  0.4595254481976667  1.0000
  C   C5        1.0  0.10954303184798424  0.4981141691021377  0.3694496402599441  1.0000
  C   C6        1.0  0.48780164431619255  0.46246677268258196  0.3516674004404409  1.0000
  C   C7        1.0  0.4527351012339976  0.09970239786635914  0.3595541809659863  1.0000
  C   C8        1.0  0.5732468375074617  0.5108042651867208  0.6306588051560879  1.0000
  C   C9        1.0  0.9440826118609563  0.5147861991469399  0.6473126062917559  1.0000
  C   C10       1.0  0.5660188414773869  0.892101990882921  0.6389892116718414  1.0000
  C   C11       1.0  0.00963528706318333  0.5010828808313476  0.555389560550104  1.0000
  C   C12       1.0  0.8738269669040973  0.5377182935072754  0.8220010772826143  1.0000
  C   C13       1.0  0.5436143498491147  0.4987038569178069  0.5365447727041754  1.0000
  C   C14       1.0  0.5321681184380509  0.9627296520004478  0.5453811618154774  1.0000
  C   C15       1.0  0.5176820839642388  0.4906133343410419  0.44367274117737315  1.0000
  C   C16       1.0  0.05748040946515689  0.5048055030804193  0.4632325877944723  1.0000
  C   C17       1.0  0.49642220301176826  0.0295639360980786  0.4530157478868659  1.0000
  C   C18       1.0  0.03263991496191211  0.6142348549315031  0.48433497161795463  1.0000
  C   C19       1.0  0.6401416590840225  0.419338057584433  0.4585614740752604  1.0000
  C   C20       1.0  0.40029538544404636  0.010738198124862198  0.4736358654464681  1.0000
  C   C21       1.0  0.6549288014751724  0.4223892674783373  0.5137582550471365  1.0000
  C   C22       1.0  0.008478251291087709  0.6105286754659646  0.5392297752771  1.0000
  C   C23       1.0  0.5898037169255089  0.4800451756111244  0.8117955917032234  1.0000
  C   C24       1.0  0.42249242106488066  0.9690192915870384  0.527704871686943  1.0000
  C   C25       1.0  0.08529236456276833  0.5037997539423387  0.4121866069306891  1.0000
  C   C26       1.0  0.5019055925542942  0.4803643804280427  0.3928697840692336  1.0000
  C   C27       1.0  0.4750009794019548  0.067285598997934  0.4019836040059204  1.0000
  C   C28       1.0  0.5586675425357723  0.5041968516944948  0.587941409368149  1.0000
  C   C29       1.0  0.9783713048358678  0.5032945377319892  0.6059884554815939  1.0000
  C   C30       1.0  0.5517624298943246  0.9250849514677455  0.5964290876785584  1.0000
  C   C31       1.0  0.585689104069516  0.8386319127227679  0.6869981148874444  1.0000
  C   C32       1.0  0.8830025070845692  0.5402681743518302  0.6914762820183284  1.0000
  C   C33       1.0  0.5925648343959651  0.5314722866840214  0.6790695390660562  1.0000
  C   C34       1.0  0.37541026133526145  0.19154654832108517  0.1711600930715704  1.0000
  C   C35       1.0  0.4215244176825337  0.1517811156152433  0.31139854516586507  1.0000
  C   C36       1.0  0.45168281861828774  0.4395650694304081  0.3074813887276377  1.0000
  C   C37       1.0  0.14800963231360245  0.47384999643820436  0.3205739366197236  1.0000
  C   C38       1.0  0.9692139732573324  0.6567536206410552  0.9634970997380707  1.0000
  C   C39       1.0  0.6520716110117206  0.4562661556540917  0.9658177514766422  1.0000
  C   C40       1.0  0.4896509493180757  0.8652903507575475  0.004243419824447898  1.0000
  C   C41       1.0  0.5856806142472591  0.32867440934077047  0.0355752337951714  1.0000
  C   C42       1.0  0.09513435753684271  0.47204879595253146  0.0337528624828494  1.0000
  C   C43       1.0  0.35001949269607746  0.10571573350701163  0.9968021913573893  1.0000
  C   C44       1.0  0.07876266964152022  0.45271691699073113  0.9806008971799827  1.0000
  C   C45       1.0  0.4655167043258643  0.44034126867790485  0.1807556564655002  1.0000
  C   C46       1.0  0.5808481017785351  0.3183196877404983  0.9802210353350986  1.0000
  C   C47       1.0  0.3881166761838132  0.0366924568519167  0.9518015817519796  1.0000
  C   C48       1.0  0.6489366773214015  0.47237767871602904  0.021058399625900396  1.0000
  C   C49       1.0  0.9748819423007475  0.6759082633071499  0.01781904665011071  1.0000
  C   C50       1.0  0.4399355828780783  0.9333913338001737  0.04885059072984891  1.0000
  C   C51       1.0  0.03882850768548  0.57287597081627  0.14356259757544623  1.0000
  C   C52       1.0  0.5174277367838299  0.46349832528868984  0.1391610651566708  1.0000
  C   C53       1.0  0.39105226309175833  0.1417918459596805  0.12491944295969401  1.0000
  C   C54       1.0  0.5661463028971241  0.43386339689571685  0.8558413026812489  1.0000
  C   C55       1.0  0.9280322878397346  0.5198317318036062  0.8681959556376597  1.0000
  C   C56       1.0  0.10642614293681868  0.5257893254069188  0.1866098871012625  1.0000
  C   C57       1.0  0.5598357625751404  0.8466534217388499  0.8754386954230213  1.0000
  C   C58       1.0  0.9695934924711692  0.5449964982931661  0.9591580785400922  1.0000
  C   C59       1.0  0.5595142289146294  0.42574812944220497  0.9517621702949697  1.0000
  C   C60       1.0  0.5025589212923335  0.9366512114223725  0.9609350301542179  1.0000
  C   C61       1.0  0.5598514789411625  0.4481281280432938  0.045479770982360904  1.0000
  C   C62       1.0  0.9910857376418246  0.5748735536122425  0.050707878570875706  1.0000
  C   C63       1.0  0.4328495525662319  0.047745418690738006  0.0402077960536644  1.0000
  C   C64       1.0  0.8899632765076145  0.5554994909665042  0.0440691064913494  1.0000
  C   C65       1.0  0.4467860375841042  0.5287567294515654  0.0220226253504876  1.0000
  C   C66       1.0  0.5487950166178166  0.0323085165244379  0.0251823533108677  1.0000
  C   C67       1.0  0.12524582524995517  0.4064510878471665  0.5464318587715056  1.0000
  C   C68       1.0  0.4467199226481212  0.5167645316938235  0.9670789084469504  1.0000
  C   C69       1.0  0.8740663718503043  0.5441910939349057  0.9899805072199754  1.0000
  C   C70       1.0  0.5832890491694227  0.9787572956776246  0.9764287303553871  1.0000
  C   C71       1.0  0.009188646868878398  0.5854788759054586  0.10134934998190201  1.0000
  C   C72       1.0  0.5488933034356691  0.4601101800110712  0.0975140005697739  1.0000
  C   C73       1.0  0.40183737652997553  0.1036276134580234  0.08544222262906942  1.0000
  C   C74       1.0  0.5614893815773457  0.41897978960805915  0.8994979124434721  1.0000
  C   C75       1.0  0.9528278805386916  0.5282592104708641  0.9092271948384436  1.0000
  C   C76       1.0  0.5365364451169227  0.8815236836940202  0.9157027874439336  1.0000
  C   C77       1.0  0.924313483276059  0.48737799332118925  0.5240395370428033  1.0000
  C   C78       1.0  0.4601661419677754  0.45498175673444047  0.5283825127840558  1.0000
  C   C79       1.0  0.49901517818107527  0.6139510708819316  0.5107867401480775  1.0000
  C   C80       1.0  0.6269684270836321  0.882898849861846  0.5140497869990099  1.0000
  C   C81       1.0  0.44585030622408783  0.44871238116937934  0.47336618226872673  1.0000
  C   C82       1.0  0.15541722688322318  0.4115573227840983  0.4922232859468707  1.0000
  C   C83       1.0  0.5062961695517885  0.11579376421394731  0.48288739940998954  1.0000
  C   C84       1.0  0.5259193746668841  0.0768694942648267  0.5374617896994636  1.0000
  Cl  Cl1       1.0  0.08359581161789019  0.6581067594292377  0.9309386507168682  1.0000
  Cl  Cl2       1.0  0.6319335197369256  0.5780988320026169  0.9313477538703341  1.0000
  Cl  Cl3       1.0  0.8463642564242022  0.7636441135257499  0.9351722778811222  1.0000
  Cl  Cl4       1.0  0.6225328878940385  0.754899219884912  0.021293244006599803  1.0000
  Cl  Cl5       1.0  0.7842439298385455  0.34956709567507005  0.9494622327094007  1.0000
  Cl  Cl6       1.0  0.40308670008054287  0.8084286872646232  0.9860856935206075  1.0000
  Cl  Cl7       1.0  0.7197095636173714  0.23455920008679246  0.0600736370419384  1.0000
  Cl  Cl8       1.0  0.21404780291600642  0.49420212305818023  0.0388178991173547  1.0000
  Cl  Cl9       1.0  0.21497099762787286  0.12497245772210872  0.013113072505468898  1.0000
  Cl  Cl10      1.0  0.11892319712598014  0.3565174339065962  0.07335423957834308  1.0000
  Cl  Cl11      1.0  0.48861422858994513  0.29505304970187757  0.0662655823997795  1.0000
  Cl  Cl12      1.0  0.341071953983537  0.2372294628451997  0.9817534881814822  1.0000
  O   O1        1.0  0.5204057987249088  0.5749153103369339  0.7974655199197613  1.0000
  O   O2        1.0  0.2805174603859725  0.22897945500686495  0.1892914732458095  1.0000
  O   O3        1.0  0.5186804618142488  0.34368697769211576  0.2007836779508736  1.0000
  O   O4        1.0  0.15995025603731963  0.5753589386314389  0.2008821660936135  1.0000
  O   O5        1.0  0.5184354424789746  0.6156176025054165  0.6969413924594292  1.0000
  O   O6        1.0  0.6754008694939201  0.8224298121885951  0.7090660458684326  1.0000
  O   O7        1.0  0.868072965106393  0.46445968925839765  0.7140195092749408  1.0000
  O   O8        1.0  0.15155958101684763  0.38822429460899616  0.30538735984391957  1.0000
  O   O9        1.0  0.49915186527080374  0.15992536867768337  0.2864190488946933  1.0000
  O   O10       1.0  0.3697740711713209  0.5201890696589758  0.2854302111280803  1.0000
  O   O11       1.0  0.5173691223552053  0.8082620695516526  0.7033865529150559  1.0000
  O   O12       1.0  0.6698687330945462  0.7959631004510754  0.8066077068796601  1.0000
  O   O13       1.0  0.8433399760264492  0.638033242771904  0.7038921770016061  1.0000
  O   O14       1.0  0.6855436683101033  0.4639474692972741  0.6990433282508022  1.0000
  O   O15       1.0  0.3230864101885302  0.18896573570520303  0.29731052636817884  1.0000
  O   O16       1.0  0.4981930198022581  0.3421838541033538  0.2945625445747666  1.0000
  O   O17       1.0  0.1779303060877524  0.5384527292676466  0.2970250823469058  1.0000
  O   O18       1.0  0.6668361083497842  0.6311228274175561  0.7540806779591378  1.0000
  O   O19       1.0  0.316025950275332  0.3622927275841619  0.24417804892243572  1.0000
  O   O20       1.0  0.8432090954253724  0.46954686182040467  0.808817530995782  1.0000
  O   O21       1.0  0.11386628685834664  0.4370744957486465  0.2046240468163631  1.0000
  O   O22       1.0  0.4600595781933166  0.19378572862566998  0.1895421075718815  1.0000
  O   O23       1.0  0.36986256358960656  0.5113635750199563  0.192268982132056  1.0000
  O   O24       1.0  0.516319015505026  0.7723178452596784  0.811566334897883  1.0000
  O   O25       1.0  0.8552689171739019  0.6274074467335922  0.7983876957329558  1.0000
  O   O26       1.0  0.6856812308665496  0.42248630960682476  0.7934765852909393  1.0000
  O   O27       1.0  0.36674495761206305  0.7657286803179133  0.7507467453098754  1.0000
  O   O28       1.0  0.1246822346543723  0.2483553586919953  0.24943854962766923  1.0000
