data_image0
_chemical_formula_structural       Zn8H16C80Br8Cl16O26
_chemical_formula_sum              "Zn8 H16 C80 Br8 Cl16 O26"
_cell_length_a       23.986898323497503
_cell_length_b       23.988427298960826
_cell_length_c       23.986704649200522
_cell_angle_alpha    66.58634765302463
_cell_angle_beta     72.46924086388357
_cell_angle_gamma    107.54053626050738

_space_group_name_H-M_alt    "P 1"
_space_group_IT_number       1

loop_
  _space_group_symop_operation_xyz
  'x, y, z'

loop_
  _atom_site_type_symbol
  _atom_site_label
  _atom_site_symmetry_multiplicity
  _atom_site_fract_x
  _atom_site_fract_y
  _atom_site_fract_z
  _atom_site_occupancy
  Zn  Zn1       1.0  0.056935085087495264  0.9577042182947721  0.48537172038859916  1.0000
  Zn  Zn2       1.0  0.05693372918631918  0.099231210915292  0.4577069485001815  1.0000
  Zn  Zn3       1.0  0.9430599939350937  0.9853686450104461  0.457696084651843  1.0000
  Zn  Zn4       1.0  0.9430781439873143  0.9577010683789952  0.5992341211187477  1.0000
  Zn  Zn5       1.0  0.9430663868014406  0.5422973300635691  0.014629576803819804  1.0000
  Zn  Zn6       1.0  0.056941631133305776  0.5146346143197179  0.04230240358604923  1.0000
  Zn  Zn7       1.0  0.9430659282532048  0.40076942527291237  0.042298188048256705  1.0000
  Zn  Zn8       1.0  0.0569221356189329  0.5422962966486579  0.9007666554148982  1.0000
  H   H1        1.0  0.9238252049738659  0.7147201025994575  0.1752533833297178  1.0000
  H   H2        1.0  0.07616107870315851  0.6752405387864115  0.21476597031297465  1.0000
  H   H3        1.0  0.9238313462007849  0.824748841756218  0.28524538125310545  1.0000
  H   H4        1.0  0.07611713397488258  0.7852046090548725  0.324821227413693  1.0000
  H   H5        1.0  0.07617905228499909  0.40089565326365306  0.709114745797663  1.0000
  H   H6        1.0  0.9238399019571445  0.20907802288745364  0.9009296449658561  1.0000
  H   H7        1.0  0.07611962777239255  0.2909116129933622  0.5990819160816726  1.0000
  H   H8        1.0  0.9238328471669347  0.09908052712903995  0.7909117797705177  1.0000
  H   H9        1.0  0.6100114881225949  0.4009139071650836  0.1752187208583108  1.0000
  H   H10       1.0  0.610005674857021  0.20908198110315368  0.21476602725136465  1.0000
  H   H11       1.0  0.38999645177396736  0.29091958849510036  0.28522298599333595  1.0000
  H   H12       1.0  0.3899869263074008  0.09909956743241816  0.3247083273849468  1.0000
  H   H13       1.0  0.3900023369538203  0.6752011413686603  0.9009123323863049  1.0000
  H   H14       1.0  0.38997962305349887  0.7147520047910519  0.7090763769982047  1.0000
  H   H15       1.0  0.6100205681156367  0.7852369790237576  0.7909260810420802  1.0000
  H   H16       1.0  0.6100002930880989  0.8247218680386724  0.5991022021735117  1.0000
  C   C1        1.0  0.18111534902514137  0.09056678141425321  0.4094413639190293  1.0000
  C   C2        1.0  0.9999946955833394  0.13682428942144031  0.36317308553229566  1.0000
  C   C3        1.0  0.9999886407588361  0.9094427238425169  0.4094453496704133  1.0000
  C   C4        1.0  0.8188885091022654  0.9094371362332084  0.590569309280724  1.0000
  C   C5        1.0  6.998670492929524e-06  0.8631717774434265  0.6368263443417062  1.0000
  C   C6        1.0  0.9999953358188021  0.09055461244341974  0.5905627734155698  1.0000
  C   C7        1.0  2.036007749866008e-06  0.5905449061575397  0.09056805704859977  1.0000
  C   C8        1.0  9.419370058964506e-06  0.36317873961098  0.13682517173567277  1.0000
  C   C9        1.0  0.8188850954948349  0.40943673407999626  0.0905469685507469  1.0000
  C   C10       1.0  0.9999912436090806  0.40942976425107264  0.9094549003124964  1.0000
  C   C11       1.0  0.9999972142035956  0.6368295216630244  0.8631737704800382  1.0000
  C   C12       1.0  0.18111327702477803  0.5905518871523442  0.9094339025611473  1.0000
  C   C13       1.0  2.2471085756857307e-06  0.8050612045864939  0.694937559627476  1.0000
  C   C14       1.0  1.1775180936040527e-06  0.694939481448138  0.8050625202968007  1.0000
  C   C15       1.0  0.9571699494917566  0.7768998759037303  0.7659281887424639  1.0000
  C   C16       1.0  0.04283271199230378  0.7231003899213346  0.7340719699500865  1.0000
  C   C17       1.0  0.9571693084660634  0.7230982433227596  0.8197315224253428  1.0000
  C   C18       1.0  0.04283335301800403  0.7769020225023056  0.6802686362672145  1.0000
  C   C19       1.0  0.9999995567221304  0.19493756305179497  0.3050616003625136  1.0000
  C   C20       1.0  3.443869068942694e-06  0.3050648696019493  0.1949368126273328  1.0000
  C   C21       1.0  0.9571669096509224  0.1802715453685836  0.2768938403347007  1.0000
  C   C22       1.0  0.042835413605914065  0.3197307278091657  0.22310484022808197  1.0000
  C   C23       1.0  0.9571681408448637  0.23407532142639542  0.22309156338413771  1.0000
  C   C24       1.0  0.04283418241197266  0.26592695175135367  0.27690711717863786  1.0000
  C   C25       1.0  0.9999972588364441  0.6280522685258418  0.12808026246236887  1.0000
  C   C26       1.0  0.9572993088442557  0.6580463530535992  0.13600873855871504  1.0000
  C   C27       1.0  0.9573417414699745  0.692784967983485  0.1707090907150641  1.0000
  C   C28       1.0  0.999992747469584  0.6995471863467276  0.1995742684346734  1.0000
  C   C29       1.0  0.042645574066959686  0.670690820786085  0.19282169627636125  1.0000
  C   C30       1.0  0.04269117503982744  0.6359889833880102  0.15808479081428578  1.0000
  C   C31       1.0  0.9999876702133148  0.7347801945646778  0.2348146211139833  1.0000
  C   C32       1.0  0.9999829914715476  0.7651830725286716  0.2652220850058882  1.0000
  C   C33       1.0  0.9999791817612758  0.8004183885857685  0.3004590559159295  1.0000
  C   C34       1.0  0.9573374764010296  0.8292886558115601  0.30719932792830174  1.0000
  C   C35       1.0  0.9572908046251671  0.8639889021430421  0.34193802097037435  1.0000
  C   C36       1.0  0.9999775764531759  0.8719146586400156  0.3719524828715492  1.0000
  C   C37       1.0  0.04265581370545133  0.8418937539839391  0.3640479913382392  1.0000
  C   C38       1.0  0.04261392770613515  0.807158279173329  0.32934539568462645  1.0000
  C   C39       1.0  6.135826829611217e-06  0.3719154078605981  0.8719507536196004  1.0000
  C   C40       1.0  0.04270914985200134  0.4066756972304972  0.7992608892983312  1.0000
  C   C41       1.0  0.04266011815847997  0.37193151318679446  0.7645659864680852  1.0000
  C   C42       1.0  2.214214866553949e-06  0.300425533279558  0.800453540630002  1.0000
  C   C43       1.0  0.957356428445621  0.26453238048848254  0.8719631748199105  1.0000
  C   C44       1.0  0.9573154142717468  0.29922324777168546  0.9067101323774904  1.0000
  C   C45       1.0  0.9999942491828974  0.26519122268277334  0.7652156535013004  1.0000
  C   C46       1.0  0.9999894241645393  0.23479179933519834  0.7348046847077754  1.0000
  C   C47       1.0  0.9999803870150713  0.19955814729256352  0.6995659273403374  1.0000
  C   C48       1.0  0.04261527079193428  0.23545542994735066  0.6280521086294185  1.0000
  C   C49       1.0  0.04265488673353696  0.2007652379114404  0.5933044714524414  1.0000
  C   C50       1.0  0.9999776233418628  0.12806787635684463  0.6280685221155264  1.0000
  C   C51       1.0  0.9572900559066395  0.09330385668260283  0.7007622921365237  1.0000
  C   C52       1.0  0.9573383666935767  0.12804887447231286  0.7354570819601631  1.0000
  C   C53       1.0  0.7438656219503058  0.37192513039715175  0.128063235376345  1.0000
  C   C54       1.0  0.7059340198449249  0.40668821406189454  0.13598420205797598  1.0000
  C   C55       1.0  0.6364956813658864  0.371943751289038  0.1706838344505  1.0000
  C   C56       1.0  0.6008764326028952  0.3004322701505729  0.19955392846256348  1.0000
  C   C57       1.0  0.636493770892315  0.26453755841382093  0.19281479586339145  1.0000
  C   C58       1.0  0.7059325840026317  0.29922968228711977  0.15808032064345665  1.0000
  C   C59       1.0  0.5304042323390448  0.26520051509059783  0.23478199635059122  1.0000
  C   C60       1.0  0.46959461747901077  0.23480298966218519  0.2651809738385964  1.0000
  C   C61       1.0  0.3991209093713051  0.19956920516703747  0.30041196873416004  1.0000
  C   C62       1.0  0.3635071543274933  0.2354654119996553  0.3071644359011003  1.0000
  C   C63       1.0  0.2940694120115026  0.20077487821567527  0.34189795772675774  1.0000
  C   C64       1.0  0.25613377440737384  0.12808150470226562  0.37190583317285325  1.0000
  C   C65       1.0  0.29405987093203817  0.09331915854836838  0.36396330580809877  1.0000
  C   C66       1.0  0.36349936733247284  0.12806322301201337  0.3292651495518227  1.0000
  C   C67       1.0  0.25613390718933715  0.6280527238918552  0.8719223887232346  1.0000
  C   C68       1.0  0.2940735884492651  0.6359661000323484  0.9066874801136252  1.0000
  C   C69       1.0  0.3635117256220253  0.6706684438136818  0.8719408195721738  1.0000
  C   C70       1.0  0.3991233368779915  0.6995453106207847  0.8004279794701075  1.0000
  C   C71       1.0  0.3634982949987914  0.6928017052353681  0.7645325241143794  1.0000
  C   C72       1.0  0.29405941124677065  0.6580644768409485  0.7992261180383691  1.0000
  C   C73       1.0  0.46959739487343893  0.7347815189512731  0.7651959181736671  1.0000
  C   C74       1.0  0.5304057209609353  0.7651824072073269  0.7348072526895986  1.0000
  C   C75       1.0  0.6008792983389809  0.8004191699026039  0.6995763673340177  1.0000
  C   C76       1.0  0.6365009772584642  0.8071770313164567  0.7354709381242228  1.0000
  C   C77       1.0  0.7059407786427057  0.8419141407828976  0.7007775313890292  1.0000
  C   C78       1.0  0.7438685536997269  0.8719157251218733  0.6280841895985246  1.0000
  C   C79       1.0  0.7059311633211889  0.8639761361840215  0.5933225446479042  1.0000
  C   C80       1.0  0.6364929825935733  0.8292747875792161  0.628067156238366  1.0000
  Br  Br1       1.0  0.8969126902751936  0.8088439761226027  0.7942355820923482  1.0000
  Br  Br2       1.0  0.10308710873534468  0.6911539457129906  0.7057642849178405  1.0000
  Br  Br3       1.0  0.8969127583800685  0.6911502594918062  0.9119326992701318  1.0000
  Br  Br4       1.0  0.1030909738896424  0.8088515954453256  0.5880673402138755  1.0000
  Br  Br5       1.0  0.8969101875403496  0.0880719311271676  0.30883039435014575  1.0000
  Br  Br6       1.0  0.1030925727573332  0.41193078041916914  0.191167146785105  1.0000
  Br  Br7       1.0  0.896907672784927  0.205769413781148  0.19113794211139618  1.0000
  Br  Br8       1.0  0.10309353609669349  0.29423226155201826  0.3088621454518544  1.0000
  Cl  Cl1       1.0  0.9011718143290535  0.6554452711764824  0.1043945849972445  1.0000
  Cl  Cl2       1.0  0.09882113103704869  0.6043870028865186  0.15549231353279683  1.0000
  Cl  Cl3       1.0  0.9011745062715517  0.8956071503672476  0.34451409238613445  1.0000
  Cl  Cl4       1.0  0.09875142583835102  0.8444572063093714  0.39570252288852725  1.0000
  Cl  Cl5       1.0  0.09885369391086843  0.49440262922018263  0.7457385486234855  1.0000
  Cl  Cl6       1.0  0.9011975762448898  0.24569485862446067  0.9944441855688093  1.0000
  Cl  Cl7       1.0  0.09875085474492096  0.2542981898588792  0.5055652022398434  1.0000
  Cl  Cl8       1.0  0.9011708556751614  0.005571172340005202  0.7542896892199025  1.0000
  Cl  Cl9       1.0  0.7401424073951404  0.494423485360862  0.1043610973652561  1.0000
  Cl  Cl10      1.0  0.7401360952715875  0.24569684880999174  0.15550957917218253  1.0000
  Cl  Cl11      1.0  0.2598655942751619  0.2543042775333433  0.34448474442869775  1.0000
  Cl  Cl12      1.0  0.2598544783245771  0.005593671024698213  0.3955411894124552  1.0000
  Cl  Cl13      1.0  0.2598755260526672  0.6043281811674605  0.9944274064388875  1.0000
  Cl  Cl14      1.0  0.2598455074097217  0.6554858830386581  0.7456943925136982  1.0000
  Cl  Cl15      1.0  0.7401548593496229  0.8445094965222497  0.7543063109932927  1.0000
  Cl  Cl16      1.0  0.7401282593513299  0.8955736975487273  0.505590987031418  1.0000
  O   O1        1.0  0.9999995477631883  2.07706619785652e-07  0.5000007596414093  1.0000
  O   O2        1.0  0.1518088022903683  0.02570006179588799  0.43443277246228007  1.0000
  O   O3        1.0  0.03951340283500567  0.1538498647727309  0.38567287329050254  1.0000
  O   O4        1.0  0.9600929401011769  0.9344120637933103  0.41377761586484485  1.0000
  O   O5        1.0  0.15180813997089598  0.12612627427169087  0.4137804894720247  1.0000
  O   O6        1.0  0.039899379225843544  0.9137968434886403  0.43440404162740975  1.0000
  O   O7        1.0  0.96048108190665  0.0748248220182646  0.3856565943252263  1.0000
  O   O8        1.0  0.8481886878179803  0.9344219202898498  0.5257053006401335  1.0000
  O   O9        1.0  0.9604964763729383  0.8856702237820856  0.6538531363861608  1.0000
  O   O10       1.0  0.8482015405077657  0.9137667688504151  0.6261347008071992  1.0000
  O   O11       1.0  0.03951247215817937  0.8856565863529868  0.5748237867958251  1.0000
  O   O12       1.0  0.039897963546792384  0.1261100058506059  0.5257011405244469  1.0000
  O   O13       1.0  0.9601084750760762  0.025685162922890546  0.6261235640494147  1.0000
  O   O14       1.0  5.783995859111636e-07  0.49999998360338077  0.9999997886576466  1.0000
  O   O15       1.0  0.9601067693524071  0.586212501703912  0.06558775105219171  1.0000
  O   O16       1.0  0.03951958039629481  0.42517371857058356  0.11434114871379107  1.0000
  O   O17       1.0  0.8481930254556571  0.3738764074765442  0.08620795600434403  1.0000
  O   O18       1.0  0.03989498375573657  0.5655759215247899  0.08623648056638435  1.0000
  O   O19       1.0  0.8481921001976288  0.4742981876845604  0.06557626975293826  1.0000
  O   O20       1.0  0.9604863418140326  0.3461487923009443  0.11432676802403542  1.0000
  O   O21       1.0  0.9600977684042743  0.3738707381038181  0.9743217834302768  1.0000
  O   O22       1.0  0.03951453223385207  0.6143373524153689  0.8461474425917785  1.0000
  O   O23       1.0  0.039868423652272486  0.4742985183536135  0.8738930382344989  1.0000
  O   O24       1.0  0.9604845079423612  0.6143379972938662  0.9251770032972567  1.0000
  O   O25       1.0  0.15181395382766985  0.5655943946087659  0.9742901695783672  1.0000
  O   O26       1.0  0.1517984750754946  0.5862158197069292  0.8738690946735089  1.0000
