data_image0
_chemical_formula_structural       Ag14H24C16N38O18
_chemical_formula_sum              "Ag14 H24 C16 N38 O18"
_cell_length_a       9.355953482449902
_cell_length_b       9.355952881503809
_cell_length_c       14.559942714000911
_cell_angle_alpha    89.99999141883015
_cell_angle_beta     89.9999612094263
_cell_angle_gamma    94.7920684597089

_space_group_name_H-M_alt    "P 1"
_space_group_IT_number       1

loop_
  _space_group_symop_operation_xyz
  'x, y, z'

loop_
  _atom_site_type_symbol
  _atom_site_label
  _atom_site_symmetry_multiplicity
  _atom_site_fract_x
  _atom_site_fract_y
  _atom_site_fract_z
  _atom_site_occupancy
  Ag  Ag1       1.0  0.11504905531108275  0.12603403396042268  0.1190437064955674  1.0000
  Ag  Ag2       1.0  0.8849516848448219  0.8739660266683064  0.6190440965329672  1.0000
  Ag  Ag3       1.0  0.8739665214424263  0.8849507177414043  0.380955936364657  1.0000
  Ag  Ag4       1.0  0.1260338490472819  0.11504818582307055  0.880956043023339  1.0000
  Ag  Ag5       1.0  0.6464268740237529  0.5948934105945656  0.1200373908666208  1.0000
  Ag  Ag6       1.0  0.3535727959769376  0.40510664674970104  0.6200373705292463  1.0000
  Ag  Ag7       1.0  0.4051070290939975  0.35357227239969563  0.3799622414135797  1.0000
  Ag  Ag8       1.0  0.5948934291190966  0.6464277040686498  0.8799627796072542  1.0000
  Ag  Ag9       1.0  0.7571884919544516  0.24281241802316342  0.24999943356829848  1.0000
  Ag  Ag10      1.0  0.2428121066934636  0.7571876003652068  0.7500001142319873  1.0000
  Ag  Ag11      1.0  0.48146418441507416  0.9422644994611535  0.1706262079178558  1.0000
  Ag  Ag12      1.0  0.5185353442706458  0.057734468982062026  0.6706261493613184  1.0000
  Ag  Ag13      1.0  0.05773370452796911  0.5185349995161986  0.32937351106581053  1.0000
  Ag  Ag14      1.0  0.9422657392685637  0.48146499030576717  0.8293739140720149  1.0000
  H   H1        1.0  0.01944189887259281  0.6574077643461396  0.11599355227173899  1.0000
  H   H2        1.0  0.9805577754979213  0.34259229430252713  0.6159932652143781  1.0000
  H   H3        1.0  0.3425919622436098  0.9805588630908988  0.3840061966934982  1.0000
  H   H4        1.0  0.6574085782498785  0.01944218465658311  0.8840060814211199  1.0000
  H   H5        1.0  0.11382843507757909  0.8113480326191793  0.0628305404147014  1.0000
  H   H6        1.0  0.8861712967396684  0.18865204317742723  0.5628303092836688  1.0000
  H   H7        1.0  0.1886529089474891  0.8861712061821123  0.43716990544457696  1.0000
  H   H8        1.0  0.8113485565303478  0.11382875479779392  0.9371697140894071  1.0000
  H   H9        1.0  0.9736801453225256  0.7067099726056868  0.0038795770455593006  1.0000
  H   H10       1.0  0.026320719277301004  0.2932901251697545  0.503879709870354  1.0000
  H   H11       1.0  0.293290481743341  0.026320891403997806  0.4961207055917711  1.0000
  H   H12       1.0  0.7067099376017724  0.9736801201805038  0.9961204767245988  1.0000
  H   H13       1.0  0.18563043189971756  0.5126743201983859  0.1408274120286777  1.0000
  H   H14       1.0  0.8143702847175334  0.4873257334040207  0.6408271832915773  1.0000
  H   H15       1.0  0.48732498909556193  0.8143705505413268  0.3591729711347611  1.0000
  H   H16       1.0  0.512674422500595  0.18562942966877227  0.8591729027775798  1.0000
  H   H17       1.0  0.1959662240971909  0.45373269779563696  0.0259286089112081  1.0000
  H   H18       1.0  0.8040335475958358  0.5462673899039532  0.525927692163016  1.0000
  H   H19       1.0  0.546268051922823  0.804033566406261  0.4740717625280553  1.0000
  H   H20       1.0  0.453732304597935  0.1959663797067607  0.9740717188144147  1.0000
  H   H21       1.0  0.32086301294645375  0.5958738329341459  0.067426677715126  1.0000
  H   H22       1.0  0.6791377829855917  0.4041262443438499  0.5674272026582869  1.0000
  H   H23       1.0  0.40412593222464466  0.6791372251046185  0.43257300982672575  1.0000
  H   H24       1.0  0.5958744691384084  0.3208627343939058  0.9325735790322156  1.0000
  C   C1        1.0  0.9037039407075865  0.8406146079716807  0.11041984014618579  1.0000
  C   C2        1.0  0.09629582633539262  0.15938652505816012  0.6104199554601591  1.0000
  C   C3        1.0  0.15938610350738713  0.09629859078489032  0.3895804769940625  1.0000
  C   C4        1.0  0.8406145176126003  0.9037035277480355  0.889580196631961  1.0000
  C   C5        1.0  0.00975905876053669  0.7496614190770006  0.070757108205548  1.0000
  C   C6        1.0  0.9902406644910968  0.25033865416276063  0.570757512660343  1.0000
  C   C7        1.0  0.2503388452235953  0.9902404898627072  0.4292426580104872  1.0000
  C   C8        1.0  0.7496615597385486  0.009759470710150701  0.9292425035403156  1.0000
  C   C9        1.0  0.3577764766189447  0.3866590665080453  0.1146253545005962  1.0000
  C   C10       1.0  0.6422241816621509  0.6133399229626165  0.614624501667393  1.0000
  C   C11       1.0  0.61333996270276  0.6422227957063599  0.3853756650206108  1.0000
  C   C12       1.0  0.3866593339298491  0.3577761034686305  0.8853749480441309  1.0000
  C   C13       1.0  0.260348137002353  0.49412834515230497  0.0847797860439599  1.0000
  C   C14       1.0  0.7396525535288418  0.505870653945067  0.5847795880203818  1.0000
  C   C15       1.0  0.5058711075094636  0.7396528316399584  0.4152205813362997  1.0000
  C   C16       1.0  0.49412833017311897  0.2603482030752816  0.9152198270160598  1.0000
  N   N1        1.0  0.7671615735508367  0.7961348570826061  0.1315374001351657  1.0000
  N   N2        1.0  0.2328381706733894  0.2038662691358084  0.6315367649380903  1.0000
  N   N3        1.0  0.2038660136573185  0.2328379079617804  0.36846293258508217  1.0000
  N   N4        1.0  0.7961355260634023  0.7671620751797478  0.8684633715739379  1.0000
  N   N5        1.0  0.7082567529273761  0.9111894525587235  0.16686103538364697  1.0000
  N   N6        1.0  0.2917429531269207  0.08881166226590415  0.6668603856716685  1.0000
  N   N7        1.0  0.08881175062780498  0.2917422970394767  0.3331393267759495  1.0000
  N   N8        1.0  0.9111887581811545  0.708257694531817  0.8331397214012454  1.0000
  N   N9        1.0  0.8042240684087005  0.021969365349363605  0.16699017883085787  1.0000
  N   N10       1.0  0.19577563750607396  0.9780317494336189  0.6669894849987585  1.0000
  N   N11       1.0  0.978031334164477  0.1957751185302287  0.333010703420058  1.0000
  N   N12       1.0  0.021969174784004494  0.804224873082717  0.8330101019828433  1.0000
  N   N13       1.0  0.9272893004418207  0.9805971889930375  0.1321740347277967  1.0000
  N   N14       1.0  0.0727104430940528  0.019403937019902204  0.6321741738196991  1.0000
  N   N15       1.0  0.019403197860874893  0.0727103489800314  0.3678263021107284  1.0000
  N   N16       1.0  0.9805972734668913  0.9272896314030635  0.8678252717584057  1.0000
  N   N17       1.0  0.4990898228290206  0.4108922588337834  0.1321926994035891  1.0000
  N   N18       1.0  0.5009109031186441  0.5891077975537585  0.632192597201751  1.0000
  N   N19       1.0  0.5891074419420049  0.5009108589058612  0.36780761348786933  1.0000
  N   N20       1.0  0.4108919603241148  0.49908911851920823  0.8678068723234915  1.0000
  N   N21       1.0  0.5455173119890091  0.28396117458109427  0.15787686242142476  1.0000
  N   N22       1.0  0.4544844552869734  0.7160388764860389  0.6578760813435166  1.0000
  N   N23       1.0  0.716038714420904  0.4544828787496017  0.3421241079481874  1.0000
  N   N24       1.0  0.28396071559821223  0.5455171069597782  0.8421234175192325  1.0000
  N   N25       1.0  0.43707952443659787  0.18611483470732545  0.1561811423024295  1.0000
  N   N26       1.0  0.5629211755897147  0.8138852139426549  0.6561809914183812  1.0000
  N   N27       1.0  0.8138847306487805  0.5629192676921307  0.343819143043838  1.0000
  N   N28       1.0  0.18611461088883632  0.4370796448870779  0.8438185056521235  1.0000
  N   N29       1.0  0.3180833522334794  0.24685808554978914  0.1293239167265554  1.0000
  N   N30       1.0  0.6819172901643283  0.7531408991796839  0.6293237199415173  1.0000
  N   N31       1.0  0.7531415525201056  0.6819171353210721  0.3706763990371655  1.0000
  N   N32       1.0  0.2468589157277066  0.3180828441426513  0.8706757467112922  1.0000
  N   N33       1.0  0.6107100393976382  0.11136808322508782  0.4547901126851599  1.0000
  N   N34       1.0  0.3892903379584638  0.8886318691073214  0.9547900301175076  1.0000
  N   N35       1.0  0.8886318193255393  0.38929006870598226  0.045210130627722805  1.0000
  N   N36       1.0  0.1113679315317739  0.6107100127741136  0.5452101958021913  1.0000
  N   N37       1.0  0.21995474586911706  0.7800445718758626  0.2500002113011064  1.0000
  N   N38       1.0  0.7800447836971215  0.21995544354849278  0.749999336499414  1.0000
  O   O1        1.0  0.5408549263452259  0.18808071113544148  0.508772479425275  1.0000
  O   O2        1.0  0.4591448638861593  0.8119193820978767  0.0087718734625284  1.0000
  O   O3        1.0  0.8119192835423235  0.4591452094821023  0.9912276022896265  1.0000
  O   O4        1.0  0.18808105444007592  0.5408547310971914  0.49122782723927116  1.0000
  O   O5        1.0  0.7037259413077309  0.035040284946134606  0.48784036353637816  1.0000
  O   O6        1.0  0.296274400334987  0.9649596567257679  0.9878403140626731  1.0000
  O   O7        1.0  0.9649595776222881  0.2962743194405491  0.0121591643023393  1.0000
  O   O8        1.0  0.03503913986746448  0.7037257697362591  0.5121592536996431  1.0000
  O   O9        1.0  0.5844053761957754  0.1117058750608919  0.3692877215436355  1.0000
  O   O10       1.0  0.41559402447099103  0.8882941018867643  0.8692869407496318  1.0000
  O   O11       1.0  0.8882931473574659  0.41559476682139973  0.1307132130940687  1.0000
  O   O12       1.0  0.1117065111074922  0.5844052870794344  0.6307125938454802  1.0000
  O   O13       1.0  0.2527525077308396  0.9091255246838801  0.224002842901406  1.0000
  O   O14       1.0  0.7472481190103509  0.09087450209037942  0.7239999343846648  1.0000
  O   O15       1.0  0.0908728842171129  0.7472472365088622  0.2759982828110168  1.0000
  O   O16       1.0  0.9091254615243118  0.25275169498217315  0.7759980355040312  1.0000
  O   O17       1.0  0.3107896865893168  0.689209435268289  0.2500008827448781  1.0000
  O   O18       1.0  0.6892097563266973  0.3107895075725296  0.7499993518716012  1.0000
