data_image0
_chemical_formula_structural       Zn2H26C52N2O12F6
_chemical_formula_sum              "Zn2 H26 C52 N2 O12 F6"
_cell_length_a       13.55429768393449
_cell_length_b       18.251254207462992
_cell_length_c       19.63507319931414
_cell_angle_alpha    88.47888198417633
_cell_angle_beta     89.95204650798053
_cell_angle_gamma    114.95751165728227

_space_group_name_H-M_alt    "P 1"
_space_group_IT_number       1

loop_
  _space_group_symop_operation_xyz
  'x, y, z'

loop_
  _atom_site_type_symbol
  _atom_site_label
  _atom_site_symmetry_multiplicity
  _atom_site_fract_x
  _atom_site_fract_y
  _atom_site_fract_z
  _atom_site_occupancy
  Zn  Zn1       1.0  0.47791203864565535  0.4175707387102816  0.5018524360293597  1.0000
  Zn  Zn2       1.0  0.5190629086366911  0.5816318913306019  0.4968772203787637  1.0000
  H   H1        1.0  0.8569644700633817  0.6783836901269353  0.5778134035285376  1.0000
  H   H2        1.0  0.5814133660730576  0.41416813455753493  0.7118894249458024  1.0000
  H   H3        1.0  0.3977524072175597  0.39124335821245637  0.9400222727665196  1.0000
  H   H4        1.0  0.39620484683440776  0.39280117574355683  0.06664196831641078  1.0000
  H   H5        1.0  0.5661514975614779  0.6315532583245371  0.1531193057745028  1.0000
  H   H6        1.0  0.5478513853511869  0.627990479632615  0.279547205584997  1.0000
  H   H7        1.0  0.4851984586425573  0.37717884271098256  0.2868530194535026  1.0000
  H   H8        1.0  0.18595865473327666  0.6502970673156978  0.6161552199858562  1.0000
  H   H9        1.0  0.5053363281529855  0.37992869455016626  0.1603383472703328  1.0000
  H   H10       1.0  0.5980156485178441  0.3417257212660657  0.5781374462121391  1.0000
  H   H11       1.0  0.6157411576297276  0.21054683123897178  0.5821014232114763  1.0000
  H   H12       1.0  0.38892706273606586  0.13441600134832038  0.4157402125830174  1.0000
  H   H13       1.0  0.3831176134385004  0.2697456865250345  0.4183188643962481  1.0000
  H   H14       1.0  0.5091821646604088  0.07336521537850157  0.3905902707774089  1.0000
  H   H15       1.0  0.5038610683755634  0.9328694014224724  0.6114341721260814  1.0000
  H   H16       1.0  0.6435166869828135  0.7376487305519532  0.5654470078775732  1.0000
  H   H17       1.0  0.3797482853627371  0.6553348981628558  0.4357417440781716  1.0000
  H   H18       1.0  0.36750850208680663  0.7888616336319245  0.4355640277120969  1.0000
  H   H19       1.0  0.13850356055947796  0.3118395045960654  0.4612417933907906  1.0000
  H   H20       1.0  0.8611819301931048  0.36765682686974077  0.47065764183196995  1.0000
  H   H21       1.0  0.9392526970565525  0.2729397346650018  0.44424955251898274  1.0000
  H   H22       1.0  0.26640422308253153  0.5604143068416434  0.5766706651715553  1.0000
  H   H23       1.0  0.4687533049297769  0.5934912350722001  0.9024351198512762  1.0000
  H   H24       1.0  0.631087227925704  0.3768835140253088  0.8142988999841094  1.0000
  H   H25       1.0  0.698075745315073  0.6176818613948143  0.880316081795975  1.0000
  H   H26       1.0  0.5153338393097328  0.8842192635225529  0.3826211163233211  1.0000
  C   C1        1.0  0.5025116903252281  0.5003906447189621  0.3668323325537273  1.0000
  C   C2        1.0  0.010715521764595191  0.4609779582720248  0.5085933258162854  1.0000
  C   C3        1.0  0.12229377049387571  0.47988897096603705  0.5233201679983424  1.0000
  C   C4        1.0  0.9677288000182356  0.5194403316134882  0.5252487798036113  1.0000
  C   C5        1.0  0.03282829246342076  0.5877485183735941  0.5644960906134457  1.0000
  C   C6        1.0  0.13980704280468362  0.5996769319891443  0.584049455759299  1.0000
  C   C7        1.0  0.18388055405308978  0.5494151038402108  0.5624491426405598  1.0000
  C   C8        1.0  0.8651876930620969  0.5146293873313252  0.5045793442393887  1.0000
  C   C9        1.0  0.8882263283184598  0.6350445071714502  0.5630368456539401  1.0000
  C   C10       1.0  0.1676065374599104  0.4261066171514399  0.502545503454364  1.0000
  C   C11       1.0  0.4879843553722906  0.5542283642343336  0.7477568524037679  1.0000
  C   C12       1.0  0.28760091112970076  0.4488438233018285  0.504020925393661  1.0000
  C   C13       1.0  0.49725542285843716  0.5547728007267451  0.8189929297023042  1.0000
  C   C14       1.0  0.5391521857329022  0.5049949668221172  0.8525496398218095  1.0000
  C   C15       1.0  0.5709561777785551  0.45504830860399176  0.8130819883352061  1.0000
  C   C16       1.0  0.5593671147880099  0.4539872504038981  0.7426918071186321  1.0000
  C   C17       1.0  0.5177054652645621  0.503502882118404  0.7090383528718789  1.0000
  C   C18       1.0  0.4608942618078514  0.44029621134710334  0.966684036354991  1.0000
  C   C19       1.0  0.46052188869878546  0.4409095032536782  0.0373578375360424  1.0000
  C   C20       1.0  0.5399438858886613  0.5048071616813844  0.0727284276544324  1.0000
  C   C21       1.0  0.6202777038670817  0.5664022959963404  0.0338406961284292  1.0000
  C   C22       1.0  0.6230737300290912  0.566617800399129  0.9623926112139783  1.0000
  C   C23       1.0  0.5068713104673747  0.49905415306857026  0.6328921732173782  1.0000
  C   C24       1.0  0.5410781290456723  0.5031211297276598  0.9281922355735474  1.0000
  C   C25       1.0  0.5488337028160614  0.5757089439314239  0.1822210025577533  1.0000
  C   C26       1.0  0.5381315146191028  0.5738754354861939  0.25278795416953415  1.0000
  C   C27       1.0  0.5140740686906112  0.502178520485728  0.2908320039738613  1.0000
  C   C28       1.0  0.5021054218702972  0.4323830290745434  0.2569258062252544  1.0000
  C   C29       1.0  0.5129056697054608  0.4341053533777597  0.1863731940698656  1.0000
  C   C30       1.0  0.5355483660960444  0.5056027332735978  0.1478928198662857  1.0000
  C   C31       1.0  0.553230203507674  0.29347824661906696  0.5434882789045831  1.0000
  C   C32       1.0  0.5623661175172288  0.2205064719930192  0.5453095039792544  1.0000
  C   C33       1.0  0.5023434639666958  0.16048539640624426  0.4994922542813924  1.0000
  C   C34       1.0  0.7095138424026999  0.5572468717721364  0.5066868639227096  1.0000
  C   C35       1.0  0.4375807547080441  0.17878583160093336  0.45230337998564357  1.0000
  C   C36       1.0  0.4326601626273288  0.25320006463945777  0.4538316435223564  1.0000
  C   C37       1.0  0.506253944607181  0.04259326263679239  0.43939762726708415  1.0000
  C   C38       1.0  0.5065414128730905  0.9662039026902673  0.43910900671539105  1.0000
  C   C39       1.0  0.505530511786162  0.9250243177491199  0.5013159970569205  1.0000
  C   C40       1.0  0.5057452782723216  0.9630255471936451  0.5625200783184355  1.0000
  C   C41       1.0  0.5058432605798656  0.03880104701850229  0.561315248449425  1.0000
  C   C42       1.0  0.5057230339228198  0.0807412679411215  0.5003056416071345  1.0000
  C   C43       1.0  0.5811996403089805  0.8262657497918581  0.5393250527081648  1.0000
  C   C44       1.0  0.58385532390664  0.7511896113797576  0.536995841088121  1.0000
  C   C45       1.0  0.9893860487344313  0.6427865997740198  0.5821573537815468  1.0000
  C   C46       1.0  0.43732198539443334  0.7063431087720246  0.4635199798260672  1.0000
  C   C47       1.0  0.4317255398915874  0.7806709116329952  0.46362731177472233  1.0000
  C   C48       1.0  0.5058880514376722  0.8443514040339151  0.5017640087419935  1.0000
  C   C49       1.0  0.8232738832967141  0.5691706856748694  0.5232571361252029  1.0000
  C   C50       1.0  0.10173015814783065  0.3522201694921776  0.4752370341613741  1.0000
  C   C51       1.0  0.9909486740362041  0.3313052241246126  0.4652190937234764  1.0000
  C   C52       1.0  0.9467626141425144  0.38501322552768613  0.48022945670950895  1.0000
  N   N1        1.0  0.48830248433301177  0.30912327424130126  0.4992892941971975  1.0000
  N   N2        1.0  0.5130567406332176  0.6926616534612292  0.4989379160064474  1.0000
  O   O1        1.0  0.46668017193258027  0.43153629375795777  0.3976107425765676  1.0000
  O   O2        1.0  0.5298430000886895  0.5683265831106397  0.3950594458782319  1.0000
  O   O3        1.0  0.3178728570402782  0.39229649762211943  0.515037621172219  1.0000
  O   O4        1.0  0.3502717231435567  0.5226830761184686  0.49087749475997816  1.0000
  O   O5        1.0  0.50308516279334  0.43492806471520135  0.6066089366661344  1.0000
  O   O6        1.0  0.5039603322051746  0.5595185978122785  0.6008586691895843  1.0000
  O   O7        1.0  0.6429396428389609  0.48598650636878926  0.49255910231083533  1.0000
  O   O8        1.0  0.6863603007287293  0.617863420353018  0.5105731919523394  1.0000
  O   O9        1.0  0.46232812195864864  0.603215447772662  0.8536569439460706  1.0000
  O   O10       1.0  0.612153777415912  0.4077794384711879  0.8474333044950271  1.0000
  O   O11       1.0  0.7059318458367299  0.628602477706444  0.9290659951020005  1.0000
  O   O12       1.0  0.5109292350919075  0.9360792213815897  0.3767356283163679  1.0000
  F   F1        1.0  0.7016568861678891  0.6284051616734131  0.0649490973754396  1.0000
  F   F2        1.0  0.5022830968023939  0.07195747314399628  0.6223041391191658  1.0000
  F   F3        1.0  0.6555223133848073  0.8833057321513635  0.5781061035753084  1.0000
  F   F4        1.0  0.05261581000932122  0.7073463614395691  0.6202603910760303  1.0000
  F   F5        1.0  0.8056958232441717  0.4550020400529604  0.461781895858941  1.0000
  F   F6        1.0  0.44462256850805193  0.6024590810473002  0.7192737857944778  1.0000
