data_image0
_chemical_formula_structural       Zn32H96C192O104
_chemical_formula_sum              "Zn32 H96 C192 O104"
_cell_length_a       25.73997773003595
_cell_length_b       25.740026594005254
_cell_length_c       25.739981667033284
_cell_angle_alpha    89.99996375269554
_cell_angle_beta     89.99981934897028
_cell_angle_gamma    89.99993634022553

_space_group_name_H-M_alt    "P 1"
_space_group_IT_number       1

loop_
  _space_group_symop_operation_xyz
  'x, y, z'

loop_
  _atom_site_type_symbol
  _atom_site_label
  _atom_site_symmetry_multiplicity
  _atom_site_fract_x
  _atom_site_fract_y
  _atom_site_fract_z
  _atom_site_occupancy
  Zn  Zn1       1.0  0.186738263409346  0.8281135747518035  0.23206526597458324  1.0000
  Zn  Zn2       1.0  0.3132600935712945  0.17188597431766084  0.7320656299066145  1.0000
  Zn  Zn3       1.0  0.8132611711803152  0.3281098468841322  0.2679339257335727  1.0000
  Zn  Zn4       1.0  0.6867394918868044  0.6718860158619863  0.767935538217536  1.0000
  Zn  Zn5       1.0  0.23206677894349778  0.1867387320055585  0.8281128301533797  1.0000
  Zn  Zn6       1.0  0.7320658449223246  0.3132622299187276  0.1718850389491919  1.0000
  Zn  Zn7       1.0  0.26793399466638596  0.8132611447024589  0.3281137736372983  1.0000
  Zn  Zn8       1.0  0.7679355095255574  0.686735636188139  0.6718852205808189  1.0000
  Zn  Zn9       1.0  0.8281152892526932  0.23206567454147384  0.18674079012958336  1.0000
  Zn  Zn10      1.0  0.17188852554404122  0.7320658709642842  0.313260793240616  1.0000
  Zn  Zn11      1.0  0.3281142374036961  0.26793362665350173  0.8132618266867766  1.0000
  Zn  Zn12      1.0  0.6718879608563738  0.7679341246519371  0.6867381152650793  1.0000
  Zn  Zn13      1.0  0.8132624121170908  0.17188840465575345  0.7679331656853918  1.0000
  Zn  Zn14      1.0  0.6867382509500642  0.8281128970908045  0.2679343557606728  1.0000
  Zn  Zn15      1.0  0.1867379503445861  0.6718874705241973  0.7320652829316501  1.0000
  Zn  Zn16      1.0  0.3132615721357013  0.3281144095442984  0.2320663899483009  1.0000
  Zn  Zn17      1.0  0.7679346735830139  0.8132613049011399  0.1718871555086494  1.0000
  Zn  Zn18      1.0  0.26793444210468215  0.6867374184891164  0.8281133927121331  1.0000
  Zn  Zn19      1.0  0.7320674578574541  0.18673928070373347  0.6718877660272683  1.0000
  Zn  Zn20      1.0  0.23206361200121253  0.3132605157204722  0.3281132110834406  1.0000
  Zn  Zn21      1.0  0.171886163268276  0.7679355278641966  0.8132623035373995  1.0000
  Zn  Zn22      1.0  0.8281113729826685  0.2679330004438044  0.6867376384215617  1.0000
  Zn  Zn23      1.0  0.6718876036243701  0.7320660217531128  0.1867377704740889  1.0000
  Zn  Zn24      1.0  0.3281123261721035  0.23206396975609073  0.3132599278960697  1.0000
  Zn  Zn25      1.0  0.2656843787149797  0.7343144817890349  0.23431497850977934  1.0000
  Zn  Zn26      1.0  0.23431474817613213  0.26568312335498234  0.7343139780725636  1.0000
  Zn  Zn27      1.0  0.7343155485782092  0.23431433957004802  0.2656854379442564  1.0000
  Zn  Zn28      1.0  0.7656843445784036  0.7656846326015981  0.7656855768046782  1.0000
  Zn  Zn29      1.0  0.7343128003011117  0.2656855551195462  0.7656865611616368  1.0000
  Zn  Zn30      1.0  0.7656839848477901  0.7343157480536321  0.2656848420921207  1.0000
  Zn  Zn31      1.0  0.2656855154472169  0.765684143336671  0.7343153247201997  1.0000
  Zn  Zn32      1.0  0.23431516544124523  0.23431462730546573  0.2343167398646457  1.0000
  H   H1        1.0  0.17490323615796646  0.8382523186308293  0.0643371122373821  1.0000
  H   H2        1.0  0.16837423162242257  0.8196207418930543  0.9685786426887191  1.0000
  H   H3        1.0  0.2720812977665688  0.7040321175232409  0.0834931922474382  1.0000
  H   H4        1.0  0.2662597526354419  0.6858589703449526  0.9878365086131423  1.0000
  H   H5        1.0  0.32509759224202384  0.16174772521809896  0.5643343372536691  1.0000
  H   H6        1.0  0.3316276530552074  0.18037865731051989  0.4685751231142489  1.0000
  H   H7        1.0  0.22791908172164452  0.2959667486867872  0.5834937468498964  1.0000
  H   H8        1.0  0.23374051730478126  0.3141404166554763  0.4878374866481394  1.0000
  H   H9        1.0  0.8250977411649457  0.3382515793305459  0.43566479256817553  1.0000
  H   H10       1.0  0.8316282977150279  0.3196190859821543  0.5314228206191203  1.0000
  H   H11       1.0  0.7279209941760031  0.20403266384446545  0.41650530082640813  1.0000
  H   H12       1.0  0.7337425368099134  0.1858578239070568  0.5121615426761181  1.0000
  H   H13       1.0  0.6749047239866145  0.6617468966331405  0.935665671768021  1.0000
  H   H14       1.0  0.6683750536637448  0.6803800346260476  0.0314245504007715  1.0000
  H   H15       1.0  0.7720823083960441  0.7959658242594191  0.9165050118952892  1.0000
  H   H16       1.0  0.7662604868083704  0.8141409204064943  0.0121621023826535  1.0000
  H   H17       1.0  0.06433546668080942  0.1749027813763533  0.8382521886406309  1.0000
  H   H18       1.0  0.9685775407656722  0.16837315410429451  0.8196213814808431  1.0000
  H   H19       1.0  0.0834937605567774  0.27207909203157504  0.7040333064382054  1.0000
  H   H20       1.0  0.9878380092174056  0.26625847703435573  0.6858597641763922  1.0000
  H   H21       1.0  0.5643357169810982  0.3250964244271515  0.161749317243526  1.0000
  H   H22       1.0  0.46857647137091624  0.3316267680113825  0.1803792385215743  1.0000
  H   H23       1.0  0.5834929185723042  0.22792086948444287  0.2959669735483885  1.0000
  H   H24       1.0  0.4878358497654888  0.2337414236798239  0.3141411836092587  1.0000
  H   H25       1.0  0.43566294395392186  0.8250974774087609  0.3382514303727078  1.0000
  H   H26       1.0  0.5314210168130346  0.8316257838929249  0.31961839696710104  1.0000
  H   H27       1.0  0.41650623882648574  0.7279200863000668  0.20403111594143303  1.0000
  H   H28       1.0  0.5121633011626515  0.7337417112176968  0.18585923320782172  1.0000
  H   H29       1.0  0.9356648924275321  0.6749022251027059  0.6617489775770055  1.0000
  H   H30       1.0  0.031423602596717594  0.6683720368072417  0.6803809543620006  1.0000
  H   H31       1.0  0.916504548085257  0.7720804144999465  0.7959697409064717  1.0000
  H   H32       1.0  0.0121614713956504  0.7662576848830511  0.8141425098422133  1.0000
  H   H33       1.0  0.8382521620001029  0.06433507672578288  0.1748997153477703  1.0000
  H   H34       1.0  0.8196207292579702  0.968575802145921  0.1683707054668062  1.0000
  H   H35       1.0  0.7040323792899771  0.08349555137324671  0.2720790887562146  1.0000
  H   H36       1.0  0.6858582107264726  0.9878388403114189  0.2662587033354171  1.0000
  H   H37       1.0  0.16174756563705028  0.5643356654132392  0.3250973119634963  1.0000
  H   H38       1.0  0.18037932628347872  0.4685773991694406  0.3316280090186581  1.0000
  H   H39       1.0  0.2959681040623039  0.5834937214938238  0.2279187034537387  1.0000
  H   H40       1.0  0.31414143491340957  0.48783685422562684  0.2337415529874747  1.0000
  H   H41       1.0  0.33824933247439054  0.435662659207509  0.8250989845084576  1.0000
  H   H42       1.0  0.3196206592425668  0.5314228638121322  0.8316273488080342  1.0000
  H   H43       1.0  0.20403065449077937  0.4165058302020626  0.7279215882313465  1.0000
  H   H44       1.0  0.18585885928515467  0.5121638592807402  0.7337413266296907  1.0000
  H   H45       1.0  0.6617480174304332  0.9356658954700022  0.6749043480144152  1.0000
  H   H46       1.0  0.6803794707631072  0.0314243971872727  0.6683742965353829  1.0000
  H   H47       1.0  0.7959659396958186  0.9165053592468697  0.7720825333951424  1.0000
  H   H48       1.0  0.8141401266156905  0.012161685497204604  0.7662607193818189  1.0000
  H   H49       1.0  0.8250970508618992  0.16174694127555972  0.9356659814320452  1.0000
  H   H50       1.0  0.8316272209003799  0.18038046051298556  0.0314232854762651  1.0000
  H   H51       1.0  0.7279182122567465  0.295967142384562  0.9165067934178879  1.0000
  H   H52       1.0  0.7337424768929495  0.31414028956133694  0.0121634770479062  1.0000
  H   H53       1.0  0.674901917781476  0.8382523116898002  0.43566525991074917  1.0000
  H   H54       1.0  0.6683722454702801  0.8196202140973273  0.5314240855492613  1.0000
  H   H55       1.0  0.7720804283033332  0.7040317342212818  0.4165054618143529  1.0000
  H   H56       1.0  0.7662582157170518  0.6858600087528401  0.5121621105173801  1.0000
  H   H57       1.0  0.1749056538674907  0.661746515075379  0.5643344160900696  1.0000
  H   H58       1.0  0.16837509731658426  0.6803793969236411  0.46857677653967034  1.0000
  H   H59       1.0  0.27208278935816566  0.7959658190614789  0.5834931308297726  1.0000
  H   H60       1.0  0.2662596927217963  0.8141398819997792  0.48783688898275557  1.0000
  H   H61       1.0  0.3250955630367116  0.3382527517739718  0.0643350908972948  1.0000
  H   H62       1.0  0.331624844857636  0.31961961378102893  0.9685769892664808  1.0000
  H   H63       1.0  0.22791875563100214  0.20403304714765375  0.0834945852670543  1.0000
  H   H64       1.0  0.23374057721720481  0.18585950500040133  0.987837883279859  1.0000
  H   H65       1.0  0.9356652088407602  0.8250980325301356  0.1617497395257033  1.0000
  H   H66       1.0  0.03142352325460251  0.8316268828015082  0.1803821006877797  1.0000
  H   H67       1.0  0.9165061379642053  0.7279201678753964  0.2959686217298412  1.0000
  H   H68       1.0  0.012162277804876  0.7337419483726039  0.3141413869893412  1.0000
  H   H69       1.0  0.43566495854256004  0.674902835479628  0.8382518339219657  1.0000
  H   H70       1.0  0.5314242041549734  0.6683728803958857  0.8196203586411315  1.0000
  H   H71       1.0  0.41650659144997343  0.7720791674232147  0.7040334006173624  1.0000
  H   H72       1.0  0.5121636602565686  0.7662590017278105  0.6858591905563715  1.0000
  H   H73       1.0  0.5643354005684104  0.17490294800001752  0.6617473897920974  1.0000
  H   H74       1.0  0.4685765507107647  0.16837269901672158  0.6803792576975454  1.0000
  H   H75       1.0  0.5834932711992166  0.2720815046083942  0.7959665387191706  1.0000
  H   H76       1.0  0.48783582036135437  0.2662583256906644  0.8141395869558822  1.0000
  H   H77       1.0  0.06433384059452152  0.3250978118056196  0.3382506195886421  1.0000
  H   H78       1.0  0.968575518922961  0.3316291656003401  0.31962019680532444  1.0000
  H   H79       1.0  0.08349457343449271  0.22791845690746734  0.2040321872629249  1.0000
  H   H80       1.0  0.9878380386274941  0.23374079802465536  0.1858578643240278  1.0000
  H   H81       1.0  0.1617489020297214  0.9356665141820601  0.8250971623090493  1.0000
  H   H82       1.0  0.18037994626932632  0.0314246232616853  0.8316277261936591  1.0000
  H   H83       1.0  0.29596868473758065  0.9165068165342091  0.7279189544023624  1.0000
  H   H84       1.0  0.31414246479956637  0.012162750596026202  0.733740116825345  1.0000
  H   H85       1.0  0.8382511673882788  0.4356639829957204  0.6749003426989475  1.0000
  H   H86       1.0  0.8196201837365608  0.5314222492377284  0.6683739191498788  1.0000
  H   H87       1.0  0.7040302404620816  0.41650631541533295  0.7720789512091955  1.0000
  H   H88       1.0  0.6858592406089842  0.5121635711809915  0.7662599866783069  1.0000
  H   H89       1.0  0.661748235041273  0.5643350467004353  0.1749041091657446  1.0000
  H   H90       1.0  0.680380404782028  0.46857600759445023  0.1683738023569674  1.0000
  H   H91       1.0  0.7959665245224342  0.5834949837060038  0.2720815054424932  1.0000
  H   H92       1.0  0.8141414277374893  0.48783812012641914  0.2662590475342199  1.0000
  H   H93       1.0  0.33824993858930696  0.06433569543870732  0.3250952491519641  1.0000
  H   H94       1.0  0.31962198176336903  0.9685768052195061  0.3316253006256034  1.0000
  H   H95       1.0  0.2040327933248633  0.0834927351610304  0.22791861777378133  1.0000
  H   H96       1.0  0.1858605489108882  0.9878356319100164  0.233739266282285  1.0000
  C   C1        1.0  0.2279564244660719  0.7812294036752975  0.136527074726537  1.0000
  C   C2        1.0  0.22406723899943867  0.7722387572780394  0.0792593661403629  1.0000
  C   C3        1.0  0.1945901674461226  0.8049477632369817  0.0471692473281493  1.0000
  C   C4        1.0  0.1910148618951197  0.7946459995388296  0.9941571101848865  1.0000
  C   C5        1.0  0.24975069106683634  0.729149827715368  0.0578677156369523  1.0000
  C   C6        1.0  0.24643181832131944  0.7190305871382279  0.0050203670769449  1.0000
  C   C7        1.0  0.21487323334200434  0.7408527488973818  0.9157867928778387  1.0000
  C   C8        1.0  0.2170681664231964  0.7517369452387329  0.9728474326820375  1.0000
  C   C9        1.0  0.2720433992840158  0.21876981743024265  0.6365283159858919  1.0000
  C   C10       1.0  0.2759315998369233  0.2277601116156163  0.5792598124605846  1.0000
  C   C11       1.0  0.30541032658624084  0.1950522914896809  0.5471688443765785  1.0000
  C   C12       1.0  0.3089869421210665  0.20535377195663784  0.4941552002136476  1.0000
  C   C13       1.0  0.2502489922284211  0.27084750073265706  0.5578678272074242  1.0000
  C   C14       1.0  0.2535684201215389  0.2809675517957261  0.50502085029256  1.0000
  C   C15       1.0  0.2851245442902695  0.2591505687579314  0.4157884206548559  1.0000
  C   C16       1.0  0.2829325392862713  0.24826206275960067  0.47284713174678217  1.0000
  C   C17       1.0  0.7720422852049253  0.2812318770717682  0.36347214659399185  1.0000
  C   C18       1.0  0.7759314806600414  0.27223963606551393  0.42074024936002274  1.0000
  C   C19       1.0  0.8054108468811733  0.3049466464351199  0.4528299590087812  1.0000
  C   C20       1.0  0.8089876951907726  0.29464516199411867  0.5058424263939756  1.0000
  C   C21       1.0  0.7502511844693701  0.229149944485684  0.44213153857405973  1.0000
  C   C22       1.0  0.7535708454600397  0.21902988973410942  0.4949781165233063  1.0000
  C   C23       1.0  0.7851262755007015  0.2408495572065874  0.5842131661843624  1.0000
  C   C24       1.0  0.7829340498332442  0.2517361231418178  0.527151353998434  1.0000
  C   C25       1.0  0.7279576880940867  0.7187678101380967  0.863471657021563  1.0000
  C   C26       1.0  0.7240698660540305  0.7277604033561432  0.9207393778657363  1.0000
  C   C27       1.0  0.6945919526441388  0.6950518186520541  0.9528299781070899  1.0000
  C   C28       1.0  0.6910141828524486  0.705353974824277  0.0058425150260248  1.0000
  C   C29       1.0  0.7497512602911555  0.770848527380622  0.9421317244061882  1.0000
  C   C30       1.0  0.7464314326541912  0.7809689371462698  0.9949786949295004  1.0000
  C   C31       1.0  0.714874189906567  0.759150306953366  0.08421353411667812  1.0000
  C   C32       1.0  0.7170673725132204  0.7482626116743633  0.0271521103954271  1.0000
  C   C33       1.0  0.1365278972639672  0.22795903707148582  0.7812325924596665  1.0000
  C   C34       1.0  0.07925979878795891  0.22406902136750526  0.7722396705596353  1.0000
  C   C35       1.0  0.047170380738364805  0.19459042681136657  0.804948378455677  1.0000
  C   C36       1.0  0.9941580092788486  0.19101337305325225  0.7946469572471669  1.0000
  C   C37       1.0  0.0578682255600427  0.2497500615517937  0.7291514758907597  1.0000
  C   C38       1.0  0.0050220437933959005  0.24642997322942514  0.7190307294095462  1.0000
  C   C39       1.0  0.9157866066698547  0.21487393734864924  0.7408490551307523  1.0000
  C   C40       1.0  0.9728491862165853  0.21706581912249595  0.7517378611372222  1.0000
  C   C41       1.0  0.6365284152028609  0.27204319651261955  0.21876829733382414  1.0000
  C   C42       1.0  0.5792591185452451  0.2759321103528621  0.2277613997753463  1.0000
  C   C43       1.0  0.5471697708905765  0.30540918656646454  0.19505240454177653  1.0000
  C   C44       1.0  0.49415766328385763  0.3089869091373316  0.20535358211086674  1.0000
  C   C45       1.0  0.5578670494742682  0.2502507054390152  0.2708492733819696  1.0000
  C   C46       1.0  0.5050208321053091  0.25357007548351623  0.2809697979618448  1.0000
  C   C47       1.0  0.4157876715445142  0.28512604342728315  0.2591490117885016  1.0000
  C   C48       1.0  0.4728483453569653  0.2829333212467234  0.2482619683972729  1.0000
  C   C49       1.0  0.36347341268304234  0.7720424233427255  0.2812297642830472  1.0000
  C   C50       1.0  0.42074192801530336  0.7759332217443246  0.2722382133884906  1.0000
  C   C51       1.0  0.45283124292126337  0.8054098530745936  0.3049479670051412  1.0000
  C   C52       1.0  0.5058429580569523  0.808985192267244  0.2946448446743162  1.0000
  C   C53       1.0  0.4421324716174126  0.7502494893635191  0.2291491905040104  1.0000
  C   C54       1.0  0.4949786852960614  0.75356919559826  0.2190302178301025  1.0000
  C   C55       1.0  0.5842129763003355  0.7851266045598421  0.2408513725703543  1.0000
  C   C56       1.0  0.5271519164281174  0.7829316078869228  0.2517360863438967  1.0000
  C   C57       1.0  0.8634743454058693  0.7279577478862012  0.7187681517429425  1.0000
  C   C58       1.0  0.9207401171950949  0.7240684398488287  0.7277634071074388  1.0000
  C   C59       1.0  0.9528303449967838  0.6945898303607766  0.6950539408281885  1.0000
  C   C60       1.0  0.005843497430717501  0.6910134338556592  0.7053557527952847  1.0000
  C   C61       1.0  0.9421316618935478  0.7497498174607671  0.7708508085541439  1.0000
  C   C62       1.0  0.9949794013530424  0.746429275502827  0.7809707801287686  1.0000
  C   C63       1.0  0.08421254253226351  0.7148750424794131  0.7591501433381822  1.0000
  C   C64       1.0  0.027153457054524197  0.7170658290576027  0.7482632784454281  1.0000
  C   C65       1.0  0.7812310098918472  0.13652771320219165  0.2279549872719215  1.0000
  C   C66       1.0  0.7722403640612542  0.0792612673287252  0.22406807037361176  1.0000
  C   C67       1.0  0.8049467503717909  0.04717038256191591  0.1945878214773131  1.0000
  C   C68       1.0  0.794645133265675  0.9941565905002112  0.1910121670237075  1.0000
  C   C69       1.0  0.7291521085861418  0.05786853134181772  0.24974881601955454  1.0000
  C   C70       1.0  0.7190316992980286  0.0050212732694703  0.2464298874789463  1.0000
  C   C71       1.0  0.7408486668329387  0.9157883954290186  0.21487476442899123  1.0000
  C   C72       1.0  0.7517371414931732  0.9728469932923504  0.2170654844971764  1.0000
  C   C73       1.0  0.2187709685464867  0.6365267181451415  0.2720427714390041  1.0000
  C   C74       1.0  0.22776051249110912  0.5792602598181987  0.2759324440145932  1.0000
  C   C75       1.0  0.19505338483372733  0.5471693927153822  0.3054107706781153  1.0000
  C   C76       1.0  0.20535567085940443  0.49415584311744004  0.3089865313038658  1.0000
  C   C77       1.0  0.2708495687360895  0.5578682692246135  0.2502501578766712  1.0000
  C   C78       1.0  0.28096848273227687  0.5050209978043938  0.253569119799252  1.0000
  C   C79       1.0  0.25914833934314163  0.4157895458898295  0.2851267029078883  1.0000
  C   C80       1.0  0.24826290930612066  0.47284660324003636  0.2829320617891398  1.0000
  C   C81       1.0  0.2812307588751183  0.36347280559072465  0.7720438923401218  1.0000
  C   C82       1.0  0.27223887166154975  0.4207396499545412  0.7759327800868406  1.0000
  C   C83       1.0  0.304945517862393  0.4528297213789402  0.8054109833718853  1.0000
  C   C84       1.0  0.29464399756242443  0.5058432687106987  0.8089867429900224  1.0000
  C   C85       1.0  0.2291510619044317  0.4421308798207094  0.7502510047755919  1.0000
  C   C86       1.0  0.2190313604416403  0.49497892613855043  0.7535691882183713  1.0000
  C   C87       1.0  0.2408517928188942  0.584213077557017  0.7851254806743384  1.0000
  C   C88       1.0  0.2517368412741803  0.527153302097112  0.7829327837823854  1.0000
  C   C89       1.0  0.7187690022369679  0.8634736138759537  0.7279583202745955  1.0000
  C   C90       1.0  0.7277596603272939  0.9207385082127787  0.724070173360623  1.0000
  C   C91       1.0  0.6950533669754505  0.9528294116587405  0.6945923383065562  1.0000
  C   C92       1.0  0.7053549953603663  0.005843205986813901  0.6910145300117208  1.0000
  C   C93       1.0  0.7708470578189762  0.9421308394275344  0.749751546660292  1.0000
  C   C94       1.0  0.7809674775748832  0.994978099603287  0.7464313873331817  1.0000
  C   C95       1.0  0.7591486670456292  0.0842098319401572  0.7148741888231526  1.0000
  C   C96       1.0  0.7482632934788  0.027152009686176412  0.717067310256013  1.0000
  C   C97       1.0  0.7720426970544311  0.21877141023242078  0.8634736879402497  1.0000
  C   C98       1.0  0.7759334365239996  0.2277608911287318  0.9207417850250011  1.0000
  C   C99       1.0  0.8054101195759813  0.19505188516988178  0.952832292338492  1.0000
  C   C100      1.0  0.8089862021259151  0.20535597986727797  0.005845206481126299  1.0000
  C   C101      1.0  0.7502499844582643  0.2708490436916762  0.9421326585273349  1.0000
  C   C102      1.0  0.7535684687042803  0.28096828426927806  0.9949792300866207  1.0000
  C   C103      1.0  0.7851254996812076  0.25914961901136735  0.0842112502844117  1.0000
  C   C104      1.0  0.7829313435980724  0.2482627031686846  0.0271537184851667  1.0000
  C   C105      1.0  0.7279553337330712  0.7812325504772704  0.3634736121830072  1.0000
  C   C106      1.0  0.7240679101872588  0.7722375942922355  0.4207401732052389  1.0000
  C   C107      1.0  0.694588794937971  0.8049473569186959  0.452829975787246  1.0000
  C   C108      1.0  0.6910129564056077  0.7946462649515382  0.5058428429475015  1.0000
  C   C109      1.0  0.7497497407949253  0.7291502051757492  0.4421317699589551  1.0000
  C   C110      1.0  0.7464299244004309  0.7190313196128598  0.4949787468740681  1.0000
  C   C111      1.0  0.7148757427291342  0.7408506336485134  0.584214284513294  1.0000
  C   C112      1.0  0.7170658052346184  0.7517387511489205  0.5271524654192277  1.0000
  C   C113      1.0  0.22795839032010431  0.718769325335444  0.6365274505682237  1.0000
  C   C114      1.0  0.22406880636429352  0.7277604008418309  0.5792597363038396  1.0000
  C   C115      1.0  0.19459177114899262  0.6950518364711018  0.5471696381512317  1.0000
  C   C116      1.0  0.19101531134029415  0.7053540979119859  0.4941567822645112  1.0000
  C   C117      1.0  0.2497518220617323  0.7708481499203406  0.5578680585854627  1.0000
  C   C118      1.0  0.2464317725703324  0.780968204672128  0.5050214806368274  1.0000
  C   C119      1.0  0.21487401152284494  0.7591497027005332  0.4157875964810742  1.0000
  C   C120      1.0  0.21706779119586636  0.7482627482649493  0.4728478546620209  1.0000
  C   C121      1.0  0.2720425989306818  0.2812314497692725  0.1365283286425409  1.0000
  C   C122      1.0  0.27593158647309224  0.272239633550676  0.0792602192956267  1.0000
  C   C123      1.0  0.3054087228813245  0.3049486067551825  0.0471696190553743  1.0000
  C   C124      1.0  0.30898416166887444  0.29464606208426863  0.9941570821402337  1.0000
  C   C125      1.0  0.25024941523268035  0.22915150952625402  0.0578690382583886  1.0000
  C   C126      1.0  0.2535684658678009  0.21903071126093474  0.005022456237085699  1.0000
  C   C127      1.0  0.28512415461368334  0.24085167245511496  0.9157860630489624  1.0000
  C   C128      1.0  0.28293174900854723  0.2517370367335162  0.9728482637710556  1.0000
  C   C129      1.0  0.8634735552598445  0.7720425538347869  0.2187685587038644  1.0000
  C   C130      1.0  0.9207400997325551  0.7759321810395223  0.22776186910713386  1.0000
  C   C131      1.0  0.952829517780927  0.8054107755954193  0.1950539382124177  1.0000
  C   C132      1.0  0.005841889240876699  0.8089870523535581  0.20535535942117633  1.0000
  C   C133      1.0  0.9421312844610057  0.7502499753556152  0.2708496752763168  1.0000
  C   C134      1.0  0.9949774662284839  0.7535696751781135  0.2809700332569918  1.0000
  C   C135      1.0  0.0842125148553663  0.7851260995599605  0.259148988031626  1.0000
  C   C136      1.0  0.027150712306664104  0.7829326637848627  0.24826290152907401  1.0000
  C   C137      1.0  0.3634718718222699  0.7279576173949422  0.781230911328457  1.0000
  C   C138      1.0  0.42073922597445795  0.7240675380553299  0.772239362893032  1.0000
  C   C139      1.0  0.4528297391327456  0.6945900733413383  0.8049475811235566  1.0000
  C   C140      1.0  0.5058426237404773  0.6910131277700134  0.7946464035529957  1.0000
  C   C141      1.0  0.4421320720450127  0.7497501084684617  0.7291522662861425  1.0000
  C   C142      1.0  0.4949786779153059  0.7464307384238611  0.7190313532049898  1.0000
  C   C143      1.0  0.5842126154792098  0.714873993479934  0.7408513623760271  1.0000
  C   C144      1.0  0.5271523301678797  0.7170671041603925  0.7517380172658576  1.0000
  C   C145      1.0  0.6365268743402837  0.22795722506438662  0.7187709983822685  1.0000
  C   C146      1.0  0.5792595245118193  0.22406681516249452  0.7277613837728651  1.0000
  C   C147      1.0  0.5471690441028514  0.1945905723327357  0.6950520186585933  1.0000
  C   C148      1.0  0.49415577496574065  0.19101367914112197  0.7053547524916937  1.0000
  C   C149      1.0  0.5578674269096594  0.24975093604476947  0.7708484641563514  1.0000
  C   C150      1.0  0.5050196592281112  0.24643122981088791  0.7809674368327107  1.0000
  C   C151      1.0  0.4157888647264301  0.21487537484669877  0.7591482245897794  1.0000
  C   C152      1.0  0.47284603959634103  0.21706920602267132  0.7482607913180742  1.0000
  C   C153      1.0  0.13652671861800772  0.27204462002051605  0.2812322224196251  1.0000
  C   C154      1.0  0.07926055832729868  0.27593198555779  0.2722381325583498  1.0000
  C   C155      1.0  0.04716955352679259  0.30541137204686925  0.3049456563352493  1.0000
  C   C156      1.0  0.9941556240897855  0.30898738005205933  0.2946450098715019  1.0000
  C   C157      1.0  0.05786862512815821  0.2502494424459912  0.2291511196132845  1.0000
  C   C158      1.0  0.005021274170864799  0.25356843040388816  0.2190307595378798  1.0000
  C   C159      1.0  0.9157877444910625  0.28512460592769884  0.24085061932712648  1.0000
  C   C160      1.0  0.9728468299694198  0.28293381934962986  0.2517370957192213  1.0000
  C   C161      1.0  0.21876811163291177  0.863474266206474  0.7720426673891723  1.0000
  C   C162      1.0  0.2277614769675651  0.9207403235782013  0.7759303612846438  1.0000
  C   C163      1.0  0.1950535366570136  0.9528304313463848  0.8054090561809844  1.0000
  C   C164      1.0  0.20535476526060856  0.005843057907853202  0.8089862646382286  1.0000
  C   C165      1.0  0.2708489554428937  0.9421322825658083  0.7502488386388465  1.0000
  C   C166      1.0  0.28096975323093437  0.9949787636377183  0.7535685441804177  1.0000
  C   C167      1.0  0.259150066188134  0.08421008747899351  0.7851259982391383  1.0000
  C   C168      1.0  0.2482627570333236  0.027152266615722502  0.7829329471648805  1.0000
  C   C169      1.0  0.781228929979612  0.36347215326281906  0.72795604872384  1.0000
  C   C170      1.0  0.7722386090308079  0.42074133108986433  0.7240671531499531  1.0000
  C   C171      1.0  0.8049465136913271  0.4528302556924402  0.6945884379851535  1.0000
  C   C172      1.0  0.7946457816667449  0.5058426397890585  0.6910142313599792  1.0000
  C   C173      1.0  0.7291483872838641  0.44213293318411223  0.7497494392898361  1.0000
  C   C174      1.0  0.719030250288121  0.4949798161036656  0.7464312543674795  1.0000
  C   C175      1.0  0.7408511706770115  0.5842132105176107  0.7148740597576689  1.0000
  C   C176      1.0  0.7517366007186438  0.5271522681680241  0.7170671468749816  1.0000
  C   C177      1.0  0.7187687511455039  0.6365280083166598  0.22795725882672  1.0000
  C   C178      1.0  0.727761415359261  0.5792623294522485  0.2240687595790689  1.0000
  C   C179      1.0  0.6950543806581208  0.5471714810280872  0.19459055629488378  1.0000
  C   C180      1.0  0.7053547354571421  0.49415793369722405  0.1910140196772545  1.0000
  C   C181      1.0  0.7708488366179581  0.5578691570866001  0.2497497578902141  1.0000
  C   C182      1.0  0.7809685380817583  0.5050214992689989  0.2464307974459814  1.0000
  C   C183      1.0  0.7591461631972011  0.4157873478508734  0.21487683599706028  1.0000
  C   C184      1.0  0.7482618917463952  0.4728482888110435  0.217067201883431  1.0000
  C   C185      1.0  0.28123167328849513  0.13652681153128302  0.2720412768878617  1.0000
  C   C186      1.0  0.27223868419183367  0.07925997469520502  0.2759313663094503  1.0000
  C   C187      1.0  0.3049465315455322  0.04716984824823101  0.3054095898614904  1.0000
  C   C188      1.0  0.2946460686645906  0.994157219419968  0.3089858441514579  1.0000
  C   C189      1.0  0.2291516752024947  0.0578680319805827  0.2502488275070576  1.0000
  C   C190      1.0  0.21903164395055805  0.005021548805331102  0.2535666558293102  1.0000
  C   C191      1.0  0.240851619983097  0.9157867084677921  0.2851242428391529  1.0000
  C   C192      1.0  0.25173854755127684  0.972848415720904  0.2829307329019528  1.0000
  O   O1        1.0  0.20008571914212334  0.8169042010417159  0.1568375336678471  1.0000
  O   O2        1.0  0.18102008539048597  0.7654603653009745  0.8892374800091503  1.0000
  O   O3        1.0  0.2475722195827146  0.7077245653246463  0.8984409740978164  1.0000
  O   O4        1.0  0.2593060801310401  0.7514605670403683  0.16084639935309036  1.0000
  O   O5        1.0  0.29991365206416276  0.18309539569523284  0.6568363785937166  1.0000
  O   O6        1.0  0.3189804954714218  0.2345429691764664  0.38923629709687896  1.0000
  O   O7        1.0  0.2524271667498539  0.2922741013203449  0.39844462653697127  1.0000
  O   O8        1.0  0.24069366693100852  0.24853825015541992  0.660847720640625  1.0000
  O   O9        1.0  0.7999110083884348  0.3169078218386475  0.3431636076256979  1.0000
  O   O10       1.0  0.8189805616143957  0.26545750766917564  0.6107636290103784  1.0000
  O   O11       1.0  0.7524269375633068  0.20772450697796074  0.6015578403865263  1.0000
  O   O12       1.0  0.7406926626113943  0.2514627021818399  0.3391532292708774  1.0000
  O   O13       1.0  0.7000866979453166  0.683095374740823  0.8431628399457836  1.0000
  O   O14       1.0  0.6810178775659068  0.7345423396684582  0.11076373071477971  1.0000
  O   O15       1.0  0.7475738616507427  0.7922737921914377  0.1015584728113268  1.0000
  O   O16       1.0  0.7593081643763143  0.7485366119371265  0.8391526220637431  1.0000
  O   O17       1.0  0.15683595487801943  0.20008763691095066  0.8169062543327428  1.0000
  O   O18       1.0  0.8892364471563071  0.1810169474266489  0.7654571283080217  1.0000
  O   O19       1.0  0.8984416373785677  0.24757361289454857  0.7077262824299737  1.0000
  O   O20       1.0  0.16084768364540036  0.2593098164506387  0.7514644577542883  1.0000
  O   O21       1.0  0.6568388853504529  0.2999118546056182  0.18309534843743341  1.0000
  O   O22       1.0  0.38923560951620567  0.31897917785302343  0.2345398568135622  1.0000
  O   O23       1.0  0.39844224562639863  0.25242794115422384  0.2922745586746487  1.0000
  O   O24       1.0  0.6608469770344882  0.24069472110915066  0.2485398518775952  1.0000
  O   O25       1.0  0.3431621345690488  0.799911858400229  0.3169050265819351  1.0000
  O   O26       1.0  0.6107638352208014  0.8189808593893205  0.2654577866597165  1.0000
  O   O27       1.0  0.6015584385481246  0.7524265615030786  0.20772429233502274  1.0000
  O   O28       1.0  0.3391533316736002  0.7406947708268563  0.2514590065432003  1.0000
  O   O29       1.0  0.8431639877448872  0.7000902778963864  0.6830972269811609  1.0000
  O   O30       1.0  0.11076429366392662  0.6810195926475019  0.7345405375401627  1.0000
  O   O31       1.0  0.1015590295009616  0.7475704042630725  0.7922728953840164  1.0000
  O   O32       1.0  0.8391518046892371  0.759307758428122  0.7485370436523198  1.0000
  O   O33       1.0  0.8169058985925943  0.1568357620372396  0.2000858294068593  1.0000
  O   O34       1.0  0.7654571478627189  0.8892367493641375  0.1810180665542305  1.0000
  O   O35       1.0  0.7077258301334198  0.8984438215480424  0.2475722036026156  1.0000
  O   O36       1.0  0.7514624674289083  0.16084626500195753  0.2593058646949657  1.0000
  O   O37       1.0  0.18309489178477634  0.6568378969639995  0.2999091969732319  1.0000
  O   O38       1.0  0.2345422188223623  0.38923751721656435  0.31897914404240174  1.0000
  O   O39       1.0  0.2922754688218206  0.3984422364195056  0.2524288861829547  1.0000
  O   O40       1.0  0.24853909548978953  0.6608468107316912  0.2406926556572628  1.0000
  O   O41       1.0  0.31690480525821135  0.343162386115374  0.7999109952378589  1.0000
  O   O42       1.0  0.2654597490901125  0.6107639192780924  0.8189805469686108  1.0000
  O   O43       1.0  0.2077267089545316  0.6015576882451442  0.7524273689235699  1.0000
  O   O44       1.0  0.25146117678703217  0.3391527328696214  0.7406942742673338  1.0000
  O   O45       1.0  0.683097697926776  0.8431628631982022  0.7000888991972047  1.0000
  O   O46       1.0  0.7345418467745972  0.11076227645579453  0.6810218252610839  1.0000
  O   O47       1.0  0.7922721776373153  0.10155788160216163  0.7475715126187056  1.0000
  O   O48       1.0  0.7485362803388541  0.8391530997119505  0.7593083422129681  1.0000
  O   O49       1.0  0.7999095173744875  0.18309389336862134  0.8431620635039252  1.0000
  O   O50       1.0  0.8189817556371465  0.23454006010561568  0.1107621171514737  1.0000
  O   O51       1.0  0.7524284559446173  0.2922746945828721  0.1015578460636846  1.0000
  O   O52       1.0  0.7406938183883937  0.24854257786659423  0.8391551403130677  1.0000
  O   O53       1.0  0.7000901314654727  0.8169046412099236  0.3431643840659646  1.0000
  O   O54       1.0  0.6810194030476212  0.7654597872303913  0.6107656310700662  1.0000
  O   O55       1.0  0.7475731202697632  0.7077267125861085  0.6015580786312995  1.0000
  O   O56       1.0  0.7593070085936945  0.7514602327515125  0.3391530420244422  1.0000
  O   O57       1.0  0.2000881131299153  0.6830968770689412  0.6568371550398595  1.0000
  O   O58       1.0  0.18101972540993927  0.7345425292381692  0.389236356653484  1.0000
  O   O59       1.0  0.24757218396032954  0.7922739759302077  0.3984417567789933  1.0000
  O   O60       1.0  0.2593076244139212  0.7485388887258256  0.6608455908904959  1.0000
  O   O61       1.0  0.29991320057771986  0.31690349666652656  0.15683792272039201  1.0000
  O   O62       1.0  0.3189781359530884  0.2654584742418464  0.8892343124522455  1.0000
  O   O63       1.0  0.25242409436700797  0.20772585621671882  0.8984430668589951  1.0000
  O   O64       1.0  0.2406921226520211  0.2514595399707177  0.1608461980993496  1.0000
  O   O65       1.0  0.8431635551416221  0.7999116229961134  0.1830960623365812  1.0000
  O   O66       1.0  0.11076383987343522  0.8189799814815333  0.2345405263528306  1.0000
  O   O67       1.0  0.1015578726442854  0.7524275895133103  0.2922733147340821  1.0000
  O   O68       1.0  0.8391533803758479  0.7406917744554848  0.2485378589118525  1.0000
  O   O69       1.0  0.34316140167781134  0.7000866283023869  0.8169026947235948  1.0000
  O   O70       1.0  0.6107631235091943  0.681018139555768  0.7654585748509463  1.0000
  O   O71       1.0  0.6015580413950588  0.7475728727525991  0.7077269809916231  1.0000
  O   O72       1.0  0.33915330998571136  0.7593072582975184  0.7514620762889807  1.0000
  O   O73       1.0  0.6568369869539055  0.20008895550798664  0.6830941820821863  1.0000
  O   O74       1.0  0.38923800581396517  0.18101995451873176  0.7345371484928052  1.0000
  O   O75       1.0  0.3984418484817596  0.24757230990528717  0.7922725853238859  1.0000
  O   O76       1.0  0.6608457898469029  0.2593060430808621  0.7485417561235791  1.0000
  O   O77       1.0  0.1568366877780534  0.29991247851052805  0.3169031471818897  1.0000
  O   O78       1.0  0.8892356048662436  0.3189796672613171  0.2654555631179036  1.0000
  O   O79       1.0  0.8984451425366374  0.25242652464307724  0.2077243707700447  1.0000
  O   O80       1.0  0.16084809383455928  0.24069305547953232  0.2514625535112458  1.0000
  O   O81       1.0  0.18309827344637597  0.8431631093693355  0.7999098827439256  1.0000
  O   O82       1.0  0.2345458586699323  0.11076406454240843  0.8189795881011078  1.0000
  O   O83       1.0  0.29227445688969317  0.10155621535905374  0.7524285590625795  1.0000
  O   O84       1.0  0.2485382080982106  0.8391533834055525  0.7406929554664075  1.0000
  O   O85       1.0  0.8169057837441756  0.34316175144387995  0.7000884576861495  1.0000
  O   O86       1.0  0.7654569027024322  0.6107632966920208  0.6810188991197279  1.0000
  O   O87       1.0  0.7077240411965633  0.6015581889873972  0.7475738189866661  1.0000
  O   O88       1.0  0.7514584720312739  0.33915439167761724  0.7593057760078565  1.0000
  O   O89       1.0  0.6830947047632705  0.6568368737920594  0.2000901559294661  1.0000
  O   O90       1.0  0.7345393724271787  0.3892349521288312  0.18102293520344398  1.0000
  O   O91       1.0  0.7922720240613613  0.39844351416203966  0.2475757247476906  1.0000
  O   O92       1.0  0.748538721732686  0.6608476925371818  0.2593080424010026  1.0000
  O   O93       1.0  0.316905308605513  0.15683639670815103  0.2999095324599566  1.0000
  O   O94       1.0  0.2654596057501096  0.889236594950454  0.318979714403973  1.0000
  O   O95       1.0  0.20772577838555153  0.8984413783069983  0.2524269190464139  1.0000
  O   O96       1.0  0.25146206418268247  0.16084654869661114  0.2406912549534113  1.0000
  O   O97       1.0  0.221853633509312  0.7781450608006897  0.2781449018034862  1.0000
  O   O98       1.0  0.2781438011607733  0.22185523607080881  0.7781465103795782  1.0000
  O   O99       1.0  0.7781454680895834  0.2781464516508549  0.2218543214649031  1.0000
  O   O100      1.0  0.7218553402813511  0.7218548792930903  0.7218557916855914  1.0000
  O   O101      1.0  0.7781443225120839  0.2218557531082937  0.7218539183618019  1.0000
  O   O102      1.0  0.7218537663543501  0.7781467433373664  0.2218554177912822  1.0000
  O   O103      1.0  0.22185559593692972  0.7218566932564487  0.7781441101940844  1.0000
  O   O104      1.0  0.2781441697364215  0.2781455461136844  0.2781473019846885  1.0000
