data_image0
_chemical_formula_structural       Cd2H44C52N8O16
_chemical_formula_sum              "Cd2 H44 C52 N8 O16"
_cell_length_a       7.906335311048509
_cell_length_b       12.445419968130045
_cell_length_c       13.64955435262891
_cell_angle_alpha    89.9996141299855
_cell_angle_beta     102.5788642608616
_cell_angle_gamma    90.00042758496262

_space_group_name_H-M_alt    "P 1"
_space_group_IT_number       1

loop_
  _space_group_symop_operation_xyz
  'x, y, z'

loop_
  _atom_site_type_symbol
  _atom_site_label
  _atom_site_symmetry_multiplicity
  _atom_site_fract_x
  _atom_site_fract_y
  _atom_site_fract_z
  _atom_site_occupancy
  Cd  Cd1       1.0  0.49999998545244045  7.144006630999996e-07  0.9999996347434745  1.0000
  Cd  Cd2       1.0  0.9999988550361963  0.4999997207771827  0.500000251169496  1.0000
  H   H1        1.0  0.8671779798542049  0.9036779776441578  0.0777647937149553  1.0000
  H   H2        1.0  0.6328224885152239  0.40367856474557573  0.42223653951536727  1.0000
  H   H3        1.0  0.1328258781808458  0.09631990366971618  0.9222363437934149  1.0000
  H   H4        1.0  0.3671748900389531  0.5963217270812463  0.5777637985425841  1.0000
  H   H5        1.0  0.08262139244929763  0.7879711320958972  0.016782973881760206  1.0000
  H   H6        1.0  0.4173723858134864  0.2879742224466852  0.48321518956620224  1.0000
  H   H7        1.0  0.9173759607013922  0.2120235351825812  0.9832144305254147  1.0000
  H   H8        1.0  0.5826223946076396  0.7120276763947542  0.5167840952938576  1.0000
  H   H9        1.0  0.067677663901776  0.7782488662529515  0.8296041654588607  1.0000
  H   H10       1.0  0.43230937381  0.2782503130018839  0.6703946323976525  1.0000
  H   H11       1.0  0.9323158142529453  0.2217482115380562  0.1703942261079874  1.0000
  H   H12       1.0  0.5676841107005828  0.7217491753117643  0.3296044925794277  1.0000
  H   H13       1.0  0.6451739474557386  0.005333107768770201  0.7903839159321536  1.0000
  H   H14       1.0  0.8548223859250899  0.5053298844071819  0.7096192911254775  1.0000
  H   H15       1.0  0.3548273378377759  0.9946695945827458  0.20961910203501333  1.0000
  H   H16       1.0  0.14517501163678762  0.4946655863609378  0.2903832471927359  1.0000
  H   H17       1.0  0.7452230000331003  0.8382818740581541  0.4790421758171918  1.0000
  H   H18       1.0  0.7547910417356578  0.33828036780067794  0.02095756998554783  1.0000
  H   H19       1.0  0.2547860098807888  0.1617168107874818  0.5209559341640926  1.0000
  H   H20       1.0  0.24521927676856592  0.661719120550508  0.9790421667149545  1.0000
  H   H21       1.0  0.6899268626523992  0.8885852491218101  0.29886895050711365  1.0000
  H   H22       1.0  0.8100837912218495  0.38858428466875244  0.2011300688109259  1.0000
  H   H23       1.0  0.3100808513788922  0.11141664975511388  0.7011289995773851  1.0000
  H   H24       1.0  0.18991745599238644  0.6114152036651106  0.7988685486672723  1.0000
  H   H25       1.0  0.7373938831448259  0.22237532644390962  0.3789894308374429  1.0000
  H   H26       1.0  0.7626008580936059  0.722374730058732  0.12100791180506579  1.0000
  H   H27       1.0  0.26260349541334455  0.7776257688913616  0.6210109072185331  1.0000
  H   H28       1.0  0.23739650778077964  0.277627168790346  0.8789909594166544  1.0000
  H   H29       1.0  0.8037353887170869  0.17359301928353688  0.559077020688342  1.0000
  H   H30       1.0  0.6962586780102384  0.6735929677797471  0.940919013787827  1.0000
  H   H31       1.0  0.19625938534818493  0.8264064690352696  0.4409215307614929  1.0000
  H   H32       1.0  0.30374516100512494  0.32640732406751016  0.05907992346619301  1.0000
  H   H33       1.0  0.8262935346008791  0.04686649316214899  0.6791669838334188  1.0000
  H   H34       1.0  0.6737031733829398  0.5468640052032396  0.82083161893938  1.0000
  H   H35       1.0  0.1737051081404246  0.9531354056974589  0.3208298470287758  1.0000
  H   H36       1.0  0.32629548837005734  0.4531338761061078  0.17916741218109422  1.0000
  H   H37       1.0  0.5748461650143923  0.19824833034684988  0.06944220923466558  1.0000
  H   H38       1.0  0.9251535518199818  0.6982478302165164  0.4305595584245552  1.0000
  H   H39       1.0  0.4251525157742507  0.8017503544628823  0.9305590221322718  1.0000
  H   H40       1.0  0.0748451289726546  0.3017516581016508  0.5694416729404139  1.0000
  H   H41       1.0  0.5701250419271987  0.2271922680433178  0.9512125572772447  1.0000
  H   H42       1.0  0.9298747853427544  0.7271913871860249  0.5487889876814904  1.0000
  H   H43       1.0  0.42987493476800154  0.7728080237857711  0.048788833974654694  1.0000
  H   H44       1.0  0.07012390179377091  0.2728081011294634  0.4512129770996225  1.0000
  C   C1        1.0  0.8695506950079024  0.8987241793180091  0.9981542976164591  1.0000
  C   C2        1.0  0.6304482637903065  0.3987246365009296  0.5018482861775198  1.0000
  C   C3        1.0  0.1304518671285706  0.10127370199339228  0.0018466800030126  1.0000
  C   C4        1.0  0.36954782520120233  0.6012740483038498  0.4981526254116204  1.0000
  C   C5        1.0  0.9876203141730643  0.8339409152925724  0.9632567997582059  1.0000
  C   C6        1.0  0.512372804680908  0.3339421643570829  0.5367439955090917  1.0000
  C   C7        1.0  0.0123783475759396  0.16605616250833322  0.0367422313642436  1.0000
  C   C8        1.0  0.48762068617356397  0.6660573239538792  0.4632558628841252  1.0000
  C   C9        1.0  0.9793703643865542  0.8287771255465158  0.860443911551755  1.0000
  C   C10       1.0  0.520622709501943  0.3287776565955767  0.6395576424699031  1.0000
  C   C11       1.0  0.020628297370436102  0.17122155927127383  0.1395551195667508  1.0000
  C   C12       1.0  0.47937208359897454  0.6712226352236143  0.360443109226388  1.0000
  C   C13       1.0  0.8579344426575305  0.892889818149058  0.7959033402425177  1.0000
  C   C14       1.0  0.6420579659885493  0.39288964456941505  0.7040970059028737  1.0000
  C   C15       1.0  0.14206552136187164  0.1071128842107214  0.20409658417117527  1.0000
  C   C16       1.0  0.3579342353152343  0.6071106472448236  0.2959034260156201  1.0000
  C   C17       1.0  0.7461346933373606  0.9567514477911345  0.8375974014184636  1.0000
  C   C18       1.0  0.7538635587717907  0.4567480922015221  0.6624062046138093  1.0000
  C   C19       1.0  0.25386917740940623  0.04325125456801968  0.16240520291036384  1.0000
  C   C20       1.0  0.24613253655562065  0.5432489855836947  0.3375954403954112  1.0000
  C   C21       1.0  0.8381700629131856  0.8846076162019116  0.684594761890537  1.0000
  C   C22       1.0  0.661826144783774  0.38460510948329585  0.8154053711482875  1.0000
  C   C23       1.0  0.16182730295322056  0.1153926756302894  0.3154041093351339  1.0000
  C   C24       1.0  0.3381725360048691  0.6153935753264365  0.1845958602186499  1.0000
  C   C25       1.0  0.7759905745177708  0.0022842529434968  0.5312518164841435  1.0000
  C   C26       1.0  0.7240121636836181  0.5022865382614441  0.9687470710508707  1.0000
  C   C27       1.0  0.22401067269646552  0.997715235390366  0.4687468009940545  1.0000
  C   C28       1.0  0.2759929648944209  0.4977153606078558  0.0312512926719677  1.0000
  C   C29       1.0  0.743257812630141  0.921958514548585  0.4574300011237257  1.0000
  C   C30       1.0  0.7567557646360471  0.4219592689768063  0.04256917421987077  1.0000
  C   C31       1.0  0.2567537890848827  0.07804097381044528  0.5425684286333876  1.0000
  C   C32       1.0  0.24325325163769665  0.5780426298999118  0.9574296691696702  1.0000
  C   C33       1.0  0.7106749597381993  0.9505267474731198  0.3567051354194817  1.0000
  C   C34       1.0  0.7893298427718138  0.45052771778424006  0.1432942473617373  1.0000
  C   C35       1.0  0.2893314710782988  0.04947434788752501  0.6432941216103742  1.0000
  C   C36       1.0  0.21067270669684754  0.5494741810747354  0.8567052634155844  1.0000
  C   C37       1.0  0.7063963580967255  0.058646135540534786  0.3272614664173545  1.0000
  C   C38       1.0  0.793600656758315  0.5586445013091036  0.1727386260742563  1.0000
  C   C39       1.0  0.29360748092662453  0.9413557633235997  0.6727374708327288  1.0000
  C   C40       1.0  0.20639672179586202  0.4413557905177186  0.827261711983695  1.0000
  C   C41       1.0  0.7376814027620641  0.1383869179467396  0.40135289915149036  1.0000
  C   C42       1.0  0.7623164043782611  0.6383864848637656  0.09864680208401923  1.0000
  C   C43       1.0  0.26231985714392897  0.8616133738901934  0.59864718515702  1.0000
  C   C44       1.0  0.237684861871621  0.36161380697048884  0.9013540156406351  1.0000
  C   C45       1.0  0.7738148269285574  0.11064550262210558  0.5023436655097555  1.0000
  C   C46       1.0  0.7261851128991739  0.6106459783491828  0.9976556775140041  1.0000
  C   C47       1.0  0.2261864266335536  0.8893547892175133  0.4976556853826111  1.0000
  C   C48       1.0  0.2738200283626356  0.38935511700630343  0.0023441530430972023  1.0000
  C   C49       1.0  0.6680348488582198  0.08667603663016617  0.2177141081394467  1.0000
  C   C50       1.0  0.8319637340406844  0.5866729736510338  0.28228527329795844  1.0000
  C   C51       1.0  0.3319677069543305  0.9133258622261234  0.7822861360540259  1.0000
  C   C52       1.0  0.16803234861492203  0.41332731817331586  0.7177149048710874  1.0000
  N   N1        1.0  0.7500213436801886  0.9580624194481543  0.936281317965502  1.0000
  N   N2        1.0  0.7499795132590138  0.4580605756103964  0.5637226014085002  1.0000
  N   N3        1.0  0.24998382295716945  0.04193867589658849  0.06372144625616731  1.0000
  N   N4        1.0  0.25001657572850183  0.5419373056859482  0.4362783101826082  1.0000
  N   N5        1.0  0.8112609720944877  0.9803674612298463  0.6348532858473845  1.0000
  N   N6        1.0  0.6887374766036344  0.48036632250260414  0.8651458038091349  1.0000
  N   N7        1.0  0.18873898556905297  0.019632830607292796  0.3651459051560764  1.0000
  N   N8        1.0  0.31126507285704724  0.5196339693394874  0.1348537069721303  1.0000
  O   O1        1.0  0.5139145907594695  0.18639302187357026  0.9970321317476376  1.0000
  O   O2        1.0  0.9860848248091048  0.6863943511412102  0.5029688799735865  1.0000
  O   O3        1.0  0.48608408368927775  0.8136064664472825  0.002968366201180573  1.0000
  O   O4        1.0  0.013913855983531702  0.31360513717696387  0.4970323513913756  1.0000
  O   O5        1.0  0.6637009065347003  0.006450749197504998  0.15805757667143178  1.0000
  O   O6        1.0  0.8362968602172957  0.5064432499168703  0.34193999815884274  1.0000
  O   O7        1.0  0.3363003407034881  0.9935535601870027  0.8419410407949358  1.0000
  O   O8        1.0  0.1636979201838785  0.49355463138236644  0.6580592867110796  1.0000
  O   O9        1.0  0.6415738390236784  0.1843264504032476  0.1917879456194456  1.0000
  O   O10       1.0  0.8584270290209234  0.6843217146056019  0.3082133168314983  1.0000
  O   O11       1.0  0.35842871678887184  0.8156754484530496  0.8082122985740199  1.0000
  O   O12       1.0  0.14157165811160877  0.31567697020144436  0.6917886479515829  1.0000
  O   O13       1.0  0.8432428256851524  0.7951338968776722  0.6444864986644846  1.0000
  O   O14       1.0  0.656752499383359  0.2951334813780377  0.8555148067937779  1.0000
  O   O15       1.0  0.15675454653311502  0.2048680019687197  0.3555131059733867  1.0000
  O   O16       1.0  0.34324358962012275  0.7048676139520679  0.1444861047894506  1.0000
