data_image0
_chemical_formula_structural       Zn2H18C28N2O10
_chemical_formula_sum              "Zn2 H18 C28 N2 O10"
_cell_length_a       9.710257106306909
_cell_length_b       11.055096607482891
_cell_length_c       11.063882281816332
_cell_angle_alpha    94.24190090125902
_cell_angle_beta     87.28816640257628
_cell_angle_gamma    88.9932278810941

_space_group_name_H-M_alt    "P 1"
_space_group_IT_number       1

loop_
  _space_group_symop_operation_xyz
  'x, y, z'

loop_
  _atom_site_type_symbol
  _atom_site_label
  _atom_site_symmetry_multiplicity
  _atom_site_fract_x
  _atom_site_fract_y
  _atom_site_fract_z
  _atom_site_occupancy
  Zn  Zn1       1.0  0.6362988859435887  0.49749517449070185  0.4909504713701694  1.0000
  Zn  Zn2       1.0  0.3513131173214886  0.502966798278834  0.5036086247050165  1.0000
  H   H1        1.0  0.28721113960600064  0.4372163041447196  0.11804922132554913  1.0000
  H   H2        1.0  0.31111807087893334  0.8739322050299737  0.4083385301949179  1.0000
  H   H3        1.0  0.13670337635763732  0.6718094420438234  0.283349059886838  1.0000
  H   H4        1.0  0.11541330816868371  0.7730592179548522  0.4169669691770253  1.0000
  H   H5        1.0  0.8321364348227789  0.47243544160986073  0.8657729059684841  1.0000
  H   H6        1.0  0.721748362208139  0.1482617077467836  0.6849255610567512  1.0000
  H   H7        1.0  0.7785657305981815  0.6275156198771726  0.8657558978273915  1.0000
  H   H8        1.0  0.8203698930176486  0.12109845510369872  0.5441895175306045  1.0000
  H   H9        1.0  0.8366152161831552  0.49212861226175864  0.0920711427562324  1.0000
  H   H10       1.0  0.7220120882782693  0.923824345564995  0.7098404248387598  1.0000
  H   H11       1.0  0.7776445145283687  0.6467201447372377  0.09328496842145742  1.0000
  H   H12       1.0  0.8246219895176807  0.8981088064893468  0.5725192400696245  1.0000
  H   H13       1.0  0.11953008873594939  0.3554829474683602  0.6084068444637725  1.0000
  H   H14       1.0  0.8610643028483977  0.34999367397038844  0.6007480927137295  1.0000
  H   H15       1.0  0.8770178738350295  0.6617159418734816  0.2724441627399373  1.0000
  H   H16       1.0  0.8563839211659425  0.763183917376111  0.405730977704522  1.0000
  H   H17       1.0  0.2625665332321033  0.36154797398618405  0.7906814572085352  1.0000
  H   H18       1.0  0.28783169462714403  0.1948061833221928  0.3362099221780427  1.0000
  C   C1        1.0  0.497992613087348  0.7351517942553585  0.5114424790914927  1.0000
  C   C2        1.0  0.4970778357607842  0.4992797539549585  0.2622093262374321  1.0000
  C   C3        1.0  0.7637251369207264  0.553931068777473  0.05331651842205792  1.0000
  C   C4        1.0  0.7348766544968868  0.9487737553659347  0.6157052654503516  1.0000
  C   C5        1.0  0.06642183311722501  0.582541864665309  0.4464184090415274  1.0000
  C   C6        1.0  0.0631275836165059  0.421253742294418  0.5600348560698195  1.0000
  C   C7        1.0  0.9200808059677074  0.41755579532807746  0.5550019395056084  1.0000
  C   C8        1.0  0.9233716874043837  0.5780156788224673  0.4405520347391204  1.0000
  C   C9        1.0  0.9148164980413115  0.6842454809480288  0.3630391483256832  1.0000
  C   C10       1.0  0.0778550139413383  0.6900924280199875  0.37006725202811463  1.0000
  C   C11       1.0  0.4922925045832116  0.2634075092384904  0.47929475276162503  1.0000
  C   C12       1.0  0.49348120553680996  0.48484592939639976  0.7310570228080453  1.0000
  C   C13       1.0  0.6149280188084845  0.5145556251363813  0.053564189526120715  1.0000
  C   C14       1.0  0.6041840929198584  0.9440859004517889  0.545737632666395  1.0000
  C   C15       1.0  0.49867808501648625  0.49196407814471144  0.1267984482864222  1.0000
  C   C16       1.0  0.5000074457460713  0.8692409366745508  0.5028241575903679  1.0000
  C   C17       1.0  0.37974414061089595  0.45942651607099805  0.06527860997967141  1.0000
  C   C18       1.0  0.3938828566463854  0.9277350926800951  0.4461852295571236  1.0000
  C   C19       1.0  0.3759677880429066  0.4518915143113063  0.9383552660764354  1.0000
  C   C20       1.0  0.38975332823731185  0.053169704559550696  0.4340273390178383  1.0000
  C   C21       1.0  0.4948320777835775  0.4776384111847136  0.8651521609144555  1.0000
  C   C22       1.0  0.49612845025818336  0.1281252225318426  0.4790788693223222  1.0000
  C   C23       1.0  0.6127826203570237  0.5061519327501431  0.9268120373462241  1.0000
  C   C24       1.0  0.6020409751088919  0.06907586036118121  0.5330430745122214  1.0000
  C   C25       1.0  0.7619051465545043  0.5429102421814848  0.9101403400506528  1.0000
  C   C26       1.0  0.7333678283908752  0.0898813144595323  0.6000508138480428  1.0000
  C   C27       1.0  0.24789621754491975  0.4076939287703851  0.8832949828648186  1.0000
  C   C28       1.0  0.2737340132013628  0.1028912452817892  0.368883084466198  1.0000
  N   N1        1.0  0.13983811230610846  0.5049959420630543  0.5048195760317854  1.0000
  N   N2        1.0  0.8469830502587142  0.4968395317274741  0.4935352802710258  1.0000
  O   O1        1.0  0.6101255432408124  0.6823784606365777  0.5355624204608489  1.0000
  O   O2        1.0  0.6097359693211927  0.5263104100957747  0.31181705015453803  1.0000
  O   O3        1.0  0.3839647343512596  0.6835149055008857  0.491979985373469  1.0000
  O   O4        1.0  0.3834127654396156  0.4776765971466191  0.31801699984489323  1.0000
  O   O5        1.0  0.605298877243534  0.313944641024989  0.45318137030385947  1.0000
  O   O6        1.0  0.607655536552059  0.4630491076714166  0.6713482204212087  1.0000
  O   O7        1.0  0.3769863389607977  0.3166788157108442  0.5098694114155792  1.0000
  O   O8        1.0  0.37995338119667116  0.5156455327168601  0.6873550263639886  1.0000
  O   O9        1.0  0.13306377941368913  0.4153837895410391  0.9352234341832928  1.0000
  O   O10       1.0  0.1676694387734301  0.04717026186877151  0.3490369713344351  1.0000
