data_image0
_chemical_formula_structural       Ni4P4H16C4O16
_chemical_formula_sum              "Ni4 P4 H16 C4 O16"
_cell_length_a       4.695659656000016
_cell_length_b       5.595365745024419
_cell_length_c       15.324195786074712
_cell_angle_alpha    98.83537269235859
_cell_angle_beta     90.00000980606114
_cell_angle_gamma    89.99999747701828

_space_group_name_H-M_alt    "P 1"
_space_group_IT_number       1

loop_
  _space_group_symop_operation_xyz
  'x, y, z'

loop_
  _atom_site_type_symbol
  _atom_site_label
  _atom_site_symmetry_multiplicity
  _atom_site_fract_x
  _atom_site_fract_y
  _atom_site_fract_z
  _atom_site_occupancy
  Ni  Ni1       1.0  0.891306270728514  0.49473509908082064  0.7383580177905671  1.0000
  Ni  Ni2       1.0  0.3913041428700766  0.005266541098379201  0.7616425917812535  1.0000
  Ni  Ni3       1.0  0.10869403998402304  0.5052653783886571  0.26164231633780594  1.0000
  Ni  Ni4       1.0  0.6086940382160293  0.9947339321825837  0.2383570895511227  1.0000
  P   P1        1.0  0.4673147573355366  0.5468463703013527  0.8596572525337152  1.0000
  P   P2        1.0  0.9673147017846091  0.9531543404864568  0.6403425942166834  1.0000
  P   P3        1.0  0.5327217570227348  0.45315591163071656  0.1403425287227762  1.0000
  P   P4        1.0  0.03272394220027051  0.0468443283333499  0.35965763998949996  1.0000
  H   H1        1.0  0.4688203519927255  0.3210375819001142  0.642229010281909  1.0000
  H   H2        1.0  0.9688204627275925  0.17896044389041782  0.8577714033476767  1.0000
  H   H3        1.0  0.5311778290934654  0.6789610827304672  0.3577705711273111  1.0000
  H   H4        1.0  0.031179847985228503  0.8210382291171427  0.1422294836534874  1.0000
  H   H5        1.0  0.48426225334722534  0.5998847173556712  0.6402058840150104  1.0000
  H   H6        1.0  0.9842623369492645  0.9001178027192085  0.8597940635121119  1.0000
  H   H7        1.0  0.5157401869910673  0.4001175603872867  0.3597932444446812  1.0000
  H   H8        1.0  0.0157401033895113  0.09988267475030452  0.1402062706163179  1.0000
  H   H9        1.0  0.7892674242593146  0.6133904483246725  0.979180817721975  1.0000
  H   H10       1.0  0.28926936152090127  0.8866120686131183  0.5208197727801576  1.0000
  H   H11       1.0  0.21072862720057373  0.38661364644548973  0.020819716252596307  1.0000
  H   H12       1.0  0.7107288195654888  0.1133866002059278  0.47918046142500254  1.0000
  H   H13       1.0  0.4695612400512772  0.7771948362721873  0.0034362822446425017  1.0000
  H   H14       1.0  0.9695656881251439  0.7228044962331952  0.4965644474114796  1.0000
  H   H15       1.0  0.5304326817823509  0.22280563700869752  0.996563399087627  1.0000
  H   H16       1.0  0.0304346225874852  0.2771941725859008  0.5034357867937373  1.0000
  C   C1        1.0  0.5559924253478528  0.5992870656463298  0.9753763482559492  1.0000
  C   C2        1.0  0.05599436309592681  0.9007136338773666  0.5246241305740611  1.0000
  C   C3        1.0  0.44400362611190763  0.40071159479573737  0.0246225803572742  1.0000
  C   C4        1.0  0.9440059476170006  0.09928685196904755  0.47537750914619886  1.0000
  O   O1        1.0  0.6168230112895118  0.7489900361884312  0.8152899590903644  1.0000
  O   O2        1.0  0.116822935153408  0.7510088527816665  0.6847097700842539  1.0000
  O   O3        1.0  0.3831751697969636  0.25100682398023366  0.184710175191654  1.0000
  O   O4        1.0  0.8831731163061748  0.24899342496117072  0.3152893583752743  1.0000
  O   O5        1.0  0.6169018360848925  0.3057882533895793  0.8160017067804333  1.0000
  O   O6        1.0  0.11690176680123443  0.1942115636419359  0.6839981362518657  1.0000
  O   O7        1.0  0.3830963450010429  0.6942158371921537  0.18399817439824057  1.0000
  O   O8        1.0  0.8830964142851273  0.8057834836878754  0.3160012453110498  1.0000
  O   O9        1.0  0.14497026816801653  0.541836994902582  0.8493283857861585  1.0000
  O   O10       1.0  0.6449702182043922  0.9581618951249594  0.6506713448061063  1.0000
  O   O11       1.0  0.8550044870290068  0.458165278651393  0.1506700898768898  1.0000
  O   O12       1.0  0.35500240736743655  0.0418349692316937  0.34932944227121243  1.0000
  O   O13       1.0  0.6023606839725203  0.4524385015167312  0.6343745196145107  1.0000
  O   O14       1.0  0.10235861340510162  0.0475613191569337  0.865625975481322  1.0000
  O   O15       1.0  0.3976438859926645  0.5475583586520545  0.365625614667664  1.0000
  O   O16       1.0  0.8976416973073499  0.9524409669629251  0.1343744585702069  1.0000
