data_image0
_chemical_formula_structural       Hf6H52C108N18O32
_chemical_formula_sum              "Hf6 H52 C108 N18 O32"
_cell_length_a       18.906247996122538
_cell_length_b       18.90704224538883
_cell_length_c       19.059439115431104
_cell_angle_alpha    91.0219689667893
_cell_angle_beta     91.44883978356037
_cell_angle_gamma    91.48780516598951

_space_group_name_H-M_alt    "P 1"
_space_group_IT_number       1

loop_
  _space_group_symop_operation_xyz
  'x, y, z'

loop_
  _atom_site_type_symbol
  _atom_site_label
  _atom_site_symmetry_multiplicity
  _atom_site_fract_x
  _atom_site_fract_y
  _atom_site_fract_z
  _atom_site_occupancy
  Hf  Hf1       1.0  0.8164683208908557  0.9398095622050633  0.8556564962733046  1.0000
  Hf  Hf2       1.0  0.7641539661022634  0.8438320062286806  0.0018053718186620993  1.0000
  Hf  Hf3       1.0  0.9854960831279271  0.9649243144041789  0.9315775597279695  1.0000
  Hf  Hf4       1.0  0.9127263330702674  0.7937543633366744  0.9089815938549605  1.0000
  Hf  Hf5       1.0  0.8370211592295576  0.014121213793714596  0.024821142290953394  1.0000
  Hf  Hf6       1.0  0.9341321564082249  0.8682568384865449  0.07725685683001868  1.0000
  H   H1        1.0  0.7709073021795803  0.7971718777352237  0.8608369629957406  1.0000
  H   H2        1.0  0.8857780225618653  0.06912717192376051  0.9004701047641317  1.0000
  H   H3        1.0  0.0404843698090218  0.8397470350984831  0.9796615120513791  1.0000
  H   H4        1.0  0.8072844821272369  0.9147201233216861  0.12944125433278228  1.0000
  H   H5        1.0  0.2543750335703479  0.7440420599064266  0.7408864479689254  1.0000
  H   H6        1.0  0.1931032027449788  0.9439619790893163  0.65739883593627  1.0000
  H   H7        1.0  0.0936992246475299  0.9476916473925671  0.7421526182666723  1.0000
  H   H8        1.0  0.14599852840538574  0.7406256779619085  0.8139199983290124  1.0000
  H   H9        1.0  0.5533136384265305  0.8814185169267433  0.6399109002873685  1.0000
  H   H10       1.0  0.42113165211773657  0.8186337474845188  0.8095130870282501  1.0000
  H   H11       1.0  0.5257787584283237  0.827821783435091  0.8931858051531378  1.0000
  H   H12       1.0  0.65699259774523  0.8931945943379276  0.7237349290967712  1.0000
  H   H13       1.0  0.193340050249148  0.9426755703464597  0.2958880724482781  1.0000
  H   H14       1.0  0.3246045698057216  0.0007643780981184  0.1240064652754143  1.0000
  H   H15       1.0  0.21931311216297186  0.9905336672275027  0.041219750212903285  1.0000
  H   H16       1.0  0.0888483040286872  0.9296638575253483  0.21276153829319355  1.0000
  H   H17       1.0  0.5541178534158178  0.8724948038981067  0.273987405272713  1.0000
  H   H18       1.0  0.4903846355717504  0.06868853403658898  0.18402934521325415  1.0000
  H   H19       1.0  0.5968625283993276  0.069269665864347  0.10840832126333307  1.0000
  H   H20       1.0  0.6515945992746665  0.8655165396240535  0.18741461039968493  1.0000
  H   H21       1.0  0.6598146921799781  0.29171251909471607  0.8104276681471345  1.0000
  H   H22       1.0  0.551844875564818  0.21220568037882262  0.9898038015137585  1.0000
  H   H23       1.0  0.6337546641732104  0.1097873590546854  0.9934932112601655  1.0000
  H   H24       1.0  0.7317459254836721  0.18231927457460265  0.8055620897021851  1.0000
  H   H25       1.0  0.5488037723767649  0.5821901705499926  0.9396053758471439  1.0000
  H   H26       1.0  0.7209118594095897  0.4488624340533746  0.8860295838794556  1.0000
  H   H27       1.0  0.8056532358311584  0.5532762053996975  0.8963507371647732  1.0000
  H   H28       1.0  0.6334851379810829  0.6857713860174856  0.952099183086659  1.0000
  H   H29       1.0  0.11979800927021238  0.11837461876693567  0.9938961057697848  1.0000
  H   H30       1.0  0.9470934842277784  0.24894779706131223  0.05217481305103179  1.0000
  H   H31       1.0  0.031160102294244  0.3537239352096435  0.06417428154352219  1.0000
  H   H32       1.0  0.20410473528942666  0.22237065951168938  0.008419388237164996  1.0000
  H   H33       1.0  0.08714158562051472  0.5145239959189852  0.13058672837014737  1.0000
  H   H34       1.0  0.191442106711051  0.588796587229993  0.9468971450755602  1.0000
  H   H35       1.0  0.10709374614104658  0.6887804842854167  0.9396243225815296  1.0000
  H   H36       1.0  0.012958014248283698  0.6223851639764321  0.1318145535115249  1.0000
  H   H37       1.0  0.7310522048607453  0.6989602559594771  0.3625167797291623  1.0000
  H   H38       1.0  0.8971012441758577  0.5777959140342972  0.27350054760815107  1.0000
  H   H39       1.0  0.8979070649828528  0.657629224052769  0.16979579305883866  1.0000
  H   H40       1.0  0.7232333635216364  0.7705185963889392  0.2537385745738305  1.0000
  H   H41       1.0  0.8003965844947416  0.7513237641085198  0.5145862876144489  1.0000
  H   H42       1.0  0.8613559788639192  0.5792568007040869  0.6455641846791663  1.0000
  H   H43       1.0  0.8709278954603547  0.6624391862990819  0.7490715815095114  1.0000
  H   H44       1.0  0.8076212785275059  0.834396114629058  0.6189081098362194  1.0000
  H   H45       1.0  0.8906586162257994  0.149935261372697  0.18056907845112138  1.0000
  H   H46       1.0  0.9596830995202552  0.9776549189409  0.30725168594896957  1.0000
  H   H47       1.0  0.9704281243173368  0.06003816727198341  0.41186259096311767  1.0000
  H   H48       1.0  0.9041827387188448  0.2328248800169845  0.2844472725848845  1.0000
  H   H49       1.0  0.8809096808115627  0.23724612653930421  0.6620674546495023  1.0000
  H   H50       1.0  0.013544117555348097  0.08879763151138319  0.558653866396412  1.0000
  H   H51       1.0  0.0142941350922285  0.013279971746257498  0.6646684090343482  1.0000
  H   H52       1.0  0.8745355217033364  0.15792044792944182  0.7653951886498331  1.0000
  C   C1        1.0  0.9399524061201419  0.2053406298921843  0.5373702132892929  1.0000
  C   C2        1.0  0.9364554917082372  0.19719496229397754  0.4178758243841257  1.0000
  C   C3        1.0  0.9103950483340952  0.3003103554992066  0.47307803831470346  1.0000
  C   C4        1.0  0.8252064362544472  0.5997674855364536  0.39257977170422  1.0000
  C   C5        1.0  0.8313665715427944  0.6127249920076919  0.511605612323514  1.0000
  C   C6        1.0  0.858981371736391  0.5082869412483788  0.4596628949592441  1.0000
  C   C7        1.0  0.17996445646095077  0.4776785273141257  0.03261064741415249  1.0000
  C   C8        1.0  0.27191927010680667  0.41111666534061436  0.0007460439526738974  1.0000
  C   C9        1.0  0.1694590756490868  0.357609120295578  0.03385236891045909  1.0000
  C   C10       1.0  0.5676871716985588  0.3269814508652402  0.9095159678749308  1.0000
  C   C11       1.0  0.4775390036761991  0.3947825552668363  0.9438078046692692  1.0000
  C   C12       1.0  0.5815949490735335  0.446870672040994  0.9133521966918178  1.0000
  C   C13       1.0  0.4487523267710073  0.9657668190602422  0.27072138094254666  1.0000
  C   C14       1.0  0.38222268334705234  0.9352129251270965  0.36290172851286673  1.0000
  C   C15       1.0  0.3287485582100516  0.968822716373403  0.2611964300642313  1.0000
  C   C16       1.0  0.2983634885105815  0.8508577148148222  0.6595455487074344  1.0000
  C   C17       1.0  0.36633252188998006  0.8828549336730305  0.5688707805911051  1.0000
  C   C18       1.0  0.41828612840976115  0.8512363761204255  0.6720414036416711  1.0000
  C   C19       1.0  0.9336519766599521  0.03005202432866841  0.7797615829549256  1.0000
  C   C20       1.0  0.6608109415337964  0.8745948030409566  0.8612062872514983  1.0000
  C   C21       1.0  0.8511768415754233  0.8005645697764693  0.7534580833684003  1.0000
  C   C22       1.0  0.7418084779912063  0.08520409636396661  0.9088826689728788  1.0000
  C   C23       1.0  0.8187173699171737  0.771849177738936  0.14904883470785524  1.0000
  C   C24       1.0  0.0862270084721075  0.9412594163463269  0.07411546644414099  1.0000
  C   C25       1.0  0.7726243402287308  0.6884812085908221  0.9394479477368731  1.0000
  C   C26       1.0  0.6856019785268614  0.9589130955930472  0.08961805261100857  1.0000
  C   C27       1.0  0.9799156729416508  0.11656988800125839  0.0024854999170855997  1.0000
  C   C28       1.0  0.059244861293983285  0.8510829627784773  0.8371305971200582  1.0000
  C   C29       1.0  0.0018708903492524011  0.7175054452176113  0.02575652708549109  1.0000
  C   C30       1.0  0.9071640992284528  0.0107589679364821  0.17661151254185367  1.0000
  C   C31       1.0  0.2168021691798785  0.7867206262472877  0.7388450859449447  1.0000
  C   C32       1.0  0.22997051433935667  0.8441515340306225  0.6950391466858858  1.0000
  C   C33       1.0  0.18272848775815478  0.9000631104878496  0.6923468793945132  1.0000
  C   C34       1.0  0.12687666117570018  0.9015462059651256  0.7384188238731753  1.0000
  C   C35       1.0  0.11425201189497608  0.844454801235024  0.7828267956414761  1.0000
  C   C36       1.0  0.1573504206761598  0.7854225421347395  0.7803891173657148  1.0000
  C   C37       1.0  0.5478609389677587  0.869542779862378  0.6952607993150577  1.0000
  C   C38       1.0  0.4809790935965594  0.849645162202904  0.719784313294326  1.0000
  C   C39       1.0  0.47341596855080337  0.8336469539675236  0.7911397951232856  1.0000
  C   C40       1.0  0.5314267161164564  0.8390832976397887  0.8376562207314889  1.0000
  C   C41       1.0  0.5974589910065119  0.8618785784822904  0.8135175704874198  1.0000
  C   C42       1.0  0.6052907885850588  0.8760270223219281  0.7418311316779691  1.0000
  C   C43       1.0  0.19837056491522984  0.9534863776334955  0.2402479266254289  1.0000
  C   C44       1.0  0.2652754668584549  0.9718590263195065  0.21469210799198624  1.0000
  C   C45       1.0  0.272363360960341  0.9867869780570827  0.14306332003390304  1.0000
  C   C46       1.0  0.21401323618081136  0.9807460751898632  0.09710217839797508  1.0000
  C   C47       1.0  0.1482468067143543  0.9582869266134325  0.12211601969503498  1.0000
  C   C48       1.0  0.1405607084546006  0.9462583841871893  0.19416537869998504  1.0000
  C   C49       1.0  0.5634706850537583  0.914850639268174  0.23697791692380576  1.0000
  C   C50       1.0  0.516159868043772  0.9706198924049686  0.23327822210453764  1.0000
  C   C51       1.0  0.5280758544492627  0.026166628867770197  0.18679263362781026  1.0000
  C   C52       1.0  0.5863886690967847  0.025792978274338896  0.1437926616919398  1.0000
  C   C53       1.0  0.6296686277302824  0.9668652336930703  0.14282665251732135  1.0000
  C   C54       1.0  0.6181971132764872  0.9116047844633001  0.18971056694704197  1.0000
  C   C55       1.0  0.3771949599181355  0.916361444611972  0.4350974417542658  1.0000
  C   C56       1.0  0.3722440955461366  0.9013884245568559  0.49665639988931076  1.0000
  C   C57       1.0  0.6522009671003987  0.24984669289951  0.8482360194807865  1.0000
  C   C58       1.0  0.6021653178289341  0.25839056267917476  0.9006279686273828  1.0000
  C   C59       1.0  0.5918560507346271  0.2053960323543151  0.9502234869035247  1.0000
  C   C60       1.0  0.636542947613421  0.14818909977849157  0.9515910599323543  1.0000
  C   C61       1.0  0.6877240445118886  0.1406677163611292  0.9001662310176286  1.0000
  C   C62       1.0  0.6929840836770608  0.18970696615367894  0.8462836719856311  1.0000
  C   C63       1.0  0.6049225583657573  0.5764974820002066  0.9299034735962763  1.0000
  C   C64       1.0  0.6299718497048232  0.5093817182494362  0.9124391015192611  1.0000
  C   C65       1.0  0.7022877573056617  0.5013543764563194  0.8992192700831864  1.0000
  C   C66       1.0  0.7493363511359378  0.5591873645669098  0.9052477572804771  1.0000
  C   C67       1.0  0.7246031041699225  0.625423132622501  0.9257386082361521  1.0000
  C   C68       1.0  0.6519605359765209  0.6337943591947023  0.9368608169456039  1.0000
  C   C69       1.0  0.10121555649698168  0.17000364776829  0.010241544357100495  1.0000
  C   C70       1.0  0.028509474261213096  0.17798486497865443  0.020976421683499794  1.0000
  C   C71       1.0  0.0034682109521994983  0.24351705463810444  0.043330646155219185  1.0000
  C   C72       1.0  0.0501190124758963  0.30153652063195574  0.05031211319160889  1.0000
  C   C73       1.0  0.12236495195266166  0.2942642975968113  0.036385660173458186  1.0000
  C   C74       1.0  0.1479545004093339  0.22747964528067396  0.018343092717344696  1.0000
  C   C75       1.0  0.09341020289880221  0.5548894270329399  0.09097927802806537  1.0000
  C   C76       1.0  0.1432765123002184  0.5454008930881927  0.03855057233671028  1.0000
  C   C77       1.0  0.1516097788337589  0.5962630378157029  0.9865502669208082  1.0000
  C   C78       1.0  0.1055269594471326  0.6522971023988332  0.9832769078342023  1.0000
  C   C79       1.0  0.05492540479860961  0.6611060911020487  0.03510581327351759  1.0000
  C   C80       1.0  0.05131113632017299  0.6141262190580009  0.09089884371616107  1.0000
  C   C81       1.0  0.34410276039593407  0.40595689450122313  0.9806770245541542  1.0000
  C   C82       1.0  0.4054796785682413  0.40078766969659085  0.9639857633556727  1.0000
  C   C83       1.0  0.7652328455456184  0.688304365965621  0.3186202529672712  1.0000
  C   C84       1.0  0.8147658261045548  0.6345816108814545  0.324531620995252  1.0000
  C   C85       1.0  0.859610248807229  0.6204117394512636  0.2687507028361792  1.0000
  C   C86       1.0  0.8593390893353998  0.6641428405984726  0.21082151238116603  1.0000
  C   C87       1.0  0.810893510818353  0.7188531227107405  0.20583636431686608  1.0000
  C   C88       1.0  0.7615755436218165  0.7286568495371243  0.25843288141560083  1.0000
  C   C89       1.0  0.814675292625388  0.732310820183578  0.5665075209481001  1.0000
  C   C90       1.0  0.8305404381822541  0.6604129024201626  0.573865393266068  1.0000
  C   C91       1.0  0.8495229547054706  0.6350245349639251  0.64028742736766  1.0000
  C   C92       1.0  0.8547970933986448  0.6812360736578994  0.6976064433292277  1.0000
  C   C93       1.0  0.8404285831096843  0.7533942527642664  0.6900582397703088  1.0000
  C   C94       1.0  0.8189775197687298  0.7784613786157522  0.6243331359312521  1.0000
  C   C95       1.0  0.9089563902057947  0.13111123169073835  0.23134873213938073  1.0000
  C   C96       1.0  0.9233287194378473  0.058917649082196995  0.23816238311250967  1.0000
  C   C97       1.0  0.9480225698312734  0.033605031009273006  0.302664712412671  1.0000
  C   C98       1.0  0.9543338396479157  0.0793684631279632  0.36058727841254506  1.0000
  C   C99       1.0  0.9374525440684636  0.1511301837389212  0.3544581369526013  1.0000
  C   C100      1.0  0.9164516130636428  0.17705378021518917  0.2888146054581212  1.0000
  C   C101      1.0  0.9098795326686542  0.18817138842036477  0.6632876551240371  1.0000
  C   C102      1.0  0.947027648275693  0.1672341017351755  0.6039597392738256  1.0000
  C   C103      1.0  0.9854249021446433  0.1046209061738281  0.6052920689568352  1.0000
  C   C104      1.0  0.9853118631549476  0.062382799100284096  0.6641584308530213  1.0000
  C   C105      1.0  0.9441574053573233  0.08081947931287199  0.7212943361492561  1.0000
  C   C106      1.0  0.9070605447534702  0.1441033653827191  0.7209424995997011  1.0000
  C   C107      1.0  0.8777058167366931  0.4355331984355503  0.46520040926205286  1.0000
  C   C108      1.0  0.8925342794154999  0.37343812803481297  0.4692724115993767  1.0000
  N   N1        1.0  0.952137289284167  0.16692380454273356  0.4791897329293631  1.0000
  N   N2        1.0  0.9164763985793698  0.26485633014083726  0.411626200392817  1.0000
  N   N3        1.0  0.9185657041002172  0.27283980655404605  0.5375994415717001  1.0000
  N   N4        1.0  0.8129569636973173  0.6401538997237423  0.4495223255154313  1.0000
  N   N5        1.0  0.8531436887627207  0.545846220558957  0.5198512568253049  1.0000
  N   N6        1.0  0.8492086286545798  0.5333387687208244  0.39428872313231966  1.0000
  N   N7        1.0  0.24549504139696407  0.4765961351531374  0.006557919261055597  1.0000
  N   N8        1.0  0.235873474221556  0.35002788374636395  0.011093136155316997  1.0000
  N   N9        1.0  0.14152880047903693  0.4202114611323323  0.05015287353190699  1.0000
  N   N10       1.0  0.5020324070969765  0.3288294882552023  0.9351998435244155  1.0000
  N   N11       1.0  0.5152552791873645  0.4553594782158897  0.9360328777380502  1.0000
  N   N12       1.0  0.6080180499851763  0.38415690792756857  0.894954198730616  1.0000
  N   N13       1.0  0.4475862070991353  0.9394909221576384  0.33589118528536926  1.0000
  N   N14       1.0  0.3211674411937153  0.946268488411604  0.3274091800334204  1.0000
  N   N15       1.0  0.3915161981206055  0.9846248536842311  0.23301122467831442  1.0000
  N   N16       1.0  0.3004038136860103  0.8769135121186907  0.5943444075595252  1.0000
  N   N17       1.0  0.4268531590417125  0.8736345996899005  0.6058768055327162  1.0000
  N   N18       1.0  0.3552304049959574  0.8338265454983328  0.6988193458994089  1.0000
  O   O1        1.0  0.9835945098589176  0.019634379364120505  0.8235939424608316  1.0000
  O   O2        1.0  0.6646957750600961  0.8492156299950865  0.9224003289652457  1.0000
  O   O3        1.0  0.8252630935869902  0.8618180690447658  0.7571735321478525  1.0000
  O   O4        1.0  0.755442407549822  0.043631230140604806  0.8584103574551206  1.0000
  O   O5        1.0  0.7719001182310946  0.08658195384160192  0.9701886853253965  1.0000
  O   O6        1.0  0.8876300235967065  0.7718378447925148  0.8027247516218876  1.0000
  O   O7        1.0  0.7098359909515183  0.912164836542743  0.8329942580244916  1.0000
  O   O8        1.0  0.8713071683056486  0.0014769104007897  0.7798955206480896  1.0000
  O   O9        1.0  0.7884507805304253  0.9396313843171312  0.9592664543013991  1.0000
  O   O10       1.0  0.9124004591759699  0.8984743806569927  0.8814287764905229  1.0000
  O   O11       1.0  0.8005858157273239  0.8277296086415832  0.8912186303526396  1.0000
  O   O12       1.0  0.8825003444100686  0.0212880282537782  0.9177226415705062  1.0000
  O   O13       1.0  0.7676491998975052  0.783792622895717  0.10701606632591878  1.0000
  O   O14       1.0  0.08209119302834722  0.9654832972000875  0.012401429608914293  1.0000
  O   O15       1.0  0.8344304649115771  0.6930102256953815  0.9150585263519913  1.0000
  O   O16       1.0  0.7277096653984004  0.010323510773154998  0.07745979497575918  1.0000
  O   O17       1.0  0.9174259603347537  0.11198179529871768  0.025355660791632297  1.0000
  O   O18       1.0  0.018335431360696895  0.7989872106112301  0.8501804217838467  1.0000
  O   O19       1.0  0.9893166266712966  0.7600120431730559  0.07583345402644429  1.0000
  O   O20       1.0  0.932116044798775  0.9490389152871045  0.17278851646349114  1.0000
  O   O21       1.0  0.9733881567207588  0.7180016684836872  0.9637724215874073  1.0000
  O   O22       1.0  0.8654859503853132  0.03771049922764289  0.1304921258103064  1.0000
  O   O23       1.0  0.7438392790934072  0.7367418040106486  0.9767956522626589  1.0000
  O   O24       1.0  0.0597002629960102  0.912155778963971  0.8680359397122428  1.0000
  O   O25       1.0  0.0076177633693959  0.07134796940955819  0.9608233819954674  1.0000
  O   O26       1.0  0.6866355484129939  0.8969589854261385  0.06071131850527679  1.0000
  O   O27       1.0  0.8801588644021764  0.802693760695071  0.14993890477752808  1.0000
  O   O28       1.0  0.04007740557923969  0.8995198880720848  0.10132857516634167  1.0000
  O   O29       1.0  0.9304206832232323  0.9610014511071157  0.02295985595028329  1.0000
  O   O30       1.0  0.8692497002712257  0.8179272987441308  0.003341169831756499  1.0000
  O   O31       1.0  0.9925562675694549  0.8565467358937582  0.9761847163235796  1.0000
  O   O32       1.0  0.82499408292977  0.9114410334961817  0.08225006735212047  1.0000
