data_image0
_chemical_formula_structural       La4H28C24O32
_chemical_formula_sum              "La4 H28 C24 O32"
_cell_length_a       8.777757529781617
_cell_length_b       9.456921451746112
_cell_length_c       12.919901759960975
_cell_angle_alpha    75.75311171442868
_cell_angle_beta     70.15769206461022
_cell_angle_gamma    62.34386420997342

_space_group_name_H-M_alt    "P 1"
_space_group_IT_number       1

loop_
  _space_group_symop_operation_xyz
  'x, y, z'

loop_
  _atom_site_type_symbol
  _atom_site_label
  _atom_site_symmetry_multiplicity
  _atom_site_fract_x
  _atom_site_fract_y
  _atom_site_fract_z
  _atom_site_occupancy
  La  La1       1.0  0.00011117893747316344  0.49781291014545564  0.6709560900619708  1.0000
  La  La2       1.0  0.8311467121656193  0.9978892755067861  0.1709021278983229  1.0000
  La  La3       1.0  0.9998867634449198  0.5021882050368518  0.32904458181138097  1.0000
  La  La4       1.0  0.16885163070674014  0.0021106433354062997  0.8290975750008088  1.0000
  H   H1        1.0  0.328229458976793  0.4793296109010683  0.03883804917838769  1.0000
  H   H2        1.0  0.15388199953035567  0.9792766668519589  0.5387556648897417  1.0000
  H   H3        1.0  0.6717722666727254  0.5206727074955495  0.9611618328401689  1.0000
  H   H4        1.0  0.8461189792290822  0.020723252693223105  0.4612438264384052  1.0000
  H   H5        1.0  0.16827160166017988  0.471403912366334  0.9903967828195094  1.0000
  H   H6        1.0  0.3701455208554593  0.9714147132496079  0.4903677575468492  1.0000
  H   H7        1.0  0.8317299075853414  0.528597202327653  0.009603958511881686  1.0000
  H   H8        1.0  0.6298547433319469  0.028586411189508002  0.5096305934394394  1.0000
  H   H9        1.0  0.5798869055004445  0.37809139321921487  0.883647088402654  1.0000
  H   H10       1.0  0.1584256486266185  0.8782421180601929  0.38349811508926024  1.0000
  H   H11       1.0  0.4201117514539874  0.6219085170691513  0.11635472381256302  1.0000
  H   H12       1.0  0.8415741827527797  0.1217565989736684  0.6165019545227038  1.0000
  H   H13       1.0  0.44258622135706116  0.3433667796117489  0.8279120128189206  1.0000
  H   H14       1.0  0.38618260753221295  0.8434382470395361  0.3278704809712494  1.0000
  H   H15       1.0  0.5574132095323704  0.6566331337622273  0.17208902576727073  1.0000
  H   H16       1.0  0.6138170397612229  0.15656287003707087  0.6721296983021006  1.0000
  H   H17       1.0  0.5102643325790766  0.6882975627491277  0.820016235369927  1.0000
  H   H18       1.0  0.9814455175043263  0.1883828694440197  0.31999975992133756  1.0000
  H   H19       1.0  0.48973555816328923  0.3117023622642705  0.17998192027115312  1.0000
  H   H20       1.0  0.01855298240906926  0.8116170451212595  0.6800009976358298  1.0000
  H   H21       1.0  0.37782275541013627  0.48133018395282057  0.6058805114346201  1.0000
  H   H22       1.0  0.5350880520444856  0.9813050649759207  0.1058772301646726  1.0000
  H   H23       1.0  0.6221797118563472  0.5186685337840231  0.39411934660635944  1.0000
  H   H24       1.0  0.4649104478689025  0.018694849589366  0.8941235273924946  1.0000
  H   H25       1.0  0.36725381415784863  0.4519094934989666  0.4922498997925544  1.0000
  H   H26       1.0  0.6885920053653077  0.9518442710243632  0.9922368470841292  1.0000
  H   H27       1.0  0.6327486531086348  0.5480892242378843  0.5077499582484252  1.0000
  H   H28       1.0  0.31140782601409717  0.048154446009498  0.007763222527827879  1.0000
  C   C1        1.0  0.20139970410831154  0.6457040235255674  0.794962930596583  1.0000
  C   C2        1.0  0.3579831648599878  0.14579431360490253  0.29496951356436085  1.0000
  C   C3        1.0  0.7985973072980457  0.35429709284804994  0.20503746024775168  1.0000
  C   C4        1.0  0.6420163253924182  0.8542068077486109  0.7050296110509465  1.0000
  C   C5        1.0  0.33208632181817405  0.5838795435101146  0.8687761232159447  1.0000
  C   C6        1.0  0.21536715591238925  0.08395823156853771  0.36875217653120274  1.0000
  C   C7        1.0  0.6679114635231895  0.41612157594910576  0.13122349399936434  1.0000
  C   C8        1.0  0.7846331082750236  0.9160428928705855  0.6312461744550789  1.0000
  C   C9        1.0  0.23249327533177686  0.5483792567246437  0.9884645128006894  1.0000
  C   C10       1.0  0.23087357704035574  0.048369686816606396  0.48842921772625664  1.0000
  C   C11       1.0  0.7675073029376946  0.4516218591606531  0.011535947501684412  1.0000
  C   C12       1.0  0.769127244678053  0.9516302370054887  0.5115692189438406  1.0000
  C   C13       1.0  0.09123190873872032  0.6952216676469121  0.045685563083317476  1.0000
  C   C14       1.0  0.16793946078700367  0.19516088128829515  0.5457620809856607  1.0000
  C   C15       1.0  0.9087675815136865  0.30477945370660103  0.9543135615319895  1.0000
  C   C16       1.0  0.8320624489484771  0.8048390370655767  0.4542376913715032  1.0000
  C   C17       1.0  0.4936386746426465  0.430356783541903  0.8270896578884788  1.0000
  C   C18       1.0  0.2489887391608645  0.9304706055171581  0.3269960963970887  1.0000
  C   C19       1.0  0.5063615301817921  0.569643132917676  0.1729106070686868  1.0000
  C   C20       1.0  0.751010908132578  0.0695305115594493  0.6730040828762611  1.0000
  C   C21       1.0  0.6005887061141447  0.4603585169825806  0.7091403723062938  1.0000
  C   C22       1.0  0.23003783434036518  0.9604473604770193  0.2090189788033427  1.0000
  C   C23       1.0  0.3994122132823322  0.5396401945830644  0.2908610329927299  1.0000
  C   C24       1.0  0.7699618399980037  0.0395513608337481  0.7909800361505716  1.0000
  O   O1        1.0  0.1400314663277127  0.5510239110266398  0.7903434872565428  1.0000
  O   O2        1.0  0.5186530077263712  0.0511722780612729  0.2903095014915351  1.0000
  O   O3        1.0  0.8599634396776278  0.448978399792793  0.20965836516202063  1.0000
  O   O4        1.0  0.4813485608821179  0.9488300446122581  0.7096893258689718  1.0000
  O   O5        1.0  0.15776465105515303  0.7895296745973324  0.74755380289146  1.0000
  O   O6        1.0  0.30505883942092277  0.2896708144245892  0.24758509438244397  1.0000
  O   O7        1.0  0.8422329178822068  0.2104702411592498  0.2524466736366903  1.0000
  O   O8        1.0  0.6949421987014901  0.7103303131001368  0.752412482974819  1.0000
  O   O9        1.0  0.38733720378147707  0.7046001586176375  0.869296094817841  1.0000
  O   O10       1.0  0.03886741240571467  0.2047031914809168  0.369253099646457  1.0000
  O   O11       1.0  0.6126622864709289  0.2954009627358829  0.13070302979746629  1.0000
  O   O12       1.0  0.9611318614426879  0.7952967261699655  0.6307468842816847  1.0000
  O   O13       1.0  0.04754483382415481  0.8361633024776652  0.9942337014595922  1.0000
  O   O14       1.0  0.12211768177307643  0.33613197597615135  0.4943284387291911  1.0000
  O   O15       1.0  0.9524546564282517  0.16383781887584803  0.005765423155715108  1.0000
  O   O16       1.0  0.8778810345443231  0.6638691422917588  0.5056714595151418  1.0000
  O   O17       1.0  0.015170829803466417  0.6757404715845465  0.1479528041576259  1.0000
  O   O18       1.0  0.16099812186555326  0.17569234716957283  0.648060278974917  1.0000
  O   O19       1.0  0.9848288174899694  0.32426064549205336  0.852047375115731  1.0000
  O   O20       1.0  0.8390052763769731  0.8243063693759679  0.3519398600950794  1.0000
  O   O21       1.0  0.7665661004890295  0.4163734317958543  0.69013914145296  1.0000
  O   O22       1.0  0.12712454725356534  0.9164446325230102  0.1899336440809805  1.0000
  O   O23       1.0  0.23343481890744025  0.583625279769784  0.3098622638460711  1.0000
  O   O24       1.0  0.8728741690638274  0.08355648574490002  0.8100662541633524  1.0000
  O   O25       1.0  0.5153600583460617  0.5297992538823236  0.635379581015684  1.0000
  O   O26       1.0  0.3196158630125439  0.0298454960111698  0.13531367464108263  1.0000
  O   O27       1.0  0.4846420354753818  0.4701982644288023  0.3646200816800871  1.0000
  O   O28       1.0  0.6803851157469007  0.9701544235340123  0.8646858166870571  1.0000
  O   O29       1.0  0.3107837375552621  0.4486631661108546  0.574548601958199  1.0000
  O   O30       1.0  0.6660993545224445  0.948638583697587  0.07453502754859896  1.0000
  O   O31       1.0  0.6892179557762146  0.5513355485403864  0.42545202971179913  1.0000
  O   O32       1.0  0.33390047685695384  0.051360133336267204  0.9254650420633581  1.0000
