data_image0
_chemical_formula_structural       Hg4H20C24I8N8O2
_chemical_formula_sum              "Hg4 H20 C24 I8 N8 O2"
_cell_length_a       8.014543402188758
_cell_length_b       9.375699231046372
_cell_length_c       14.32701940759313
_cell_angle_alpha    90.00027785378833
_cell_angle_beta     88.90403263500188
_cell_angle_gamma    90.00023154710085

_space_group_name_H-M_alt    "P 1"
_space_group_IT_number       1

loop_
  _space_group_symop_operation_xyz
  'x, y, z'

loop_
  _atom_site_type_symbol
  _atom_site_label
  _atom_site_symmetry_multiplicity
  _atom_site_fract_x
  _atom_site_fract_y
  _atom_site_fract_z
  _atom_site_occupancy
  Hg  Hg1       1.0  0.5641929129312473  0.7441544672264089  0.8461279210312398  1.0000
  Hg  Hg2       1.0  0.5641880843723186  0.25585409352667915  0.34612456888554294  1.0000
  Hg  Hg3       1.0  0.44453842209485833  0.9027478706764783  0.1565500885103077  1.0000
  Hg  Hg4       1.0  0.44453778423662277  0.09725140839211832  0.6565500153312983  1.0000
  H   H1        1.0  0.7904486696406181  0.41111846556845677  0.015285796736712603  1.0000
  H   H2        1.0  0.7904475425136611  0.5888724012660376  0.5152928202805569  1.0000
  H   H3        1.0  0.15608763199135472  0.6977517012932779  0.7917006879707884  1.0000
  H   H4        1.0  0.15609662590553341  0.3022540059712711  0.2916996677241031  1.0000
  H   H5        1.0  0.9503416625389819  0.5023381943168348  0.7665868892983738  1.0000
  H   H6        1.0  0.9503490830228785  0.49766361625952277  0.2665864599148051  1.0000
  H   H7        1.0  0.03519110719128799  0.24851678174783134  0.8040160822474081  1.0000
  H   H8        1.0  0.03520097166909151  0.7514864745657662  0.30401645088770124  1.0000
  H   H9        1.0  0.3171097556396632  0.20674035714507266  0.8708964428231097  1.0000
  H   H10       1.0  0.31711829643099787  0.7932643514452381  0.3709018193303066  1.0000
  H   H11       1.0  0.5725806118658455  0.30046950660433686  0.9356661316465846  1.0000
  H   H12       1.0  0.5725899581132694  0.6995322826322907  0.43567122508730455  1.0000
  H   H13       1.0  0.0403521198446839  0.3445323576647469  0.0321201422490134  1.0000
  H   H14       1.0  0.0403527492052902  0.6554614272003718  0.5321238911189141  1.0000
  H   H15       1.0  0.31605058597645547  0.3226094028913451  0.1064714608600781  1.0000
  H   H16       1.0  0.3160527612592787  0.6773869353283998  0.6064717961272025  1.0000
  H   H17       1.0  0.47813162566050954  0.544821502080552  0.1418668815363233  1.0000
  H   H18       1.0  0.47813766464318536  0.45517778152606775  0.6418679556756574  1.0000
  H   H19       1.0  0.10286700717908563  0.8033836035451856  0.0401692538737137  1.0000
  H   H20       1.0  0.1028627443363064  0.19661151949291172  0.5401757468203598  1.0000
  C   C1        1.0  0.18703993818736822  0.5874069798696055  0.8085843699334205  1.0000
  C   C2        1.0  0.18704571026740519  0.41259575805548115  0.3085836674480902  1.0000
  C   C3        1.0  0.0725673497772519  0.4772357507851838  0.7945187428367717  1.0000
  C   C4        1.0  0.0725762921258237  0.5227664948411787  0.2945156077951481  1.0000
  C   C5        1.0  0.11916260359613064  0.33804842323043266  0.8157476780713893  1.0000
  C   C6        1.0  0.11917196789327988  0.6619552047277966  0.31574916433293515  1.0000
  C   C7        1.0  0.27645219693669537  0.31402821721598423  0.8523335701847189  1.0000
  C   C8        1.0  0.27645777627012086  0.68597941534199  0.3523378979311005  1.0000
  C   C9        1.0  0.38308748007834487  0.43001019903785936  0.8662383202362919  1.0000
  C   C10       1.0  0.3830888876798824  0.5699914985389543  0.3662401675583808  1.0000
  C   C11       1.0  0.5428855825314187  0.4081583993926685  0.9110277385207439  1.0000
  C   C12       1.0  0.5428894316896874  0.5918463057337249  0.4110324630311553  1.0000
  C   C13       1.0  0.8957437194695076  0.6080845934679786  0.9758983007851754  1.0000
  C   C14       1.0  0.8957505633281002  0.39191752283841913  0.4758989385854734  1.0000
  C   C15       1.0  0.049782314441543504  0.5775336493788148  0.028732174528606404  1.0000
  C   C16       1.0  0.04978823822954579  0.42245907562445234  0.5287324488460429  1.0000
  C   C17       1.0  0.10963165990717978  0.4408048251808197  0.04931948346538211  1.0000
  C   C18       1.0  0.10963444722457893  0.5591925220068961  0.5493208556837956  1.0000
  C   C19       1.0  0.2649891160918116  0.42731931371873344  0.0904439147446396  1.0000
  C   C20       1.0  0.2649908367586775  0.5726756657545665  0.5904432262432167  1.0000
  C   C21       1.0  0.3548165565582053  0.5501551791022693  0.1105897178536281  1.0000
  C   C22       1.0  0.35482011473765596  0.44984345421012506  0.610590060363144  1.0000
  C   C23       1.0  0.147364767819937  0.6953149886617069  0.0534775395356206  1.0000
  C   C24       1.0  0.14736502981307353  0.30468145065128033  0.5534795077045374  1.0000
  I   I1        1.0  0.7069432328906375  0.745339028481915  0.6690402669736741  1.0000
  I   I2        1.0  0.7069297063206789  0.254659098909613  0.1690361536390768  1.0000
  I   I3        1.0  0.5193337852113161  0.9835289258990444  0.9505044755891845  1.0000
  I   I4        1.0  0.5193412756701364  0.0164813260921051  0.45050535864874774  1.0000
  I   I5        1.0  0.7231422882363036  0.7677858008460278  0.20824294616164002  1.0000
  I   I6        1.0  0.7231448203955607  0.23221267309799742  0.7082426117136222  1.0000
  I   I7        1.0  0.15967297887588933  0.0469201415059501  0.1892369313344275  1.0000
  I   I8        1.0  0.15967532366631326  0.9530730831355995  0.6892360214860817  1.0000
  N   N1        1.0  0.3387221521286392  0.5644778748243126  0.8429777688049569  1.0000
  N   N2        1.0  0.3387266678363972  0.4355266992277151  0.3429792233291877  1.0000
  N   N3        1.0  0.6412495532730631  0.5151938278915366  0.9231603952714309  1.0000
  N   N4        1.0  0.6412543013167422  0.48480490106605595  0.4231620030884997  1.0000
  N   N5        1.0  0.7828972299156973  0.496765752335584  0.9706866129689119  1.0000
  N   N6        1.0  0.7828996091718992  0.5032284769364921  0.47068756306298815  1.0000
  N   N7        1.0  0.2953871481499347  0.6813430975937393  0.0936714581268205  1.0000
  N   N8        1.0  0.29538244757659277  0.31865414200758113  0.5936741338556005  1.0000
  O   O1        1.0  0.8740920794510673  0.7225654670467918  0.9352427448289191  1.0000
  O   O2        1.0  0.8740912118090095  0.2774266741553504  0.4352373911080889  1.0000
