data_image0
_chemical_formula_structural       Na4H44C16O20
_chemical_formula_sum              "Na4 H44 C16 O20"
_cell_length_a       5.904389351419609
_cell_length_b       11.754457719935191
_cell_length_c       12.081218184574006
_cell_angle_alpha    65.18533362801564
_cell_angle_beta     75.52286482923685
_cell_angle_gamma    75.08369686571578

_space_group_name_H-M_alt    "P 1"
_space_group_IT_number       1

loop_
  _space_group_symop_operation_xyz
  'x, y, z'

loop_
  _atom_site_type_symbol
  _atom_site_label
  _atom_site_symmetry_multiplicity
  _atom_site_fract_x
  _atom_site_fract_y
  _atom_site_fract_z
  _atom_site_occupancy
  Na  Na1       1.0  0.8863791683524339  0.7300273726721046  0.7612712079507132  1.0000
  Na  Na2       1.0  0.3770737867432887  0.7696238333679729  0.738921855493672  1.0000
  Na  Na3       1.0  0.1136310315132079  0.2699717173284029  0.23873426859255892  1.0000
  Na  Na4       1.0  0.6229348270184331  0.2303663912363092  0.2610685463539966  1.0000
  H   H1        1.0  0.46766084472860564  0.7575417337572716  0.04533989527344314  1.0000
  H   H2        1.0  0.27500788039445506  0.7426300011674198  0.455360091800813  1.0000
  H   H3        1.0  0.5322817662346327  0.2424594306841783  0.9546860201541278  1.0000
  H   H4        1.0  0.7250634870673172  0.2573866804282829  0.5446220017220185  1.0000
  H   H5        1.0  0.00854668626760708  0.9686781137407652  0.6154185009625477  1.0000
  H   H6        1.0  0.5946640927599773  0.5315330241107006  0.8847126639894896  1.0000
  H   H7        1.0  0.9914411040398651  0.0313398714877948  0.38459337994037673  1.0000
  H   H8        1.0  0.40530984041750895  0.4684746310831827  0.1152799607393291  1.0000
  H   H9        1.0  0.11014830267120596  0.8837481790914127  0.5315346657959523  1.0000
  H   H10       1.0  0.5253448527247714  0.6160576679070644  0.9689069535645204  1.0000
  H   H11       1.0  0.8898414519903781  0.1162657528290225  0.4684813406291256  1.0000
  H   H12       1.0  0.47465178261352753  0.3839421132155751  0.031090781550759047  1.0000
  H   H13       1.0  0.26353344460500244  0.5908066889547287  0.648156123904009  1.0000
  H   H14       1.0  0.4961160951683894  0.9079845620157696  0.8530540868766963  1.0000
  H   H15       1.0  0.7365159581100187  0.4092208249509214  0.351807902251565  1.0000
  H   H16       1.0  0.5038776761612456  0.0919794462909138  0.14697301224221354  1.0000
  H   H17       1.0  0.3732323178475316  0.507557057477726  0.7728987351717151  1.0000
  H   H18       1.0  0.648451391682066  0.9913257701042824  0.7286014549731447  1.0000
  H   H19       1.0  0.6267493704382545  0.49244865322496895  0.22708407491455063  1.0000
  H   H20       1.0  0.35150024594683765  0.008657911900598897  0.27142343074024927  1.0000
  H   H21       1.0  0.8046152160495976  0.8856635061521061  0.9838435686493412  1.0000
  H   H22       1.0  0.6807213069067828  0.6143345420429185  0.5165354408774618  1.0000
  H   H23       1.0  0.19533119398919746  0.1143201076335245  0.01616070291464669  1.0000
  H   H24       1.0  0.31935692877423355  0.3856505035619405  0.4834706494243619  1.0000
  H   H25       1.0  0.050250702002273474  0.9459625907568778  0.8694411803247775  1.0000
  H   H26       1.0  0.8709397008800578  0.5540899197067118  0.6309745194300689  1.0000
  H   H27       1.0  0.9497069653984623  0.054025529960178176  0.1305749056185661  1.0000
  H   H28       1.0  0.12916819064435706  0.44592702171159004  0.36901447255257835  1.0000
  H   H29       1.0  0.04776845596432368  0.8602179091395712  0.12416211399625604  1.0000
  H   H30       1.0  0.04224115375686204  0.6395592726897804  0.3763467188872199  1.0000
  H   H31       1.0  0.9521724115163506  0.13976917328472638  0.8758556912524399  1.0000
  H   H32       1.0  0.9578358396955767  0.3604544970735972  0.6236368802474814  1.0000
  H   H33       1.0  0.06446684125320698  0.6370845235455036  0.20601246351818492  1.0000
  H   H34       1.0  0.9135534819438224  0.862885136237118  0.2943184391186691  1.0000
  H   H35       1.0  0.9354897826358554  0.3629147739197549  0.7940025903808845  1.0000
  H   H36       1.0  0.08649071795605319  0.137116493829339  0.705667424661563  1.0000
  H   H37       1.0  0.11677010001161396  0.5629618708776504  0.005440864170488206  1.0000
  H   H38       1.0  0.6846192436254979  0.9371318305783874  0.4948631091349683  1.0000
  H   H39       1.0  0.8832107049721928  0.4370210353894349  0.9945816261077312  1.0000
  H   H40       1.0  0.3153837826527734  0.06287773963173042  0.5051065339874441  1.0000
  H   H41       1.0  0.8455744717128366  0.6415150890417537  0.06867907247788446  1.0000
  H   H42       1.0  0.5585503202195169  0.8586788244646187  0.4315479685169237  1.0000
  H   H43       1.0  0.15438402951071575  0.35847271124499974  0.9313191988763379  1.0000
  H   H44       1.0  0.44148833553943234  0.14130886060872433  0.5684282757621446  1.0000
  C   C1        1.0  0.996281831052677  0.863628777243676  0.9502508876827419  1.0000
  C   C2        1.0  0.8154997923724921  0.6364038367226571  0.5500878218343317  1.0000
  C   C3        1.0  0.003672419320494689  0.13635689238913073  0.0497615429204785  1.0000
  C   C4        1.0  0.18457227578965546  0.3636028128702691  0.4499035022062968  1.0000
  C   C5        1.0  0.13940780294849006  0.8195607731583865  0.05437804660533622  1.0000
  C   C6        1.0  0.020252874692445882  0.6803543976335787  0.4460884354488854  1.0000
  C   C7        1.0  0.8605326900798004  0.18043214493454943  0.9456363577865474  1.0000
  C   C8        1.0  0.9798093423703733  0.31965933228681825  0.5538959672197166  1.0000
  C   C9        1.0  0.1627626495859432  0.6685470858965133  0.11056505395085024  1.0000
  C   C10       1.0  0.9463912305182163  0.8314429836364708  0.3897679089102297  1.0000
  C   C11       1.0  0.8371922844055532  0.3314468208131771  0.8894482641207944  1.0000
  C   C12       1.0  0.053647009758116065  0.1685659505681159  0.6102191008570088  1.0000
  C   C13       1.0  0.03306482794224048  0.6474786057152713  0.02674064728703478  1.0000
  C   C14       1.0  0.7093015647106076  0.8526189889084176  0.4735168844328187  1.0000
  C   C15       1.0  0.9668991454804116  0.3525079531822826  0.9732719629662014  1.0000
  C   C16       1.0  0.29072517180125584  0.14738330444117054  0.5264616518202487  1.0000
  O   O1        1.0  0.042357436786879414  0.7576271215100405  0.9117855047410117  1.0000
  O   O2        1.0  0.7136557220378562  0.7424541702902586  0.5884814276914838  1.0000
  O   O3        1.0  0.957624826461725  0.24235864964573753  0.08822509971012239  1.0000
  O   O4        1.0  0.2863842545468883  0.2575550718033668  0.411501954713799  1.0000
  O   O5        1.0  0.3747375609969837  0.8473310051653582  0.01186419922671435  1.0000
  O   O6        1.0  0.24013545051411722  0.6527493953730428  0.48889456287162153  1.0000
  O   O7        1.0  0.6252013048971538  0.152668460993965  0.9881492968145551  1.0000
  O   O8        1.0  0.7599384723091306  0.3472676656247131  0.511083051219849  1.0000
  O   O9        1.0  0.403857095206142  0.6123637304327476  0.10702938759833093  1.0000
  O   O10       1.0  0.12639513738715594  0.8875543717348152  0.3932468974144854  1.0000
  O   O11       1.0  0.596098086981421  0.3876357537325461  0.8929835239933227  1.0000
  O   O12       1.0  0.8736192406575545  0.11246695330545718  0.6067469868944357  1.0000
  O   O13       1.0  0.09819689687618921  0.8825625907941302  0.6171214795553226  1.0000
  O   O14       1.0  0.5992517366412072  0.6172847852377786  0.8832436306298846  1.0000
  O   O15       1.0  0.9017746161638199  0.11745048953358148  0.3828941038676986  1.0000
  O   O16       1.0  0.4007533190668795  0.38271479334981245  0.11675627106056648  1.0000
  O   O17       1.0  0.2522152935817346  0.5805234259162334  0.735296133754339  1.0000
  O   O18       1.0  0.5629996606835024  0.9187356954576132  0.7657207050276399  1.0000
  O   O19       1.0  0.7477872508634321  0.4194885675391332  0.2646775786090246  1.0000
  O   O20       1.0  0.43696348450767186  0.08124754436656191  0.2342983041696556  1.0000
