data_image0
_chemical_formula_structural       Zn16H24C96S16Cl8O68
_chemical_formula_sum              "Zn16 H24 C96 S16 Cl8 O68"
_cell_length_a       19.691978396243822
_cell_length_b       19.70675616466653
_cell_length_c       33.43880300567078
_cell_angle_alpha    78.97725972563104
_cell_angle_beta     79.01909758488425
_cell_angle_gamma    63.847125027892744

_space_group_name_H-M_alt    "P 1"
_space_group_IT_number       1

loop_
  _space_group_symop_operation_xyz
  'x, y, z'

loop_
  _atom_site_type_symbol
  _atom_site_label
  _atom_site_symmetry_multiplicity
  _atom_site_fract_x
  _atom_site_fract_y
  _atom_site_fract_z
  _atom_site_occupancy
  Zn  Zn1       1.0  0.05726498891308301  0.40021306129918327  0.47865182388512323  1.0000
  Zn  Zn2       1.0  0.9837510902628565  0.48326327003465497  0.5594345933017452  1.0000
  Zn  Zn3       1.0  0.05844087330888209  0.5615241592405765  0.48258223209143847  1.0000
  Zn  Zn4       1.0  0.9006265241552498  0.55467905981196  0.47934819288558833  1.0000
  Zn  Zn5       1.0  0.6934343781728883  0.34961554586706006  0.2709836430165424  1.0000
  Zn  Zn6       1.0  0.689328579223286  0.19007334471040588  0.2675718571861411  1.0000
  Zn  Zn7       1.0  0.7687331734828291  0.265631417239966  0.19019861766393836  1.0000
  Zn  Zn8       1.0  0.8473250001886896  0.19417342934482923  0.2720819147795056  1.0000
  Zn  Zn9       1.0  0.267340636469271  0.7678739127240276  0.6897979195423718  1.0000
  Zn  Zn10      1.0  0.34861860305908726  0.6954707425664278  0.7709205583877294  1.0000
  Zn  Zn11      1.0  0.19285081654300032  0.8490753187973534  0.7715954402707725  1.0000
  Zn  Zn12      1.0  0.19171931373742274  0.6887182005162061  0.7672310604344048  1.0000
  Zn  Zn13      1.0  0.560226078601012  0.05986746350425426  0.98249971879428  1.0000
  Zn  Zn14      1.0  0.40127807111660735  0.05610614274311134  0.9787137873082445  1.0000
  Zn  Zn15      1.0  0.5561417542146999  0.9012017403878687  0.9787258888350294  1.0000
  Zn  Zn16      1.0  0.48280823600983064  0.9822681274482221  0.0600316516983526  1.0000
  H   H1        1.0  0.4628785917077067  0.24004433893780688  0.3409019665653973  1.0000
  H   H2        1.0  0.4792563947867237  0.7024303964974906  0.6012462038555242  1.0000
  H   H3        1.0  0.20242756691873612  0.9792652929198483  0.6014552553266626  1.0000
  H   H4        1.0  0.9487917895776404  0.9702795309628699  0.3480628749218156  1.0000
  H   H5        1.0  0.5476711660694633  0.7705309604060203  0.14854261791337117  1.0000
  H   H6        1.0  0.1625993863281323  0.14126636002013976  0.04036020416193513  1.0000
  H   H7        1.0  0.300868993326567  0.2798051989430377  0.9019080493551006  1.0000
  H   H8        1.0  0.786921946049283  0.010047441347779677  0.909090375509905  1.0000
  H   H9        1.0  0.8101357009491325  0.5270660352588762  0.41858865166907594  1.0000
  H   H10       1.0  0.9398282257983512  0.22297539528940286  0.3313006357739213  1.0000
  H   H11       1.0  0.7227575929563059  0.44004571745754373  0.3313514224148051  1.0000
  H   H12       1.0  0.027229834073800408  0.30993445993824054  0.41860773431092485  1.0000
  H   H13       1.0  0.1358355258385586  0.6357928677130784  0.527029950171155  1.0000
  H   H14       1.0  0.11442978764551269  0.6144477316525679  0.7229018545285728  1.0000
  H   H15       1.0  0.22302457839879247  0.722998946751531  0.6143942935053135  1.0000
  H   H16       1.0  0.027195554796747994  0.5271607736630981  0.6357062016413979  1.0000
  H   H17       1.0  0.7229086100535013  0.22284904216670046  0.11441311993294793  1.0000
  H   H18       1.0  0.5269739179219356  0.02710160520181401  0.13556155354494595  1.0000
  H   H19       1.0  0.6356469131286815  0.1357356341382712  0.02706929625335161  1.0000
  H   H20       1.0  0.6142474541808342  0.11413142229892506  0.22286747240542581  1.0000
  H   H21       1.0  0.22273264228889636  0.9401255791825918  0.8314259151298558  1.0000
  H   H22       1.0  0.5273248243844009  0.8099567661936576  0.9186584463790411  1.0000
  H   H23       1.0  0.3101714317877509  0.027149375019625718  0.9186828160666567  1.0000
  H   H24       1.0  0.43990015002417954  0.723012816288694  0.8314651970907577  1.0000
  C   C1        1.0  0.06157871213272161  0.316188534024775  0.5615459918652521  1.0000
  C   C2        1.0  0.0699625009888791  0.5704653585847979  0.5699386942622129  1.0000
  C   C3        1.0  0.1838316065324719  0.4393172885800211  0.4387858831633979  1.0000
  C   C4        1.0  0.9375461179139108  0.6840463330560029  0.43883657820103394  1.0000
  C   C5        1.0  0.9301063792199147  0.4295758346800226  0.43014760982943306  1.0000
  C   C6        1.0  0.8162885834897011  0.5611457382691399  0.5617514002072428  1.0000
  C   C7        1.0  0.5654298644055019  0.3111938765199298  0.31147792542555663  1.0000
  C   C8        1.0  0.6801773319508443  0.179545149550279  0.18011594991243376  1.0000
  C   C9        1.0  0.6891034520229907  0.4334522544375333  0.18838523748483035  1.0000
  C   C10       1.0  0.934498323552411  0.1878807303025314  0.18922972979522262  1.0000
  C   C11       1.0  0.8196522218686583  0.3201325729050098  0.32006667535061695  1.0000
  C   C12       1.0  0.8114071755186744  0.06553511531822653  0.3116478484236468  1.0000
  C   C13       1.0  0.43412720535287264  0.6891590323138317  0.6881330984324379  1.0000
  C   C14       1.0  0.31987044815987536  0.8204398844031645  0.8199094177521716  1.0000
  C   C15       1.0  0.18881784482983477  0.93425492382692  0.6883265724009393  1.0000
  C   C16       1.0  0.06607953400811792  0.8106795636918702  0.8112970645188187  1.0000
  C   C17       1.0  0.1804536490802136  0.6798680785666065  0.6799431680542869  1.0000
  C   C18       1.0  0.31234305237732946  0.5659646725186178  0.8112272413376475  1.0000
  C   C19       1.0  0.438103910354009  0.18431038244408884  0.9385211494332781  1.0000
  C   C20       1.0  0.43006357513679927  0.9300109205624382  0.930095776504736  1.0000
  C   C21       1.0  0.6843762703519545  0.9388463799612836  0.9385657380266326  1.0000
  C   C22       1.0  0.5613480085786479  0.815726914714439  0.0616849464373388  1.0000
  C   C23       1.0  0.5700254547555588  0.069951533555809  0.06989346655138462  1.0000
  C   C24       1.0  0.31550291180342077  0.06161902148777178  0.06126877733458973  1.0000
  C   C25       1.0  0.9021817116811875  0.401895713095854  0.4019749980574547  1.0000
  C   C26       1.0  0.8479242121506659  0.3481047184259224  0.3478814464044434  1.0000
  C   C27       1.0  0.829201580681584  0.447789738125799  0.38832627082867793  1.0000
  C   C28       1.0  0.9209806940234415  0.30228875197703076  0.36147771502141524  1.0000
  C   C29       1.0  0.8022893549952953  0.4210507820690736  0.361488757012502  1.0000
  C   C30       1.0  0.9478946878145464  0.3290016468400125  0.3883169893496331  1.0000
  C   C31       1.0  0.0981413360769778  0.5982041655247697  0.5979267222504135  1.0000
  C   C32       1.0  0.15223083665703294  0.652126734128494  0.6519832445127207  1.0000
  C   C33       1.0  0.1414885555795848  0.6414643757922107  0.5818320494748266  1.0000
  C   C34       1.0  0.1088551492053327  0.6088665266944489  0.6680807246332139  1.0000
  C   C35       1.0  0.16829192599072226  0.6682887307243276  0.6086592419436132  1.0000
  C   C36       1.0  0.08205590943451568  0.5820230402885329  0.6412378285533864  1.0000
  C   C37       1.0  0.3044931031025371  0.45488584444294844  0.4010370298866591  1.0000
  C   C38       1.0  0.44590755604826887  0.296734228298952  0.3489084917595876  1.0000
  C   C39       1.0  0.25842950411527005  0.4157178135672411  0.4139304136675577  1.0000
  C   C40       1.0  0.49077244690182203  0.33662874452618036  0.3364962077215311  1.0000
  C   C41       1.0  0.37773128786113114  0.33980084614753275  0.37248980646633373  1.0000
  C   C42       1.0  0.372574640985448  0.4114619473081973  0.3773810233784759  1.0000
  C   C43       1.0  0.7260479076696243  0.5758763665086023  0.6297992398627345  1.0000
  C   C44       1.0  0.5240682221218762  0.6736176454173517  0.6211723088376859  1.0000
  C   C45       1.0  0.7423620062713567  0.5853825874401507  0.5871846254638771  1.0000
  C   C46       1.0  0.5091526620434549  0.6636709153325169  0.6635350478311253  1.0000
  C   C47       1.0  0.6033150406024816  0.6415411278461108  0.6087410173309138  1.0000
  C   C48       1.0  0.6465994745143462  0.6080023306840161  0.6420497453436768  1.0000
  C   C49       1.0  0.0759298073040569  0.2259971158916727  0.6296584633278927  1.0000
  C   C50       1.0  0.17362791820326606  0.02410538198519422  0.6213146422968664  1.0000
  C   C51       1.0  0.08550243801625611  0.24226364269249245  0.5870284226502565  1.0000
  C   C52       1.0  0.1636148050707789  0.009264562201508383  0.663682490099234  1.0000
  C   C53       1.0  0.1416060276237516  0.10328587594022312  0.6087704029531054  1.0000
  C   C54       1.0  0.10801882656573271  0.1466111799653333  0.6420162821935663  1.0000
  C   C55       1.0  0.8431213353669662  0.8006660047897539  0.39713604493226756  1.0000
  C   C56       1.0  0.9045752713784196  0.9497186874421005  0.3525724983518685  1.0000
  C   C57       1.0  0.9117150416391052  0.7583608979098105  0.4137412770519618  1.0000
  C   C58       1.0  0.835940165992831  0.9907102320451245  0.3364480200981177  1.0000
  C   C59       1.0  0.9074537027467215  0.880131676191148  0.37477904042239646  1.0000
  C   C60       1.0  0.8407792405479882  0.8701531997358959  0.374921964552435  1.0000
  C   C61       1.0  0.6519822260945319  0.15188358594019746  0.15205455805865856  1.0000
  C   C62       1.0  0.5979622477664323  0.09794638982523209  0.09789365803145961  1.0000
  C   C63       1.0  0.6680954801017195  0.16808664742849533  0.10874250140120274  1.0000
  C   C64       1.0  0.5817974909808754  0.08184645308016053  0.14120693351134866  1.0000
  C   C65       1.0  0.6413020406263855  0.14127358428581968  0.08186753290036825  1.0000
  C   C66       1.0  0.6085745359390061  0.10864634908500646  0.16807017840237393  1.0000
  C   C67       1.0  0.6741111874552103  0.5238070311437184  0.12027343005281216  1.0000
  C   C68       1.0  0.5765083193397446  0.7257141936425383  0.12866857033696288  1.0000
  C   C69       1.0  0.6646891014822813  0.5074461353164492  0.16289287818835876  1.0000
  C   C70       1.0  0.5865205917247068  0.7406700819253658  0.0862933117938098  1.0000
  C   C71       1.0  0.6084359500104454  0.6465046360223144  0.14119337874122104  1.0000
  C   C72       1.0  0.6419651262587039  0.6032281180077276  0.10792277624309322  1.0000
  C   C73       1.0  0.081765401880169  0.12399052786025067  0.17803490067996824  1.0000
  C   C74       1.0  0.170019619902078  0.12488469894828565  0.07273883199686543  1.0000
  C   C75       1.0  0.009656623884971799  0.162829219505312  0.16493062996391936  1.0000
  C   C76       1.0  0.24103260576874422  0.08624503651884648  0.08648281337660532  1.0000
  C   C77       1.0  0.1116366646016118  0.1387923842763854  0.1061237399166615  1.0000
  C   C78       1.0  0.13989355062921052  0.11030151375361184  0.14443736146885305  1.0000
  C   C79       1.0  0.3479138453529274  0.8482917112795076  0.8479420311554905  1.0000
  C   C80       1.0  0.40206276732375573  0.9021467624167271  0.9020831908292667  1.0000
  C   C81       1.0  0.3021900105973359  0.9211902628048848  0.8616058182784772  1.0000
  C   C82       1.0  0.447783091090173  0.8292043976709425  0.8884553824667099  1.0000
  C   C83       1.0  0.32904188355478686  0.9479337681776839  0.8884473273664498  1.0000
  C   C84       1.0  0.4208783641835793  0.8024546757547669  0.8616059664413814  1.0000
  C   C85       1.0  0.4068125040421648  0.4491844579069665  0.8528594151883839  1.0000
  C   C86       1.0  0.34517033101384703  0.30023916398563694  0.8974502993734607  1.0000
  C   C87       1.0  0.3381798531800797  0.49154649771575276  0.8362698501668009  1.0000
  C   C88       1.0  0.41376809467411846  0.25908521326234524  0.9136133645418597  1.0000
  C   C89       1.0  0.3424607769048151  0.369738830523417  0.8752094615802906  1.0000
  C   C90       1.0  0.4091758688369467  0.37963680576091713  0.87506522682223  1.0000
  C   C91       1.0  0.9453158890652915  0.7951900618446357  0.8489883664343129  1.0000
  C   C92       1.0  0.8038865561387353  0.9533260035114356  0.9011381865432568  1.0000
  C   C93       1.0  0.9913807342460359  0.8343577459255087  0.8360772400420446  1.0000
  C   C94       1.0  0.759099896747003  0.9133664940400337  0.9136285922964335  1.0000
  C   C95       1.0  0.8720089352050523  0.9102848964407357  0.8775174957930151  1.0000
  C   C96       1.0  0.8772087748911019  0.8385848111642318  0.8726527448405011  1.0000
  S   S1        1.0  0.2986272174965592  0.326228103699222  0.3970507862909189  1.0000
  S   S2        1.0  0.4509912934689453  0.4261663302126737  0.3531594596991639  1.0000
  S   S3        1.0  0.6606535923675948  0.6333268044289898  0.5624465025119251  1.0000
  S   S4        1.0  0.5904413491154299  0.6156822207567315  0.6885412574783347  1.0000
  S   S5        1.0  0.1334698904968477  0.16053606437010606  0.5624141130718671  1.0000
  S   S6        1.0  0.11560816149280839  0.09056427415709581  0.6885739672850093  1.0000
  S   S7        1.0  0.9728076368475626  0.803748893105066  0.4020575234937028  1.0000
  S   S8        1.0  0.7746862349694227  0.9456664283742666  0.3479310993318806  1.0000
  S   S9        1.0  0.6166406762461564  0.5891716623734737  0.18753658480697064  1.0000
  S   S10       1.0  0.634452276009597  0.6593668392522433  0.06137840170236332  1.0000
  S   S11       1.0  0.013474769811253399  0.18235035426931742  0.11168200617036923  1.0000
  S   S12       1.0  0.23771510234789156  0.0665391119750325  0.1396428848584677  1.0000
  S   S13       1.0  0.27709987965396016  0.44614506823221933  0.8479426305728525  1.0000
  S   S14       1.0  0.4751808948392409  0.30399127427190104  0.9020801649330751  1.0000
  S   S15       1.0  0.9511073387529622  0.9238870324618984  0.8529392652924561  1.0000
  S   S16       1.0  0.7988572420098167  0.8238281666925004  0.8969506741485774  1.0000
  Cl  Cl1       1.0  0.2854728340908608  0.5434774182432278  0.4112220826624198  1.0000
  Cl  Cl2       1.0  0.7901428564386278  0.5321282001999562  0.6645931447537381  1.0000
  Cl  Cl3       1.0  0.03221907200448021  0.2900634011403866  0.6644044477053799  1.0000
  Cl  Cl4       1.0  0.7690716900168368  0.7758231994420723  0.4016171320795935  1.0000
  Cl  Cl5       1.0  0.7177365557019115  0.45974909887457466  0.08552597914848557  1.0000
  Cl  Cl6       1.0  0.10201872393871268  0.09497503980024652  0.2274680168265918  1.0000
  Cl  Cl7       1.0  0.48087461271702375  0.4739866623054707  0.8484059318904971  1.0000
  Cl  Cl8       1.0  0.9644387636732573  0.7065956161327592  0.8387744868124332  1.0000
  O   O1        1.0  0.0005057328769950982  0.49938875256383847  0.49944728106655156  1.0000
  O   O2        1.0  0.07807218684116891  0.3144781333194828  0.5226026638763346  1.0000
  O   O3        1.0  0.0310176004216629  0.5312693568838184  0.5852498417373655  1.0000
  O   O4        1.0  0.1549845412693713  0.5050810425236492  0.4507644885550379  1.0000
  O   O5        1.0  0.0267551870429017  0.3754186026842561  0.5800855589140853  1.0000
  O   O6        1.0  0.15429581155175504  0.39100115991724493  0.4462276371608171  1.0000
  O   O7        1.0  0.08474341167076459  0.586008492873745  0.5308327861472719  1.0000
  O   O8        1.0  0.004122478019269199  0.6585487424288844  0.45014919869101544  1.0000
  O   O9        1.0  0.8873882763355356  0.49558275157095005  0.44221167265151723  1.0000
  O   O10       1.0  0.8923893021588613  0.6513762365287761  0.447303708190134  1.0000
  O   O11       1.0  0.9963567616535444  0.3872216740706661  0.44208303181852676  1.0000
  O   O12       1.0  0.8757273642829163  0.5266135508974372  0.580181122037118  1.0000
  O   O13       1.0  0.814376988411631  0.5771129390014167  0.5227872977753025  1.0000
  O   O14       1.0  0.7491159207235613  0.2502888891824568  0.2502553205498685  1.0000
  O   O15       1.0  0.5965636342996065  0.3580213780467574  0.3033675790972055  1.0000
  O   O16       1.0  0.664706291276957  0.16439869423238937  0.21921460536913176  1.0000
  O   O17       1.0  0.7245613932372734  0.37404747703389063  0.17002612191953403  1.0000
  O   O18       1.0  0.5925405869343834  0.24492187486036704  0.3000569189693253  1.0000
  O   O19       1.0  0.6722707457982298  0.4354239328145865  0.22731966113170907  1.0000
  O   O20       1.0  0.7197331805414322  0.21817580979448778  0.16490344294566492  1.0000
  O   O21       1.0  0.8770150337216479  0.22274345856909858  0.1688039380980229  1.0000
  O   O22       1.0  0.8619009219198545  0.25368148727740447  0.3083868291815862  1.0000
  O   O23       1.0  0.9323685371216612  0.17311019993478294  0.22815377472770149  1.0000
  O   O24       1.0  0.7534615025450578  0.36250603149714067  0.3080421842695885  1.0000
  O   O25       1.0  0.7450709717721651  0.09302881334283337  0.29996262267543733  1.0000
  O   O26       1.0  0.8581754373042685  0.09653004529937449  0.30394621270618677  1.0000
  O   O27       1.0  0.24968456808479544  0.7508786254368616  0.7497968583404244  1.0000
  O   O28       1.0  0.37583012940770294  0.7244452391564096  0.6686592360010766  1.0000
  O   O29       1.0  0.3624956339601725  0.7543477580656558  0.8079117678833259  1.0000
  O   O30       1.0  0.17279721013679963  0.9340299674057846  0.7273058840492157  1.0000
  O   O31       1.0  0.4340915547295907  0.6735479362023894  0.7271334839974346  1.0000
  O   O32       1.0  0.22428805333955637  0.8761671279522503  0.668750231498642  1.0000
  O   O33       1.0  0.2535204181249924  0.8626599496758589  0.8080464904947038  1.0000
  O   O34       1.0  0.0955770650305752  0.8590608215600497  0.8038487735415532  1.0000
  O   O35       1.0  0.16561720414154021  0.6642718808616622  0.7190352216916481  1.0000
  O   O36       1.0  0.09523034561856042  0.7448663323526504  0.7993592079505947  1.0000
  O   O37       1.0  0.21944774474568618  0.7191170828552271  0.6646591340295844  1.0000
  O   O38       1.0  0.357507460668721  0.5986741301128262  0.802898227149001  1.0000
  O   O39       1.0  0.24582569768258375  0.5916577601503333  0.7998302158059831  1.0000
  O   O40       1.0  0.5000602606647746  0.9999405642420739  0.9999928034380122  1.0000
  O   O41       1.0  0.504650877064222  0.1566379145063195  0.9499678676573995  1.0000
  O   O42       1.0  0.38763468029108594  0.9962337370503037  0.942037373746601  1.0000
  O   O43       1.0  0.6532406677943854  0.8920006614388926  0.9466109884519728  1.0000
  O   O44       1.0  0.39110641385361333  0.15355975920336815  0.9465691846276703  1.0000
  O   O45       1.0  0.657107259206299  0.005114435441186091  0.9499928448194485  1.0000
  O   O46       1.0  0.49630896702324634  0.887582297428878  0.9420434767539945  1.0000
  O   O47       1.0  0.5773221677880898  0.8159130827720346  0.022692819001498832  1.0000
  O   O48       1.0  0.5309380330443858  0.030806054672694885  0.08513150235592802  1.0000
  O   O49       1.0  0.5259224393124738  0.8739364312214307  0.08116355171112133  1.0000
  O   O50       1.0  0.5852914426147962  0.08519833512180951  0.030783184781114418  1.0000
  O   O51       1.0  0.31536252480210447  0.07784832312534455  0.022398520649623797  1.0000
  O   O52       1.0  0.3740705875689372  0.0259361868122667  0.0806826255443625  1.0000
  O   O53       1.0  0.782658605298643  0.5174573038323017  0.39984121020852836  1.0000
  O   O54       1.0  0.9675046429381737  0.23263489157820771  0.3499035408554933  1.0000
  O   O55       1.0  0.7325773921868759  0.4675885983210578  0.34994778763780954  1.0000
  O   O56       1.0  0.0175750044011451  0.2824009283828204  0.3999205688323643  1.0000
  O   O57       1.0  0.15905456731511688  0.6588348303369714  0.5411821940248986  1.0000
  O   O58       1.0  0.09123013192246528  0.5914692731588999  0.7087142315522288  1.0000
  O   O59       1.0  0.20894829834809062  0.7089615592442512  0.5911919631970407  1.0000
  O   O60       1.0  0.041444009626353306  0.5413795019872581  0.6587712170635173  1.0000
  O   O61       1.0  0.7086640543508196  0.20880750225450131  0.09128134519507113  1.0000
  O   O62       1.0  0.541140917719261  0.0412013922801506  0.15869482262168336  1.0000
  O   O63       1.0  0.65885858999858  0.15875792015759788  0.0412250942108301  1.0000
  O   O64       1.0  0.5910101750659251  0.0911364992108687  0.2086986158086503  1.0000
  O   O65       1.0  0.23248795887266033  0.9676952541321953  0.8500404423753383  1.0000
  O   O66       1.0  0.5174582788365569  0.7825599568859611  0.9000099345822581  1.0000
  O   O67       1.0  0.282475586741775  0.017591800325227818  0.900046957879056  1.0000
  O   O68       1.0  0.4673749816591197  0.7327724335553681  0.8501419523666273  1.0000
