data_image0
_chemical_formula_structural       Na2Zn2H30C30N2O16
_chemical_formula_sum              "Na2 Zn2 H30 C30 N2 O16"
_cell_length_a       8.779573977695831
_cell_length_b       9.954310106845027
_cell_length_c       10.756300853668352
_cell_angle_alpha    107.63133088475645
_cell_angle_beta     103.55315534727943
_cell_angle_gamma    100.29362930931738

_space_group_name_H-M_alt    "P 1"
_space_group_IT_number       1

loop_
  _space_group_symop_operation_xyz
  'x, y, z'

loop_
  _atom_site_type_symbol
  _atom_site_label
  _atom_site_symmetry_multiplicity
  _atom_site_fract_x
  _atom_site_fract_y
  _atom_site_fract_z
  _atom_site_occupancy
  Na  Na1       1.0  0.4234421154395704  0.6336739378744125  0.5576551215037853  1.0000
  Na  Na2       1.0  0.5765583030480741  0.3663248853538619  0.442346135253338  1.0000
  Zn  Zn1       1.0  0.07118877818560072  0.43593920907731126  0.3021584611836374  1.0000
  Zn  Zn2       1.0  0.9288124784534019  0.5640585376456001  0.6978398571053788  1.0000
  H   H1        1.0  0.23942124549264324  0.31372210839325726  0.4374748584947454  1.0000
  H   H2        1.0  0.7605798334582375  0.6862789178773809  0.5625252945787055  1.0000
  H   H3        1.0  0.1380543167596215  0.3978186522685832  0.5341548995170058  1.0000
  H   H4        1.0  0.861945259952158  0.6021812891344922  0.46584372869623547  1.0000
  H   H5        1.0  0.6686447363726344  0.5224376293615903  0.22953055545123388  1.0000
  H   H6        1.0  0.3313673655675444  0.4775688199003411  0.7704769571820762  1.0000
  H   H7        1.0  0.20185786311204623  0.4664967523570381  0.9522496883271572  1.0000
  H   H8        1.0  0.7981560712988481  0.5335118832936414  0.04775879732452629  1.0000
  H   H9        1.0  0.7822464783924444  0.9741011314545386  0.03503433558714146  1.0000
  H   H10       1.0  0.21775042769728256  0.025897700065158295  0.9649662580758331  1.0000
  H   H11       1.0  0.45270191673761684  0.2277686288224814  0.14118990250010913  1.0000
  H   H12       1.0  0.5472953189796287  0.7722313111633098  0.858809211485699  1.0000
  H   H13       1.0  0.810150855131603  0.7715938106273299  0.3180322182381373  1.0000
  H   H14       1.0  0.18984772786490825  0.22840286093673262  0.6819634263239536  1.0000
  H   H15       1.0  0.27707499078945835  0.9976401966768761  0.6204031187383521  1.0000
  H   H16       1.0  0.7229247630063611  0.0023564721233810993  0.3795927468551241  1.0000
  H   H17       1.0  0.9199320568553733  0.9297411057856453  0.7457398525003072  1.0000
  H   H18       1.0  0.0800671896247991  0.07025773409625198  0.2542593275547702  1.0000
  H   H19       1.0  0.010487906950231699  0.1583311706461785  0.8727192045554021  1.0000
  H   H20       1.0  0.989510499566329  0.8416687665758005  0.12728013046178435  1.0000
  H   H21       1.0  0.873634698569603  0.21951335109645237  0.9613538253355928  1.0000
  H   H22       1.0  0.1263622063119527  0.7804854943130621  0.038644912656721424  1.0000
  H   H23       1.0  0.8990926436749335  0.2780207094342373  0.8242602484150865  1.0000
  H   H24       1.0  0.10090426120661532  0.7219781359752773  0.1757384895772276  1.0000
  H   H25       1.0  0.517279180166149  0.9772562708881054  0.6515303343248746  1.0000
  H   H26       1.0  0.4827188949106258  0.022742578702505498  0.3484676968634873  1.0000
  H   H27       1.0  0.6047700790589161  0.16412601706308994  0.6770527219383169  1.0000
  H   H28       1.0  0.395227665786244  0.8358717310063352  0.32294586109188117  1.0000
  H   H29       1.0  0.562831402596949  0.11758316086579872  0.8168825273384499  1.0000
  H   H30       1.0  0.4371675124434376  0.8824145913847306  0.1831153488878031  1.0000
  C   C1        1.0  0.35027034802772045  0.48606395052553325  0.21207775158857337  1.0000
  C   C2        1.0  0.6497410934492296  0.5139402956940273  0.7879308647284092  1.0000
  C   C3        1.0  0.42743138158750343  0.4952894313574632  0.10267219399725754  1.0000
  C   C4        1.0  0.5725808747084287  0.5047213781386616  0.8973393850846492  1.0000
  C   C5        1.0  0.595699236479156  0.5144485364133898  0.12935532898377022  1.0000
  C   C6        1.0  0.4043128666691942  0.48555789895872437  0.8706540393202006  1.0000
  C   C7        1.0  0.3324264813854826  0.4810110556092228  0.9723219783621602  1.0000
  C   C8        1.0  0.6675857737022711  0.5189997677767194  0.027687745049078658  1.0000
  C   C9        1.0  0.768348839875415  0.2364911785742123  0.20474313813767958  1.0000
  C   C10       1.0  0.2316512489846971  0.7635065361879754  0.7952595982966102  1.0000
  C   C11       1.0  0.6310224881219854  0.11270744659908871  0.09923314919678465  1.0000
  C   C12       1.0  0.3689770904020549  0.8872924739692752  0.9007682625224548  1.0000
  C   C13       1.0  0.6582962760175732  0.9844939405336813  0.01952245975717654  1.0000
  C   C14       1.0  0.3417018002673728  0.0155048951671191  0.980477427101846  1.0000
  C   C15       1.0  0.47200363603289475  0.12735241178380358  0.07896826140058273  1.0000
  C   C16       1.0  0.5279947704836659  0.8726475254381825  0.9210310736166037  1.0000
  C   C17       1.0  0.10764786240985562  0.7365174413387408  0.42858549046955835  1.0000
  C   C18       1.0  0.8923533912087153  0.2634803401087069  0.571408188642792  1.0000
  C   C19       1.0  0.04936059701150703  0.8711415873411426  0.46653269153986093  1.0000
  C   C20       1.0  0.950640657211153  0.12885618716139646  0.533461915407827  1.0000
  C   C21       1.0  0.8926267687977402  0.8716254357372719  0.39792626238099865  1.0000
  C   C22       1.0  0.10737214322222141  0.1283723512377861  0.6020669746685954  1.0000
  C   C23       1.0  0.15587845554427562  0.9999887180917142  0.5686516279984277  1.0000
  C   C24       1.0  0.8441201268481537  7.960417256899524e-06  0.43134308872833327  1.0000
  C   C25       1.0  0.7913734218650817  0.9303141992630445  0.7103792001748135  1.0000
  C   C26       1.0  0.20862648568240164  0.0696868367163077  0.28961980403192206  1.0000
  C   C27       1.0  0.8938777637944852  0.18610272653660329  0.8607934802412842  1.0000
  C   C28       1.0  0.10611998105067502  0.8138950215328222  0.1392051027889138  1.0000
  C   C29       1.0  0.6015259266591854  0.08106946536263139  0.7249673436648223  1.0000
  C   C30       1.0  0.3984718175818927  0.9189282896517027  0.2750303115300455  1.0000
  N   N1        1.0  0.7633227904354385  0.059574885795107904  0.7627658390832083  1.0000
  N   N2        1.0  0.23667528524541856  0.9404239568505944  0.2372331199404841  1.0000
  O   O1        1.0  0.19378514745410064  0.46180657908566053  0.17561360019048072  1.0000
  O   O2        1.0  0.806222956292622  0.5381944306021323  0.82438787907126  1.0000
  O   O3        1.0  0.43767104894679687  0.4995374327070153  0.3285743199192056  1.0000
  O   O4        1.0  0.5623378983880444  0.5004624379712509  0.6714325713924154  1.0000
  O   O5        1.0  0.7421857068440403  0.3245082542333719  0.3029633427117063  1.0000
  O   O6        1.0  0.2578155522112979  0.6754894647099121  0.6970386869186385  1.0000
  O   O7        1.0  0.9096017884433467  0.24619273537246036  0.18465160501077807  1.0000
  O   O8        1.0  0.09039811789596544  0.7538083144967089  0.8153455435252965  1.0000
  O   O9        1.0  0.255768696765557  0.7472655783566821  0.44950788291818367  1.0000
  O   O10       1.0  0.7442340639247931  0.2527332323990733  0.5504947437370334  1.0000
  O   O11       1.0  0.9937161748670533  0.6122352572121128  0.3715606779731075  1.0000
  O   O12       1.0  0.00628741853788028  0.3877625395424288  0.628430659696015  1.0000
  O   O13       1.0  0.6846843460481437  0.8153224840618803  0.6273220333484559  1.0000
  O   O14       1.0  0.3153160712313365  0.1846763530562043  0.3726773677379995  1.0000
  O   O15       1.0  0.1986173022631874  0.40378342384058635  0.4672543459481915  1.0000
  O   O16       1.0  0.8013837760836042  0.5962176093749604  0.5327448792899219  1.0000
