data_image0
_chemical_formula_structural       Tl8H24C36O28
_chemical_formula_sum              "Tl8 H24 C36 O28"
_cell_length_a       4.141173278306385
_cell_length_b       16.476947305429917
_cell_length_c       17.567951943712224
_cell_angle_alpha    89.99967260932921
_cell_angle_beta     89.99980329739984
_cell_angle_gamma    100.74200188608475

_space_group_name_H-M_alt    "P 1"
_space_group_IT_number       1

loop_
  _space_group_symop_operation_xyz
  'x, y, z'

loop_
  _atom_site_type_symbol
  _atom_site_label
  _atom_site_symmetry_multiplicity
  _atom_site_fract_x
  _atom_site_fract_y
  _atom_site_fract_z
  _atom_site_occupancy
  Tl  Tl1       1.0  0.20362108886874347  0.31071273710596603  0.6092607310452678  1.0000
  Tl  Tl2       1.0  0.796196646289296  0.1892730458409986  0.10925585235407452  1.0000
  Tl  Tl3       1.0  0.7963618459160174  0.6892945211720374  0.39074375925432764  1.0000
  Tl  Tl4       1.0  0.2037273263174839  0.8107124462020181  0.8907480682575157  1.0000
  Tl  Tl5       1.0  0.18763759032862037  0.5564063283570563  0.8897078601791933  1.0000
  Tl  Tl6       1.0  0.8123919846452311  0.9436076888290401  0.3896966442416742  1.0000
  Tl  Tl7       1.0  0.8122924584760444  0.4435817093959073  0.1103142754767461  1.0000
  Tl  Tl8       1.0  0.18762031823427347  0.05639027228863108  0.6103180915658089  1.0000
  H   H1        1.0  0.32999068405433013  0.4739741066284821  0.5481235185803328  1.0000
  H   H2        1.0  0.6699900785007389  0.0260005927605178  0.0480953703219669  1.0000
  H   H3        1.0  0.66998596834555  0.5260202077802348  0.4518633255554861  1.0000
  H   H4        1.0  0.3300036957429739  0.9739891161982965  0.9518317056713814  1.0000
  H   H5        1.0  0.6584742215597361  0.42258684476349373  0.7664885974684666  1.0000
  H   H6        1.0  0.3415395736828017  0.07746287599888997  0.2665137065737184  1.0000
  H   H7        1.0  0.3414268050211149  0.5774062152921147  0.2335329692503478  1.0000
  H   H8        1.0  0.6585381130382756  0.9225551228250379  0.7335146908606945  1.0000
  H   H9        1.0  0.5498823297876357  0.4287447071484322  0.8522932070747233  1.0000
  H   H10       1.0  0.4500353168806583  0.07125458638977727  0.35231703340684833  1.0000
  H   H11       1.0  0.45009577283281027  0.5712575786487688  0.14773006728695756  1.0000
  H   H12       1.0  0.5499709570168747  0.928735937012341  0.6477068096759382  1.0000
  H   H13       1.0  0.7076274125573578  0.5911974381972629  0.712770494534368  1.0000
  H   H14       1.0  0.29256616651486667  0.908815304513645  0.21271227572314905  1.0000
  H   H15       1.0  0.29235524916327893  0.40877435131643125  0.287231717738166  1.0000
  H   H16       1.0  0.707478973346703  0.09122539313256077  0.7872506624760618  1.0000
  H   H17       1.0  0.96851372687307  0.8502027872885944  0.6594933438714607  1.0000
  H   H18       1.0  0.03165348433567751  0.6498109640228972  0.15949038739127272  1.0000
  H   H19       1.0  0.03141457350798047  0.14977666123753858  0.3405265146386256  1.0000
  H   H20       1.0  0.9684006111321608  0.35021826159474756  0.8405380105043464  1.0000
  H   H21       1.0  0.3193322933173803  0.6724424878508728  0.5183604754825168  1.0000
  H   H22       1.0  0.6807537749955372  0.8275414980427128  0.018337646661422  1.0000
  H   H23       1.0  0.6806558663133018  0.32756057666363597  0.4816474299692359  1.0000
  H   H24       1.0  0.3192229704022722  0.172443034545111  0.9816514740287801  1.0000
  C   C1        1.0  0.0639331191961502  0.5372441058985868  0.6018335438595984  1.0000
  C   C2        1.0  0.9362347089388835  0.9627623038460907  0.10179126494967512  1.0000
  C   C3        1.0  0.9361108513089249  0.4627592720395199  0.398168099974619  1.0000
  C   C4        1.0  0.06383236639177882  0.037248796506261804  0.8981585801756324  1.0000
  C   C5        1.0  0.02157249249775366  0.6230790471912755  0.6145249559498254  1.0000
  C   C6        1.0  0.9786110603135969  0.8769173778287255  0.11448869698715922  1.0000
  C   C7        1.0  0.9784477735182694  0.3769153776317539  0.3854778261256017  1.0000
  C   C8        1.0  0.021426833806565102  0.1230834546851298  0.8854879011829413  1.0000
  C   C9        1.0  0.8302230127169351  0.6407589637196621  0.6758805722747852  1.0000
  C   C10       1.0  0.16997805258648657  0.8592515181311665  0.1758497192041588  1.0000
  C   C11       1.0  0.16972475725215475  0.3592256998080146  0.3241199329034572  1.0000
  C   C12       1.0  0.8301565939405651  0.14077415238045887  0.8241302946923315  1.0000
  C   C13       1.0  0.8097044022121835  0.7227677976177773  0.6912396974743162  1.0000
  C   C14       1.0  0.19045897725541747  0.7772517659194661  0.1912420447179812  1.0000
  C   C15       1.0  0.1902762788237951  0.27721985686418543  0.3087630845411483  1.0000
  C   C16       1.0  0.8095857051514701  0.22277302415199068  0.8087726918318056  1.0000
  C   C17       1.0  0.9768491472710681  0.7863528188721316  0.6450820386154988  1.0000
  C   C18       1.0  0.02330477792946082  0.7136613192021812  0.14508558472080327  1.0000
  C   C19       1.0  0.023150751477423587  0.21363454212446698  0.3549304200238552  1.0000
  C   C20       1.0  0.9767569813964417  0.2863637539252153  0.8549257364590803  1.0000
  C   C21       1.0  0.14962527213411653  0.7685781128352005  0.5807153296163392  1.0000
  C   C22       1.0  0.8504933935439071  0.7314109225045514  0.08072129417099921  1.0000
  C   C23       1.0  0.8503207030994206  0.23140285209039035  0.4192885907586402  1.0000
  C   C24       1.0  0.1495417627688269  0.2685892518024175  0.919288318651056  1.0000
  C   C25       1.0  0.17344477144028048  0.6865792863232298  0.5663483388837349  1.0000
  C   C26       1.0  0.8266524864336305  0.8133983814328899  0.0663234062757354  1.0000
  C   C27       1.0  0.826504494344384  0.31340845906334636  0.4336567201353105  1.0000
  C   C28       1.0  0.17337155465972395  0.18658387754773287  0.9336628680571127  1.0000
  C   C29       1.0  0.6174213842716725  0.7440235165351791  0.7586064490980322  1.0000
  C   C30       1.0  0.3827738757376763  0.7560086111148008  0.25860357641848003  1.0000
  C   C31       1.0  0.3826145096584668  0.25596321809828027  0.24140088641016183  1.0000
  C   C32       1.0  0.6172255585198699  0.24402765822438244  0.7414157144350569  1.0000
  C   C33       1.0  0.30915068144307156  0.8359260625816488  0.5272427996034781  1.0000
  C   C34       1.0  0.690995413839275  0.6640502170910167  0.027236563778991807  1.0000
  C   C35       1.0  0.6908348328326214  0.16406656273836967  0.4727804744136037  1.0000
  C   C36       1.0  0.3090698479050644  0.33592722081065307  0.972770771307424  1.0000
  O   O1        1.0  0.9045015275502309  0.47549242675388814  0.6322340600675107  1.0000
  O   O2        1.0  0.09561541137844638  0.024526945778426092  0.13216778082580302  1.0000
  O   O3        1.0  0.09545257030522694  0.524500291256338  0.367748799579566  1.0000
  O   O4        1.0  0.9044396250728115  0.9754992426342922  0.8677547423604608  1.0000
  O   O5        1.0  0.3071486943853189  0.5320878850438221  0.5507188620831587  1.0000
  O   O6        1.0  0.6928775579638539  0.9678911513292545  0.05068344447698082  1.0000
  O   O7        1.0  0.6927938040362634  0.4679058634672941  0.4492696898276521  1.0000
  O   O8        1.0  0.30714369675021663  0.0320953435213767  0.9492590001948074  1.0000
  O   O9        1.0  0.400049390268464  0.6889751738894034  0.7882026134509206  1.0000
  O   O10       1.0  0.6000955675335574  0.8110621792102319  0.2881748102217757  1.0000
  O   O11       1.0  0.5998830047685929  0.3110226866243764  0.2118047228391475  1.0000
  O   O12       1.0  0.3999388246824864  0.18898628774368115  0.7118245582461642  1.0000
  O   O13       1.0  0.6901057850273418  0.8190267165871176  0.7826563627783117  1.0000
  O   O14       1.0  0.3099577448308395  0.680978571865893  0.28263951801851317  1.0000
  O   O15       1.0  0.30988928066845745  0.18095567328573026  0.21734243447920684  1.0000
  O   O16       1.0  0.6900246585390947  0.3190525242211493  0.7173672499326857  1.0000
  O   O17       1.0  0.43141011999738044  0.9062858536304857  0.5548015920155223  1.0000
  O   O18       1.0  0.5686910403727979  0.5936971333708385  0.054823072933835704  1.0000
  O   O19       1.0  0.5685336216005725  0.09370546941921278  0.4451926519944252  1.0000
  O   O20       1.0  0.4314051984865159  0.40629426918582107  0.9451967852846367  1.0000
  O   O21       1.0  0.3103111485502055  0.8177844228211555  0.4565253667865647  1.0000
  O   O22       1.0  0.6898316400207419  0.6821854635018523  0.9565259039836749  1.0000
  O   O23       1.0  0.6896087495449309  0.18221261910674258  0.543484246400773  1.0000
  O   O24       1.0  0.3101991685759628  0.3177907921399593  0.04348200042223741  1.0000
  O   O25       1.0  0.6290568288712066  0.4624152450076053  0.8065254145787507  1.0000
  O   O26       1.0  0.3709188153972249  0.0376078351507942  0.3065340294853343  1.0000
  O   O27       1.0  0.37086516336261605  0.537586111527517  0.1934904601420584  1.0000
  O   O28       1.0  0.6291044423590366  0.9623927532233761  0.6934818447999049  1.0000
