data_image0
_chemical_formula_structural       Gd4H44C36S18N12O34
_chemical_formula_sum              "Gd4 H44 C36 S18 N12 O34"
_cell_length_a       9.583366638033755
_cell_length_b       13.238500252803723
_cell_length_c       14.9369
_cell_angle_alpha    65.48740301400014
_cell_angle_beta     82.0516822374703
_cell_angle_gamma    79.99498772113023

_space_group_name_H-M_alt    "P 1"
_space_group_IT_number       1

loop_
  _space_group_symop_operation_xyz
  'x, y, z'

loop_
  _atom_site_type_symbol
  _atom_site_label
  _atom_site_symmetry_multiplicity
  _atom_site_fract_x
  _atom_site_fract_y
  _atom_site_fract_z
  _atom_site_occupancy
  Gd  Gd1       1.0  0.83539130161612  0.448150572173212  0.45905609565090066  1.0000
  Gd  Gd2       1.0  0.1646092024871777  0.5518496267473338  0.540945058496568  1.0000
  Gd  Gd3       1.0  0.7075660720866354  0.9613630645979824  0.550206148952739  1.0000
  Gd  Gd4       1.0  0.2924337460178279  0.0386413203609521  0.4497908488428805  1.0000
  H   H1        1.0  0.983792510003596  0.1039845423921903  0.2608874720158808  1.0000
  H   H2        1.0  0.01620419131372591  0.8960131449053179  0.7391115956646173  1.0000
  H   H3        1.0  0.09356112920097813  0.9855725990119665  0.24911343981325015  1.0000
  H   H4        1.0  0.906441619294732  0.014426762700899999  0.7508871535873565  1.0000
  H   H5        1.0  0.0752743310088064  0.22892857899381616  0.7755519826675294  1.0000
  H   H6        1.0  0.9247238355041321  0.7710665966806616  0.22444921755694464  1.0000
  H   H7        1.0  0.9698293166917009  0.35065773811334816  0.7827484516727025  1.0000
  H   H8        1.0  0.030168849821244185  0.6493374375611295  0.2172534180347227  1.0000
  H   H9        1.0  0.5432634886463958  0.39686071821864727  0.7605200235505406  1.0000
  H   H10       1.0  0.45673953424883956  0.6031369690788679  0.2394778138032834  1.0000
  H   H11       1.0  0.4641371694047648  0.5371331901899765  0.6973631048108614  1.0000
  H   H12       1.0  0.5358636090980652  0.4628653343152108  0.302629937426154  1.0000
  H   H13       1.0  0.4792817591766648  0.2571550358450736  0.26275678174368977  1.0000
  H   H14       1.0  0.5207197545211456  0.7428518607368986  0.7372384725690605  1.0000
  H   H15       1.0  0.5561366093337342  0.1571028579147011  0.21300590433364158  1.0000
  H   H16       1.0  0.4438583083866163  0.8429057130826223  0.7869886499718604  1.0000
  H   H17       1.0  0.4114016723800731  0.20369681400544687  0.6852404630256286  1.0000
  H   H18       1.0  0.5886048789016202  0.7963050593304501  0.31476020839307484  1.0000
  H   H19       1.0  0.5798192965186216  0.2404636263761901  0.688975589828999  1.0000
  H   H20       1.0  0.4201917875496903  0.7595298748829364  0.3110317749056221  1.0000
  H   H21       1.0  0.21442244227686297  0.1523851926512592  0.16541951849006856  1.0000
  H   H22       1.0  0.785571098251495  0.8476124946462489  0.8345811685782039  1.0000
  H   H23       1.0  0.3329160564192222  0.2530409973171999  0.14212655754731424  1.0000
  H   H24       1.0  0.6670854080824425  0.7469533411495988  0.8578746579392982  1.0000
  H   H25       1.0  0.8367355676116972  0.5438107586267407  0.2275099786864914  1.0000
  H   H26       1.0  0.1632653480909028  0.4561869286707676  0.7724913930300302  1.0000
  H   H27       1.0  0.6699891188294417  0.6431931704150102  0.30673161790695486  1.0000
  H   H28       1.0  0.3300161044563906  0.35681037733624515  0.693267216651783  1.0000
  H   H29       1.0  0.9416362897408984  0.4290153534933338  0.26564428071978335  1.0000
  H   H30       1.0  0.05836238156929598  0.5709831710118607  0.7343549738117685  1.0000
  H   H31       1.0  0.5653708318147751  0.8066504346029075  0.49604593620737336  1.0000
  H   H32       1.0  0.43462559510301446  0.1933489271099589  0.5039532095880758  1.0000
  H   H33       1.0  0.5623336866869549  0.5893104842828265  0.4018669958940036  1.0000
  H   H34       1.0  0.4376707574020884  0.4106913890530705  0.5981318540237339  1.0000
  H   H35       1.0  0.7465334392600339  0.2831762876734487  0.3946307581396198  1.0000
  H   H36       1.0  0.25346454605132607  0.7168264228701275  0.6053703653867115  1.0000
  H   H37       1.0  0.04384068287047431  0.23414019678705958  0.4852903005887369  1.0000
  H   H38       1.0  0.9561561556466102  0.7658566533027765  0.5147124101905547  1.0000
  H   H39       1.0  0.0536058914351258  0.3094420041436905  0.3729336007915406  1.0000
  H   H40       1.0  0.9463958474660784  0.6905506599077569  0.6270708839949106  1.0000
  H   H41       1.0  0.7031009864813385  0.7245061288970192  0.5445402600448189  1.0000
  H   H42       1.0  0.2968974104293238  0.2754940700235267  0.4554604115675998  1.0000
  H   H43       1.0  0.6568273197258634  0.2643374405114471  0.49245566734322205  1.0000
  H   H44       1.0  0.3431688327923865  0.7356635956167777  0.507546234499017  1.0000
  C   C1        1.0  0.9968009946666854  0.9571611192639649  0.3951049825634242  1.0000
  C   C2        1.0  0.0031984558402911  0.0428390796565807  0.6048949260920864  1.0000
  C   C3        1.0  0.994308053658223  0.012834393698049998  0.2838255023453796  1.0000
  C   C4        1.0  0.005693915640698283  0.9871632935994653  0.7161737674483103  1.0000
  C   C5        1.0  0.8778819994888281  0.0564914252556719  0.11644586490275795  1.0000
  C   C6        1.0  0.1221085614521584  0.943498727172738  0.8835578572173542  1.0000
  C   C7        1.0  0.8716812884256129  0.1487902228835267  0.9411758925589736  1.0000
  C   C8        1.0  0.12831207090117397  0.8512149992830871  0.05882806522594558  1.0000
  C   C9        1.0  0.972706325148465  0.28223442903611573  0.7589467860856728  1.0000
  C   C10       1.0  0.027292757761031773  0.7177615838460412  0.2410540249808405  1.0000
  C   C11       1.0  0.953438225150869  0.3288518269418361  0.6498950235536467  1.0000
  C   C12       1.0  0.04656255335196143  0.6711466975633511  0.3501060524788712  1.0000
  C   C13       1.0  0.6433740803028059  0.4849081752594984  0.6148337342002462  1.0000
  C   C14       1.0  0.35662931018992333  0.5150936980763987  0.38516520919144154  1.0000
  C   C15       1.0  0.5657105520809509  0.4818079952292393  0.7117398231904699  1.0000
  C   C16       1.0  0.4342900892221164  0.5181913664836272  0.2882589487091707  1.0000
  C   C17       1.0  0.6440977476676649  0.44307458202374755  0.8958187268138641  1.0000
  C   C18       1.0  0.35590142843978606  0.5569272913121495  0.10417858202476538  1.0000
  C   C19       1.0  0.6619494300515498  0.3452770043692297  0.06931742818687066  1.0000
  C   C20       1.0  0.3380566164328869  0.6547215201359577  0.9306811720270076  1.0000
  C   C21       1.0  0.5781859603382458  0.2046805330266608  0.2535422295174783  1.0000
  C   C22       1.0  0.421814911362546  0.7953238519322736  0.7464546748041911  1.0000
  C   C23       1.0  0.6263684006308665  0.1250913851528921  0.3536599160970012  1.0000
  C   C24       1.0  0.3736316918731364  0.8749113253906913  0.6463376730666253  1.0000
  C   C25       1.0  0.5874691785689025  0.0949092111666943  0.6597686975006309  1.0000
  C   C26       1.0  0.4125370051152969  0.9050884761308138  0.34023354581204046  1.0000
  C   C27       1.0  0.5184780903366786  0.16980581000736086  0.7106073311420714  1.0000
  C   C28       1.0  0.48153006334040077  0.8301927144978265  0.2893957685046044  1.0000
  C   C29       1.0  0.3898900968337671  0.1869635441526825  0.8759684863156494  1.0000
  C   C30       1.0  0.6101055508872335  0.8130341431448329  0.12403335277063111  1.0000
  C   C31       1.0  0.23598261268194418  0.2867712574411883  0.9613245970584926  1.0000
  C   C32       1.0  0.7640151422316919  0.7132264298563271  0.03867571611397106  1.0000
  C   C33       1.0  0.22043031929832319  0.23948576780871625  0.15276715253004616  1.0000
  C   C34       1.0  0.7795684892116413  0.7605119194887917  0.8472330671684601  1.0000
  C   C35       1.0  0.14916214507653788  0.2610991212143787  0.2412300088305982  1.0000
  C   C36       1.0  0.850829886254388  0.7389077753675862  0.7587647477818177  1.0000
  S   S1        1.0  0.844355491262007  0.9812358632418493  0.24250280612238828  1.0000
  S   S2        1.0  0.1556416216546168  0.0187593124326284  0.7575031739567419  1.0000
  S   S3        1.0  0.7492819252681712  0.08031919296866619  0.035335557877047605  1.0000
  S   S4        1.0  0.25071212005744303  0.9196818431595587  0.9646631834983095  1.0000
  S   S5        1.0  0.8278350403685479  0.2005371922300725  0.8199861437750114  1.0000
  S   S6        1.0  0.1721646845379681  0.799461332275115  0.18001368676554097  1.0000
  S   S7        1.0  0.6801105793869054  0.5264294900314965  0.7719050666356323  1.0000
  S   S8        1.0  0.31988488713251684  0.4735757321351172  0.22809334833772243  1.0000
  S   S9        1.0  0.7772876935630961  0.41888430338634913  0.9731584175222849  1.0000
  S   S10       1.0  0.22271436893377233  0.5811192443649063  0.02683735004351455  1.0000
  S   S11       1.0  0.717946104780431  0.2897475307351556  0.1878730343671079  1.0000
  S   S12       1.0  0.2820572857122913  0.7102543426007414  0.812124570058657  1.0000
  S   S13       1.0  0.5075757329896999  0.0916256826550352  0.8422676544028673  1.0000
  S   S14       1.0  0.4924318718883072  0.9083761906808616  0.1577349319907597  1.0000
  S   S15       1.0  0.34951083220998663  0.161312338117817  0.9989793488537017  1.0000
  S   S16       1.0  0.6504867855038937  0.8386861863873705  0.0010226770836325378  1.0000
  S   S17       1.0  0.1328210549909556  0.3344803741585309  0.04311217194535997  1.0000
  S   S18       1.0  0.8671795863121118  0.6655189875543357  0.9568879389201896  1.0000
  N   N1        1.0  0.9951034401176242  0.09982780627276358  0.0726644844541866  1.0000
  N   N2        1.0  0.004888679216925627  0.9001656949863557  0.9273405459138429  1.0000
  N   N3        1.0  0.9918308040607899  0.1525350528255558  0.972115433032762  1.0000
  N   N4        1.0  0.008167867249405053  0.8474634716796314  0.027890516328369617  1.0000
  N   N5        1.0  0.53045761912621  0.3949862102284385  0.9410384722236385  1.0000
  N   N6        1.0  0.469542747777318  0.6050148258997865  0.05896104727391101  1.0000
  N   N7        1.0  0.5405055545789709  0.33866808696203066  0.04114194545622498  1.0000
  N   N8        1.0  0.4594988895100797  0.6613337863738664  0.9588569044615055  1.0000
  N   N9        1.0  0.32223230171735656  0.2816910812533351  0.8161148358302056  1.0000
  N   N10       1.0  0.677769530381795  0.7183074432518523  0.1838854772454042  1.0000
  N   N11       1.0  0.2357611549075287  0.33900297003308566  0.8646530920119273  1.0000
  N   N12       1.0  0.764237516402666  0.6609955544721089  0.13534683200258263  1.0000
  O   O1        1.0  0.8903441446882568  0.9075306109264573  0.4454135419179292  1.0000
  O   O2        1.0  0.10965910860470268  0.09247209961711889  0.5545897921704679  1.0000
  O   O3        1.0  0.1040105912544931  0.9619139472498616  0.4323013303256645  1.0000
  O   O4        1.0  0.8959960972269626  0.0380870888783633  0.5676989672940848  1.0000
  O   O5        1.0  0.8650538733796651  0.2910242724435363  0.6198108700451639  1.0000
  O   O6        1.0  0.13494663072363275  0.7089759264770024  0.38018827565343116  1.0000
  O   O7        1.0  0.022054136278462998  0.40800562682323965  0.5895645509891168  1.0000
  O   O8        1.0  0.9779476958206885  0.5919928976819476  0.4104371010524089  1.0000
  O   O9        1.0  0.746430271730894  0.5414414608990511  0.5776445337548636  1.0000
  O   O10       1.0  0.2535736675609002  0.45855706360613613  0.4223555923728383  1.0000
  O   O11       1.0  0.6055193518618863  0.4272647522394095  0.5734566615763439  1.0000
  O   O12       1.0  0.3944831222342842  0.5727362838888155  0.4265433404562556  1.0000
  O   O13       1.0  0.7377126566623103  0.1341424373557345  0.3847235677371827  1.0000
  O   O14       1.0  0.2622865194451336  0.8658594359801696  0.6152724021355309  1.0000
  O   O15       1.0  0.5497772745924081  0.0473625127388075  0.4078223174025907  1.0000
  O   O16       1.0  0.4502217643152733  0.9526401978047686  0.5921753652349934  1.0000
  O   O17       1.0  0.5910792522912729  0.1387018703681022  0.5645094371224814  1.0000
  O   O18       1.0  0.4089240010016865  0.8613008401754811  0.4354925579999998  1.0000
  O   O19       1.0  0.6378953131642078  0.9949593714935432  0.7066058580590205  1.0000
  O   O20       1.0  0.3621092681246053  0.0050416646346818  0.29339194857680434  1.0000
  O   O21       1.0  0.05080244985152399  0.3413488259458006  0.22732338641284844  1.0000
  O   O22       1.0  0.9491959030573227  0.6586580706361644  0.7726661229751386  1.0000
  O   O23       1.0  0.1947074313918193  0.19644492110182907  0.3252796724723268  1.0000
  O   O24       1.0  0.8052791947577446  0.803562812687815  0.6747212811724734  1.0000
  O   O25       1.0  0.665249598141628  0.5970538180932151  0.37998738973026025  1.0000
  O   O26       1.0  0.33475589954374385  0.4029480552426817  0.6200106972305618  1.0000
  O   O27       1.0  0.8767031021250773  0.48216548290758954  0.28838581414355946  1.0000
  O   O28       1.0  0.12329662278143157  0.5178330415976049  0.711614685879951  1.0000
  O   O29       1.0  0.021641210622227902  0.3123713938077159  0.4373799908970994  1.0000
  O   O30       1.0  0.9783506343127966  0.6876237818667619  0.5626231091370071  1.0000
  O   O31       1.0  0.7015688392332677  0.3236109068798783  0.43547569143966297  1.0000
  O   O32       1.0  0.29842717608521946  0.6763909664560188  0.5645252452356145  1.0000
  O   O33       1.0  0.6432454156734619  0.7948650621249342  0.5379651842507583  1.0000
  O   O34       1.0  0.3567538976337516  0.2051359740032908  0.46203242027187497  1.0000
