data_image0
_chemical_formula_structural       Mo2H8C38N2O8F20
_chemical_formula_sum              "Mo2 H8 C38 N2 O8 F20"
_cell_length_a       8.908531800296295
_cell_length_b       9.842686236847303
_cell_length_c       11.156536791797777
_cell_angle_alpha    100.22725377404223
_cell_angle_beta     94.58914438601397
_cell_angle_gamma    99.78242128743705

_space_group_name_H-M_alt    "P 1"
_space_group_IT_number       1

loop_
  _space_group_symop_operation_xyz
  'x, y, z'

loop_
  _atom_site_type_symbol
  _atom_site_label
  _atom_site_symmetry_multiplicity
  _atom_site_fract_x
  _atom_site_fract_y
  _atom_site_fract_z
  _atom_site_occupancy
  Mo  Mo1       1.0  0.9446690073330327  0.5837544813368042  0.4797588081075475  1.0000
  Mo  Mo2       1.0  0.055336599540133584  0.4162429628758558  0.5202416460915701  1.0000
  H   H1        1.0  0.5737933816614457  0.6064762067118038  0.3909421186450004  1.0000
  H   H2        1.0  0.42620328278099606  0.3935328009949188  0.6090551754043078  1.0000
  H   H3        1.0  0.9235319082815181  0.9226437647434977  0.5787779373188684  1.0000
  H   H4        1.0  0.07646771375751629  0.07736314490613687  0.4212200993009177  1.0000
  H   H5        1.0  0.7555364169504128  0.09833967387418598  0.5945178178077342  1.0000
  H   H6        1.0  0.24445999976337868  0.9016681519720321  0.4054918155144165  1.0000
  H   H7        1.0  0.3878742130658707  0.7667215547422115  0.39982069290758204  1.0000
  H   H8        1.0  0.612121521431966  0.23328845280849456  0.600181187182777  1.0000
  C   C1        1.0  0.7644584088778501  0.30482592170788786  0.370095229830909  1.0000
  C   C2        1.0  0.2355408379899017  0.6951735324755217  0.629911419127481  1.0000
  C   C3        1.0  0.8949246169343535  0.5168404031620709  0.7233948163873835  1.0000
  C   C4        1.0  0.10507424376280734  0.4831570704940445  0.2765998298291379  1.0000
  C   C5        1.0  0.6471743765446262  0.19840131491742596  0.2871985228288452  1.0000
  C   C6        1.0  0.3528280356654108  0.801597082876583  0.7128099494104347  1.0000
  C   C7        1.0  0.5000318179249987  0.22398999764097033  0.2540160380940364  1.0000
  C   C8        1.0  0.4999694672568467  0.7760083957140934  0.7459923608136947  1.0000
  C   C9        1.0  0.3878151227554198  0.1216618403262899  0.17910707488273667  1.0000
  C   C10       1.0  0.6121927355086071  0.8783356034180794  0.8208944206450326  1.0000
  C   C11       1.0  0.4214531903126399  0.9908088674852847  0.1314253986585285  1.0000
  C   C12       1.0  0.578554395895786  0.009192822606557592  0.8685722943893739  1.0000
  C   C13       1.0  0.5672992948413053  0.9635208210509061  0.15933425247881416  1.0000
  C   C14       1.0  0.43270426572117054  0.03647765595154339  0.8406671357676176  1.0000
  C   C15       1.0  0.6773802376464602  0.0652694482748117  0.2369627561086318  1.0000
  C   C16       1.0  0.32262329892624564  0.9347289446119548  0.7630466841277511  1.0000
  C   C17       1.0  0.8597633007869803  0.5448514671192156  0.853446286877798  1.0000
  C   C18       1.0  0.1402356215545382  0.4551407091755521  0.14655197577373258  1.0000
  C   C19       1.0  0.9413043945754112  0.6633986022341672  0.9352958333973405  1.0000
  C   C20       1.0  0.05869926761437228  0.33659471759975895  0.064695751300853  1.0000
  C   C21       1.0  0.9085433952831536  0.6965691466566851  0.0558981929200257  1.0000
  C   C22       1.0  0.09145186325606147  0.30342722528397564  0.9440996259191863  1.0000
  C   C23       1.0  0.7900432079324843  0.6094171522592119  0.095655757453784  1.0000
  C   C24       1.0  0.20995882610355918  0.3905792930460591  0.9043380280469792  1.0000
  C   C25       1.0  0.7089116737400616  0.4888108380182031  0.016349588651330276  1.0000
  C   C26       1.0  0.291090131226035  0.5111844908498853  0.9836502734634324  1.0000
  C   C27       1.0  0.7445268964671782  0.4580453879629545  0.8963804955782424  1.0000
  C   C28       1.0  0.2554740881782109  0.5419458116191506  0.10361146503267797  1.0000
  C   C29       1.0  0.609165334010484  0.7167887241006168  0.4351864343986449  1.0000
  C   C30       1.0  0.39083166295477406  0.2832275895333112  0.5648165619608676  1.0000
  C   C31       1.0  0.8037015833121257  0.8926037910195745  0.5391090676023609  1.0000
  C   C32       1.0  0.1962902823032238  0.10740937985551816  0.460890393299728  1.0000
  C   C33       1.0  0.7077389679828625  0.9909330773057619  0.5480231784294035  1.0000
  C   C34       1.0  0.29225754769271356  0.009069582025745098  0.45197754601005613  1.0000
  C   C35       1.0  0.5536142864215775  0.9498746459887216  0.4970062205368606  1.0000
  C   C36       1.0  0.4463800329992863  0.0501395473933925  0.5029971517353787  1.0000
  C   C37       1.0  0.5055738710626939  0.8079458751223212  0.44029327834834225  1.0000
  C   C38       1.0  0.4944277839593738  0.1920599550065774  0.559708297551886  1.0000
  N   N1        1.0  0.7566732458106386  0.7575622561578753  0.4831560056884783  1.0000
  N   N2        1.0  0.24332504145449008  0.2424436073851268  0.5168408768893542  1.0000
  O   O1        1.0  0.7571028774304266  0.4359348548459963  0.3827468832013849  1.0000
  O   O2        1.0  0.24290130103810975  0.5640667284671324  0.6172595365073691  1.0000
  O   O3        1.0  0.8746355737470991  0.26321102206487257  0.4272799597590051  1.0000
  O   O4        1.0  0.12536776840754976  0.7367863758851456  0.5727239264392168  1.0000
  O   O5        1.0  0.856690831915742  0.5969935127710642  0.6531942426616979  1.0000
  O   O6        1.0  0.1433094385273321  0.4029997563612752  0.3468007007040441  1.0000
  O   O7        1.0  0.9677126660967159  0.4169932782154007  0.6897880112553595  1.0000
  O   O8        1.0  0.03228667706727609  0.5830010001071101  0.3102106234858866  1.0000
  F   F1        1.0  0.460273926087801  0.347880642964057  0.2973591870410317  1.0000
  F   F2        1.0  0.5397244684728761  0.6521145697791225  0.7026502964001224  1.0000
  F   F3        1.0  0.24647627299792416  0.1470053369731801  0.15233203589107802  1.0000
  F   F4        1.0  0.7535281961849236  0.8529920654157903  0.8476719236386927  1.0000
  F   F5        1.0  0.3144046689898658  0.8930521392803853  0.05683412105397415  1.0000
  F   F6        1.0  0.6856063142963293  0.10694962020542678  0.9431584239952714  1.0000
  F   F7        1.0  0.6026260954222877  0.8400200004130339  0.1082257707871932  1.0000
  F   F8        1.0  0.3973828175634537  0.15998270774687026  0.8917757602993108  1.0000
  F   F9        1.0  0.8159046663510666  0.0314311007236725  0.25836620153371836  1.0000
  F   F10       1.0  0.18409485790333946  0.9685641258046402  0.7416424605734377  1.0000
  F   F11       1.0  0.05492175324031473  0.7491044367647531  0.8969481418088421  1.0000
  F   F12       1.0  0.945077467812105  0.2508835866444201  0.1030449766670642  1.0000
  F   F13       1.0  0.98785642085452  0.8118213821891516  0.1329383555356145  1.0000
  F   F14       1.0  0.012134278589655892  0.18818030674181327  0.8670519748801836  1.0000
  F   F15       1.0  0.7512181237043406  0.6426266292016505  0.2092090504517756  1.0000
  F   F16       1.0  0.24877919180767796  0.3573687473339646  0.7907842556779272  1.0000
  F   F17       1.0  0.5943949754575399  0.4057784522035774  0.05584948976576239  1.0000
  F   F18       1.0  0.4056081669479923  0.5942179321173241  0.9441506317253996  1.0000
  F   F19       1.0  0.6611934057385368  0.3436349873908283  0.818948791114835  1.0000
  F   F20       1.0  0.33880615050222923  0.6563603512917452  0.18104913500572203  1.0000
