data_image0
_chemical_formula_structural       Zn4H39C45N9O13
_chemical_formula_sum              "Zn4 H39 C45 N9 O13"
_cell_length_a       15.009787470825508
_cell_length_b       15.150447887546683
_cell_length_c       15.500512086794638
_cell_angle_alpha    97.00533221609201
_cell_angle_beta     97.56001815459267
_cell_angle_gamma    90.99672204234342

_space_group_name_H-M_alt    "P 1"
_space_group_IT_number       1

loop_
  _space_group_symop_operation_xyz
  'x, y, z'

loop_
  _atom_site_type_symbol
  _atom_site_label
  _atom_site_symmetry_multiplicity
  _atom_site_fract_x
  _atom_site_fract_y
  _atom_site_fract_z
  _atom_site_occupancy
  Zn  Zn1       1.0  0.44841615609392704  0.4425102313514344  0.5899368658525008  1.0000
  Zn  Zn2       1.0  0.4008535899130622  0.562422475964375  0.4319826338345934  1.0000
  Zn  Zn3       1.0  0.5563086410627849  0.41892337602887847  0.422049141960578  1.0000
  Zn  Zn4       1.0  0.5786216629176338  0.5938222568589638  0.564558499935025  1.0000
  H   H1        1.0  0.4215376964158608  0.8165776443710441  0.3406330575429451  1.0000
  H   H2        1.0  0.2574042290951439  0.41500931630235266  0.003570844862338191  1.0000
  H   H3        1.0  0.6535623031977594  0.53952554495455  0.07580626308689634  1.0000
  H   H4        1.0  0.2548645739110285  0.3302852112317467  0.12297157532900375  1.0000
  H   H5        1.0  0.16578950090062963  0.46134006240608005  0.15444358979477363  1.0000
  H   H6        1.0  0.23790645313712847  0.48193797382888454  0.2566235240142093  1.0000
  H   H7        1.0  0.16796782256837162  0.38377285540673967  0.23315458560353627  1.0000
  H   H8        1.0  0.5733682444121587  0.1820387787827684  0.7399448489410364  1.0000
  H   H9        1.0  0.5484964103513478  0.2681472582141565  0.679166888696422  1.0000
  H   H10       1.0  0.1398776649542341  0.2359353467622682  0.5060296693831605  1.0000
  H   H11       1.0  0.31759742452629075  0.2769794573817919  0.4982217572451832  1.0000
  H   H12       1.0  0.560759707799356  0.03465453574377619  0.679027411922938  1.0000
  H   H13       1.0  0.2585056781724547  0.3271503925368933  0.41051764659839324  1.0000
  H   H14       1.0  0.2436181652727641  0.21132350578016457  0.41416376366733254  1.0000
  H   H15       1.0  0.9031369244914418  0.3073752664080445  0.562307755718692  1.0000
  H   H16       1.0  0.7852829889679216  0.2852625134364004  0.6304815988861849  1.0000
  H   H17       1.0  0.7143355230788729  0.3174468923196656  0.5387126547589818  1.0000
  H   H18       1.0  0.7584249371022765  0.399048467913694  0.6271635688886479  1.0000
  H   H19       1.0  0.5854944460526214  0.6093102167870511  0.16009921975042835  1.0000
  H   H20       1.0  0.5746707832888092  0.5458430690655759  0.24236685257131543  1.0000
  H   H21       1.0  0.7792447781574341  0.6542007397695784  0.8595634497881196  1.0000
  H   H22       1.0  0.6994912555304396  0.6475092044014514  0.7659043275054247  1.0000
  H   H23       1.0  0.43251995674600613  0.9771165251112707  0.32117898678806994  1.0000
  H   H24       1.0  0.7886521016010876  0.6115895961069667  0.0599264807588256  1.0000
  H   H25       1.0  0.823002218452629  0.4649835250452981  0.9851809522147621  1.0000
  H   H26       1.0  0.9099371560601882  0.549099643240787  0.9912365267933514  1.0000
  H   H27       1.0  0.8347488122733111  0.5208822019790772  0.8924778697330356  1.0000
  H   H28       1.0  0.41538941576020966  0.6307679843070131  0.7669177257042894  1.0000
  H   H29       1.0  0.2711310207994586  0.6238304855198891  0.6992828393739647  1.0000
  H   H30       1.0  0.238805628864533  0.613126120200583  0.8045220360766125  1.0000
  H   H31       1.0  0.25517866937631345  0.5163969541209781  0.7305740769841551  1.0000
  H   H32       1.0  0.5584485390626314  0.8042248092500727  0.6287937351132984  1.0000
  H   H33       1.0  0.5889748050897411  0.9137343089781493  0.6724440975204831  1.0000
  H   H34       1.0  0.4745467669217761  0.1338830431891864  0.3872045830915668  1.0000
  H   H35       1.0  0.14192307331023102  0.591525173079127  0.4982001791063057  1.0000
  H   H36       1.0  0.9947143310676837  0.6588313813545238  0.4924255652433305  1.0000
  H   H37       1.0  0.008433575957141698  0.29420285246012406  0.5134055947527971  1.0000
  H   H38       1.0  0.8297700780968784  0.6417005305813177  0.495542239057926  1.0000
  H   H39       1.0  0.28187833730472533  0.4921701684123362  0.8823608513361453  1.0000
  C   C1        1.0  0.4782828269903163  0.738607898858085  0.48106033657730785  1.0000
  C   C2        1.0  0.4877971973406191  0.5106910450466698  0.12960368940474612  1.0000
  C   C3        1.0  0.34234231306760415  0.4313117110621007  0.1270195524616042  1.0000
  C   C4        1.0  0.5150240942920449  0.269481529107658  0.5115966238013672  1.0000
  C   C5        1.0  0.5684455892448099  0.5760554925852901  0.8374108291328146  1.0000
  C   C6        1.0  0.4811388263243614  0.8350253959840399  0.47627578486193317  1.0000
  C   C7        1.0  0.5190957095141968  0.17361080557470387  0.5229788420752614  1.0000
  C   C8        1.0  0.5428901837546364  0.05457954841444489  0.6138086204017841  1.0000
  C   C9        1.0  0.5435111574668954  0.1456712705970915  0.6080533577742815  1.0000
  C   C10       1.0  0.4933236268646652  0.11050687564819837  0.4507538679161059  1.0000
  C   C11       1.0  0.48819389993235524  0.01853127214450719  0.45726048135754394  1.0000
  C   C12       1.0  0.6878210718931399  0.585359495973179  0.9607100379153908  1.0000
  C   C13       1.0  0.5164085300251672  0.9903107545477852  0.5410129518184451  1.0000
  C   C14       1.0  0.5170012709088497  0.8962949840582225  0.5493678514033394  1.0000
  C   C15       1.0  0.44885636025235703  0.8661920873338859  0.39497767100281345  1.0000
  C   C16       1.0  0.26584510510664927  0.47749760817832504  0.5201260178347413  1.0000
  C   C17       1.0  0.4544660761914089  0.9545120913897804  0.38449914023664905  1.0000
  C   C18       1.0  0.16784175725587147  0.4551440322178094  0.5081341098317511  1.0000
  C   C19       1.0  0.8319727761586576  0.5022046972377651  0.5104527420639472  1.0000
  C   C20       1.0  0.9638266732329868  0.5949758384821705  0.49972647100496925  1.0000
  C   C21       1.0  0.8735393530873381  0.5856399366822913  0.5018314419275998  1.0000
  C   C22       1.0  0.8848004463725162  0.42764377594855313  0.5229671822341333  1.0000
  C   C23       1.0  0.6268942323968646  0.55682279289082  0.011528628164356333  1.0000
  C   C24       1.0  0.9802214729692764  0.4348896838815648  0.5150691013700597  1.0000
  C   C25       1.0  0.0185007989144523  0.5196168127147374  0.5050460755105421  1.0000
  C   C26       1.0  0.11146471277255193  0.526547021049673  0.5022941549146014  1.0000
  C   C27       1.0  0.12912143177789662  0.36814628665517535  0.5095232874102396  1.0000
  C   C28       1.0  0.7324674771652299  0.5021092623306841  0.500810386571793  1.0000
  C   C29       1.0  0.03668981465900599  0.3615064431746972  0.5151071887384618  1.0000
  C   C30       1.0  0.444169483384684  0.4677531510896742  0.26959375686330844  1.0000
  C   C31       1.0  0.5488585282150922  0.5562198752206553  0.7406883453721211  1.0000
  C   C32       1.0  0.3221540470800904  0.440759940363641  0.03917662878896522  1.0000
  C   C33       1.0  0.4250751938654319  0.46876541923235476  0.1737728693265695  1.0000
  C   C34       1.0  0.5329156653036905  0.5453471513589534  0.9828990122086201  1.0000
  C   C35       1.0  0.6589531921444162  0.599014863057363  0.872056409797594  1.0000
  C   C36       1.0  0.20948693553958717  0.4299726517199929  0.20455444574417217  1.0000
  C   C37       1.0  0.25347194697981484  0.27635095213184246  0.4547805863216326  1.0000
  C   C38       1.0  0.7735406632893815  0.3372234986128787  0.5871989853910409  1.0000
  C   C39       1.0  0.8400295357460125  0.5296994079212709  0.9643267400487976  1.0000
  C   C40       1.0  0.28032957179435414  0.5848952129521263  0.7547570548776792  1.0000
  C   C41       1.0  0.5039381481950685  0.5564671255426531  0.8934109250057178  1.0000
  C   C42       1.0  0.46937498458832755  0.5145610205647628  0.037085152822705025  1.0000
  C   C43       1.0  0.3820870792953458  0.4847949206921027  0.9940583137594178  1.0000
  C   C44       1.0  0.35257499898533945  0.5055060096853481  0.9082968575226222  1.0000
  C   C45       1.0  0.40815926536572533  0.5496901871379407  0.8619580572589104  1.0000
  N   N1        1.0  0.2828461384370584  0.3806418027631223  0.16877739664334265  1.0000
  N   N2        1.0  0.5715725018513281  0.20561268034811056  0.6813549323716404  1.0000
  N   N3        1.0  0.17732678021607742  0.2915468663549206  0.5033679628076231  1.0000
  N   N4        1.0  0.853831463585081  0.34949872694635076  0.5464566099922268  1.0000
  N   N5        1.0  0.5666374348323232  0.5498132018511156  0.17691616775839245  1.0000
  N   N6        1.0  0.7224193536100715  0.6254245285855189  0.823694428760078  1.0000
  N   N7        1.0  0.780600914144955  0.6005680938957523  0.9931667459009009  1.0000
  N   N8        1.0  0.37467054711500236  0.5871978858216947  0.788860079067597  1.0000
  N   N9        1.0  0.5488350120213284  0.8705946643964919  0.6287471618010374  1.0000
  O   O1        1.0  0.49526031961856637  0.5023042794301346  0.5003655694172269  1.0000
  O   O2        1.0  0.3822485101793803  0.49017207454263456  0.3164456557934373  1.0000
  O   O3        1.0  0.5829449199137572  0.6092863153230254  0.6935913550943342  1.0000
  O   O4        1.0  0.5237755637547679  0.4468414696420878  0.3016843144239943  1.0000
  O   O5        1.0  0.5032710768130572  0.4849058812480536  0.7095448711310868  1.0000
  O   O6        1.0  0.3172819683274781  0.4320937431925671  0.5694147185013352  1.0000
  O   O7        1.0  0.6980701776750635  0.5741361212032672  0.5330352786718324  1.0000
  O   O8        1.0  0.4284987060908136  0.6873739639508686  0.420824842631234  1.0000
  O   O9        1.0  0.5273402679138641  0.29358186502621203  0.4378433762752892  1.0000
  O   O10       1.0  0.5263661625163466  0.70950973795415  0.5464813508389313  1.0000
  O   O11       1.0  0.49805320430534294  0.32221437087847693  0.5784054897672208  1.0000
  O   O12       1.0  0.29105070869902516  0.5443251798823354  0.4851151001809912  1.0000
  O   O13       1.0  0.6878090156316219  0.43469479422431323  0.4571605355708572  1.0000
