data_image0
_chemical_formula_structural       K2Cr2H52C32N4O16
_chemical_formula_sum              "K2 Cr2 H52 C32 N4 O16"
_cell_length_a       7.854370653
_cell_length_b       7.824071907217703
_cell_length_c       19.707
_cell_angle_alpha    90.0
_cell_angle_beta     90.0
_cell_angle_gamma    108.03146895365053

_space_group_name_H-M_alt    "P 1"
_space_group_IT_number       1

loop_
  _space_group_symop_operation_xyz
  'x, y, z'

loop_
  _atom_site_type_symbol
  _atom_site_label
  _atom_site_symmetry_multiplicity
  _atom_site_fract_x
  _atom_site_fract_y
  _atom_site_fract_z
  _atom_site_occupancy
  K   K1        1.0  0.5000058455117156  0.5000009731437203  0.0  1.0000
  K   K2        1.0  0.5000026280387999  0.999999258045122  0.50000050743391  1.0000
  Cr  Cr1       1.0  0.9999994035283777  0.999999258045122  0.9999979702643742  1.0000
  Cr  Cr2       1.0  1.5778675790811752e-07  0.5000009731437203  0.5  1.0000
  H   H1        1.0  0.37441237157719337  0.0102126325474146  0.9150900695184419  1.0000
  H   H2        1.0  0.6255848615304982  0.4897708670212637  0.4150880397828161  1.0000
  H   H3        1.0  0.6255865876814111  0.9897893137400187  0.0849094230476481  1.0000
  H   H4        1.0  0.3744183615273258  0.5102283910238583  0.5849124676510868  1.0000
  H   H5        1.0  0.2921868355049142  0.7790687517864043  0.8947272542751321  1.0000
  H   H6        1.0  0.7077975967745329  0.7209113175850844  0.39472623940731927  1.0000
  H   H7        1.0  0.7078112650305568  0.2209345386221884  0.1052727457248679  1.0000
  H   H8        1.0  0.2922035242001043  0.279085252217719  0.6052727457248679  1.0000
  H   H9        1.0  0.9993418652758023  0.086756300049089  0.8438189475820792  1.0000
  H   H10       1.0  0.0006599268187841166  0.4132419848523128  0.3438179327142663  1.0000
  H   H11       1.0  0.0006562650760954951  0.9132429579960331  0.1561810524179208  1.0000
  H   H12       1.0  0.9993382035331136  0.5867572731928092  0.6561815598518308  1.0000
  H   H13       1.0  0.21257367241278044  0.0699225266845431  0.8195301162023655  1.0000
  H   H14       1.0  0.7874260474150391  0.4300690376110765  0.3195296087684554  1.0000
  H   H15       1.0  0.7874240434857639  0.9300753872394267  0.1804708986654475  1.0000
  H   H16       1.0  0.21257335611333866  0.5699302204340384  0.6804703912315446  1.0000
  H   H17       1.0  0.9436994466149996  0.593026254266924  0.7787791140204021  1.0000
  H   H18       1.0  0.0563005589699087  0.9069712886795995  0.278780128888215  1.0000
  H   H19       1.0  0.05629909819025159  0.4069743478993502  0.22122139341350794  1.0000
  H   H20       1.0  0.9436971569286354  0.093026625244363  0.721220378545695  1.0000
  H   H21       1.0  0.03185607331575823  0.8276412580204138  0.76454914497387  1.0000
  H   H22       1.0  0.9681434879993772  0.6723589731684285  0.2645496524077728  1.0000
  H   H23       1.0  0.9681428859428465  0.1723606882670268  0.23545136246004011  1.0000
  H   H24       1.0  0.0318546423525206  0.3276402848766935  0.7354503475922272  1.0000
  H   H25       1.0  0.1684536884822307  0.7070843432477218  0.8008027604404546  1.0000
  H   H26       1.0  0.8315471460093915  0.7929158879411133  0.3008037753082675  1.0000
  H   H27       1.0  0.8315478171293406  0.2929176030397116  0.19919673212564254  1.0000
  H   H28       1.0  0.16845225751899306  0.2070833701040087  0.6991967321256425  1.0000
  H   H29       1.0  0.7750379427390612  0.875809183786302  0.8295965900441474  1.0000
  H   H30       1.0  0.2249629215689808  0.6241870150390696  0.329600142081496  1.0000
  H   H31       1.0  0.22496063188261667  0.1241873860165086  0.1704044248236656  1.0000
  H   H32       1.0  0.7750381695892371  0.37581358712720453  0.670399857918504  1.0000
  H   H33       1.0  0.6850762734559552  0.6411619211250539  0.8424098036230774  1.0000
  H   H34       1.0  0.3149199125995138  0.8588356218214699  0.3424148779621419  1.0000
  H   H35       1.0  0.3149239887955558  0.3588359927989089  0.1575901963769226  1.0000
  H   H36       1.0  0.6850782177523838  0.1411636362236521  0.657585629471761  1.0000
  H   H37       1.0  0.7234780833591612  0.7913284808552346  0.9127974831278252  1.0000
  H   H38       1.0  0.2765146976202075  0.7086704062124483  0.4128010351651668  1.0000
  H   H39       1.0  0.27652004699273647  0.2086707771898872  0.0872030243060848  1.0000
  H   H40       1.0  0.7234821595552104  0.2913288518326738  0.5871989648348332  1.0000
  H   H41       1.0  0.920373532961463  0.5973946480256913  0.9666078043334849  1.0000
  H   H42       1.0  0.0796230675473524  0.9026042390419917  0.4666088192012978  1.0000
  H   H43       1.0  0.07962672929004097  0.4026032658982714  0.033393210534328  1.0000
  H   H44       1.0  0.9203729607213588  0.0973923307608189  0.5333911807987022  1.0000
  H   H45       1.0  0.8460391328688813  0.4621142301042269  0.8938580199928978  1.0000
  H   H46       1.0  0.15395546443658495  0.0378813665548634  0.3938580199928978  1.0000
  H   H47       1.0  0.15396068511284966  0.5378863720620473  0.1061419800071022  1.0000
  H   H48       1.0  0.8460426659153127  0.9621178914902586  0.6061419800071022  1.0000
  H   H49       1.0  0.0771504611661626  0.542293745334355  0.9119089663571316  1.0000
  H   H50       1.0  0.9228414909064994  0.9577024534910166  0.4119094737910416  1.0000
  H   H51       1.0  0.9228476691857351  0.45770551271076687  0.0880915410767713  1.0000
  H   H52       1.0  0.0771541229088584  0.0422927721906348  0.5880910336428684  1.0000
  C   C1        1.0  0.28154126153511777  0.8488770281726374  0.0003541888669005  1.0000
  C   C2        1.0  0.7184583892292834  0.6511111059257928  0.5003521591312747  1.0000
  C   C3        1.0  0.7184593853533271  0.1511262622359482  0.9996463185670095  1.0000
  C   C4        1.0  0.2815439751054214  0.3488894962404885  0.4996468260009124  1.0000
  C   C5        1.0  0.26503762963901767  0.885247602547544  0.9250007611508623  1.0000
  C   C6        1.0  0.7349556850593897  0.6147364991874156  0.4249997462830493  1.0000
  C   C7        1.0  0.7349626027960666  0.1147543437398895  0.0749997462830478  1.0000
  C   C8        1.0  0.265050084351408  0.3852627588577064  0.5749997462830478  1.0000
  C   C9        1.0  0.1263046506746335  0.0746094771574093  0.8628994773430777  1.0000
  C   C10       1.0  0.8736996877729196  0.4253888077439996  0.36289896990916765  1.0000
  C   C11       1.0  0.8736943085839712  0.9253924691300242  0.1371010300908324  1.0000
  C   C12       1.0  0.1263014033852983  0.5746117944222817  0.6371005226569224  1.0000
  C   C13       1.0  0.21467348373130327  0.2420600908395798  0.9048794844471503  1.0000
  C   C14       1.0  0.7853413353157778  0.257955667636864  0.4048830364844989  1.0000
  C   C15       1.0  0.7853284363336214  0.7579431995690129  0.0951200081189398  1.0000
  C   C16       1.0  0.21465720948947356  0.7420449345294173  0.5951164560815982  1.0000
  C   C17       1.0  0.9633600540482232  0.7440597721430748  0.8707601359922847  1.0000
  C   C18       1.0  0.036634858830758794  0.7559377708034489  0.3707611508600976  1.0000
  C   C19       1.0  0.03664062265664109  0.2559394859020472  0.1292403714416182  1.0000
  C   C20       1.0  0.9633645446976189  0.24406148724167306  0.6292383417059924  1.0000
  C   C21       1.0  0.0328441082484616  0.7191585835969505  0.799729537727714  1.0000
  C   C22       1.0  0.9671558973364468  0.780838959349573  0.2997305525955269  1.0000
  C   C23       1.0  0.9671561241866228  0.2808433626904829  0.200270969706196  1.0000
  C   C24       1.0  0.03284054538561071  0.2191589545743966  0.7002694474044732  1.0000
  C   C25       1.0  0.7764727789677364  0.7655011928322537  0.863811843507385  1.0000
  C   C26       1.0  0.22352468026420516  0.7344963501142701  0.3638153955447336  1.0000
  C   C27       1.0  0.22352958536696116  0.2344994093340205  0.1361886639265251  1.0000
  C   C28       1.0  0.7764738645410459  0.2655042520520112  0.6361846044552664  1.0000
  C   C29       1.0  0.9526848569822304  0.5778497822883963  0.9137199979702615  1.0000
  C   C30       1.0  0.04730964144339821  0.9221464165369753  0.4137215202719844  1.0000
  C   C31       1.0  0.04731454654615419  0.4221494757567257  0.0862800020297385  1.0000
  C   C32       1.0  0.9526893476316259  0.0778514973869875  0.5862789871619256  1.0000
  N   N1        1.0  0.08951266193585639  0.911158226082236  0.9060349114527851  1.0000
  N   N2        1.0  0.9104865147423522  0.5888366286219835  0.40603491145278536  1.0000
  N   N3        1.0  0.9104871560458817  0.08884237608404527  0.0939645811133119  1.0000
  N   N4        1.0  0.08951543513899907  0.4111626294231385  0.5939640736794018  1.0000
  O   O1        1.0  0.1745974856503594  0.8977667469995936  0.040808342213424  1.0000
  O   O2        1.0  0.8254020458483564  0.6022375165527194  0.5408073273456111  1.0000
  O   O3        1.0  0.8254048488679188  0.1022378875301584  0.9591926726543889  1.0000
  O   O4        1.0  0.17460449283630197  0.3977724944616554  0.45919267265438896  1.0000
  O   O5        1.0  0.18751934384390975  0.22154745786956906  0.9702633581975917  1.0000
  O   O6        1.0  0.8124862379637036  0.2784548593953033  0.4702638656315017  1.0000
  O   O7        1.0  0.8124847081206281  0.7784544884178644  0.0297366418024083  1.0000
  O   O8        1.0  0.18751355020160793  0.7215497751344415  0.5297356269345883  1.0000
  O   O9        1.0  0.39815257206431914  0.7831293418003185  0.0198452326584473  1.0000
  O   O10       1.0  0.6018406531848297  0.716866857025046  0.5198442177906344  1.0000
  O   O11       1.0  0.6018518943535724  0.21687394860826706  0.9801537524737399  1.0000
  O   O12       1.0  0.3981591647969083  0.2831337451412281  0.4801547673415527  1.0000
  O   O13       1.0  0.3043319618494422  0.384670001427672  0.8778129598619772  1.0000
  O   O14       1.0  0.6956622210026708  0.1153242511102661  0.3778144821636999  1.0000
  O   O15       1.0  0.6956665829558091  0.6153306007386092  0.12218450296848718  1.0000
  O   O16       1.0  0.30433460635632054  0.8846790392983266  0.62218602527021  1.0000
