data_image0
_chemical_formula_structural       Cu12H24C72O48
_chemical_formula_sum              "Cu12 H24 C72 O48"
_cell_length_a       18.723060112692107
_cell_length_b       18.718932293939037
_cell_length_c       18.71683659370127
_cell_angle_alpha    60.01879442420773
_cell_angle_beta     60.00353359899793
_cell_angle_gamma    59.985134829880586

_space_group_name_H-M_alt    "P 1"
_space_group_IT_number       1

loop_
  _space_group_symop_operation_xyz
  'x, y, z'

loop_
  _atom_site_type_symbol
  _atom_site_label
  _atom_site_symmetry_multiplicity
  _atom_site_fract_x
  _atom_site_fract_y
  _atom_site_fract_z
  _atom_site_occupancy
  Cu  Cu1       1.0  0.4343778359326863  1.314685108153148e-05  0.5656236441068642  1.0000
  Cu  Cu2       1.0  0.9999905238290125  0.5656338518441968  1.2922372633279138e-05  1.0000
  Cu  Cu3       1.0  0.565611151244035  0.9999878462616039  0.43439107778512914  1.0000
  Cu  Cu4       1.0  7.658311638240899e-06  0.43434145083446646  0.9999895364315987  1.0000
  Cu  Cu5       1.0  0.43437417759528785  3.960777512181084e-06  0.9999973941971516  1.0000
  Cu  Cu6       1.0  2.21282075331431e-06  0.4343537565346694  0.5656526901274999  1.0000
  Cu  Cu7       1.0  0.9999892082755721  2.632544962444713e-06  0.5656830872982255  1.0000
  Cu  Cu8       1.0  0.43435596510918373  0.5656366340811942  1.0403313261540821e-05  1.0000
  Cu  Cu9       1.0  0.9999946880769599  0.5656016199145952  0.4343949771851926  1.0000
  Cu  Cu10      1.0  0.5656443964903629  0.4343598742926318  0.9999928938763103  1.0000
  Cu  Cu11      1.0  0.5656118036475561  0.9999947869309977  1.866888616916654e-06  1.0000
  Cu  Cu12      1.0  6.238528484872795e-06  0.999996481329248  0.43437520691779236  1.0000
  H   H1        1.0  0.49629286584161036  0.26606279162906077  0.2661705168603774  1.0000
  H   H2        1.0  0.028539580895603815  0.5036885227189388  0.7338342896262802  1.0000
  H   H3        1.0  0.2661690327996593  0.9714706792431828  0.4962928072350862  1.0000
  H   H4        1.0  0.7338401417774563  0.7339391853885854  0.028541471394802898  1.0000
  H   H5        1.0  0.7338170587043182  0.028527914519237654  0.7339272216764384  1.0000
  H   H6        1.0  0.26611106644995164  0.49627199145141543  0.9714955458210072  1.0000
  H   H7        1.0  0.02853947471366791  0.7338393114554335  0.5036586387248718  1.0000
  H   H8        1.0  0.7338331685260828  0.028525193869263887  0.5037014001453741  1.0000
  H   H9        1.0  0.971494726778971  0.26612275983582373  0.266109423600696  1.0000
  H   H10       1.0  0.733889816227368  0.5037285302959944  0.028508622196994793  1.0000
  H   H11       1.0  0.4963378207897476  0.26604342600100483  0.9714613123981407  1.0000
  H   H12       1.0  0.49634409486160536  0.9714360760786815  0.266105387229821  1.0000
  H   H13       1.0  0.26610252718976574  0.2661201473315913  0.49634092404620833  1.0000
  H   H14       1.0  0.2660652854755271  0.49627724595917727  0.26618815734073553  1.0000
  H   H15       1.0  0.2661662185525984  0.2660595492286078  0.9714616513981722  1.0000
  H   H16       1.0  0.971460582862285  0.26616149894388746  0.49633140914033186  1.0000
  H   H17       1.0  0.26618910372726395  0.9714692561571282  0.26606310934048594  1.0000
  H   H18       1.0  0.9714592766347608  0.4963170475637001  0.2661657774046803  1.0000
  H   H19       1.0  0.7339000095655733  0.7338829674755232  0.503653510216722  1.0000
  H   H20       1.0  0.5036616641525313  0.028560868648071308  0.733897716463119  1.0000
  H   H21       1.0  0.7339326842244629  0.5037276631238116  0.7338116668332688  1.0000
  H   H22       1.0  0.5036670528634913  0.733956860610057  0.02854001759484245  1.0000
  H   H23       1.0  0.028507341855963392  0.7338733130725715  0.7338882589316852  1.0000
  H   H24       1.0  0.5037077823893626  0.7339340643366296  0.733829625361828  1.0000
  C   C1        1.0  0.38638189134828593  0.25700464658533656  0.38643010868305777  1.0000
  C   C2        1.0  0.029792440239404503  0.6135969168409615  0.7429761588262166  1.0000
  C   C3        1.0  0.3864259508197988  0.9701829804749238  0.3863853692598553  1.0000
  C   C4        1.0  0.7429800358646614  0.6136367722005504  0.029794791509814927  1.0000
  C   C5        1.0  0.6135706131174103  0.029815483997197068  0.7429930886039242  1.0000
  C   C6        1.0  0.25702188890792865  0.3863675505924178  0.9702094039726958  1.0000
  C   C7        1.0  0.029801950727389122  0.6135987869944942  0.6135751559391877  1.0000
  C   C8        1.0  0.7429519804767892  0.029808845150824898  0.6136071854376083  1.0000
  C   C9        1.0  0.9702089487377564  0.3864073488018462  0.25701857076482076  1.0000
  C   C10       1.0  0.6135883295776451  0.613637890126789  0.029792751177360736  1.0000
  C   C11       1.0  0.3864177866347377  0.3863584383370054  0.9702102042440541  1.0000
  C   C12       1.0  0.38643559967159313  0.9701809326520133  0.2570037548867106  1.0000
  C   C13       1.0  0.2570047941178899  0.3863852676911108  0.38643007929705664  1.0000
  C   C14       1.0  0.38638706539779827  0.3863719112667994  0.25704841224040104  1.0000
  C   C15       1.0  0.38641988666745414  0.2569759759762461  0.970200066497348  1.0000
  C   C16       1.0  0.970206864533587  0.25702006388950593  0.38640908083877434  1.0000
  C   C17       1.0  0.2570493749926469  0.9701892017848978  0.38638073440154136  1.0000
  C   C18       1.0  0.9701991712827859  0.3864079110724461  0.38641505653006886  1.0000
  C   C19       1.0  0.6136150438317073  0.7429974645639703  0.6135709765891589  1.0000
  C   C20       1.0  0.6135736968727272  0.029815179904339677  0.6136140687491647  1.0000
  C   C21       1.0  0.7429953813633003  0.6136271972079753  0.6135586686244705  1.0000
  C   C22       1.0  0.6135816181400388  0.7430240599776069  0.029802201447246515  1.0000
  C   C23       1.0  0.029794017063693345  0.7429820300988867  0.61357943760688  1.0000
  C   C24       1.0  0.6136178365738304  0.6136241283582465  0.7429493974893759  1.0000
  C   C25       1.0  0.4305655690503301  0.16297834377645865  0.43059944497585423  1.0000
  C   C26       1.0  0.024174424360367854  0.5694023460421674  0.8369952047569241  1.0000
  C   C27       1.0  0.43059330219885783  0.9758604386051247  0.4305691793155403  1.0000
  C   C28       1.0  0.8369981084694229  0.5694307030959251  0.02417778765538969  1.0000
  C   C29       1.0  0.5693998201992231  0.024128557209628584  0.8370258262143365  1.0000
  C   C30       1.0  0.16300311792063146  0.4305750920182376  0.9758234321873615  1.0000
  C   C31       1.0  0.024128340903146545  0.5694181491429618  0.5693996351485779  1.0000
  C   C32       1.0  0.836961213785692  0.024184123450289946  0.569419510363943  1.0000
  C   C33       1.0  0.9758222423289878  0.4306000635014299  0.1630049397871077  1.0000
  C   C34       1.0  0.5693926209162754  0.5694250958999589  0.02418780306234699  1.0000
  C   C35       1.0  0.4306158956646088  0.4305673021140777  0.9758144637594484  1.0000
  C   C36       1.0  0.43059998714716125  0.9758687267484022  0.1629727408815214  1.0000
  C   C37       1.0  0.16297313096451654  0.43056178953533225  0.4305959667413077  1.0000
  C   C38       1.0  0.4305847808066333  0.43056263005836115  0.16303716191424655  1.0000
  C   C39       1.0  0.43059882209652756  0.16294386086590848  0.9758669211107573  1.0000
  C   C40       1.0  0.9758115244211536  0.1630100477762042  0.43061185406070007  1.0000
  C   C41       1.0  0.16303803545631737  0.9758165774117628  0.43057866349501944  1.0000
  C   C42       1.0  0.9758686963429638  0.4305844930302316  0.4305990347087345  1.0000
  C   C43       1.0  0.5694320762904538  0.8370233536030797  0.5694050642693115  1.0000
  C   C44       1.0  0.5694011835011779  0.02414116724025188  0.5694360298511326  1.0000
  C   C45       1.0  0.8370257187006798  0.5694469765970921  0.5693982052539895  1.0000
  C   C46       1.0  0.5694000417719708  0.8370561077224534  0.024132019382960803  1.0000
  C   C47       1.0  0.02418229925056886  0.8369911387972664  0.5693945350924351  1.0000
  C   C48       1.0  0.5694245230660258  0.5694245756881389  0.8369630002888185  1.0000
  C   C49       1.0  0.4296595885397849  0.3000967910529154  0.3001691414131855  1.0000
  C   C50       1.0  0.02992597169034643  0.5703130535315426  0.6998448072302635  1.0000
  C   C51       1.0  0.30016653812599986  0.9700715376531973  0.4296580005202557  1.0000
  C   C52       1.0  0.6998494943953588  0.6999189736316751  0.029927225295644285  1.0000
  C   C53       1.0  0.6998273714336845  0.02992783159729833  0.6998907052878065  1.0000
  C   C54       1.0  0.3001350456275775  0.42962809079653397  0.9701087533765076  1.0000
  C   C55       1.0  0.029925902876442433  0.6998560288481245  0.5702921120180591  1.0000
  C   C56       1.0  0.6998324907739146  0.029925593027620143  0.570336805636252  1.0000
  C   C57       1.0  0.9701072470499167  0.30013464882576807  0.30012862297878234  1.0000
  C   C58       1.0  0.6998700382245391  0.5703722960387266  0.02989550214808647  1.0000
  C   C59       1.0  0.42970426783092824  0.30007486534322686  0.9700775460194251  1.0000
  C   C60       1.0  0.42972616734988406  0.9700405034554292  0.30011556240277315  1.0000
  C   C61       1.0  0.30011303839906844  0.3001226776699823  0.4297242749389767  1.0000
  C   C62       1.0  0.30010676351745497  0.4296501761391198  0.3001730503846929  1.0000
  C   C63       1.0  0.3001520813969165  0.3000843794541979  0.9700764445825669  1.0000
  C   C64       1.0  0.9700756010121551  0.3001462545529849  0.4297007325266406  1.0000
  C   C65       1.0  0.30017943268281044  0.9700693453459124  0.30010088029807497  1.0000
  C   C66       1.0  0.9700748628399082  0.42969070093687367  0.3001504824202216  1.0000
  C   C67       1.0  0.6998835477172635  0.6998849323463431  0.5702716476029152  1.0000
  C   C68       1.0  0.5702789459312996  0.02995672483567075  0.6998841425735874  1.0000
  C   C69       1.0  0.6998997566348636  0.5703522610273879  0.6998196009354771  1.0000
  C   C70       1.0  0.57030058446707  0.6999224045884843  0.029924645697533857  1.0000
  C   C71       1.0  0.02989558718461168  0.6998682800850557  0.6998638649339525  1.0000
  C   C72       1.0  0.5703420871347901  0.6998986568807056  0.6998323024727995  1.0000
  O   O1        1.0  0.3862712173781944  0.126468876910856  0.5081457613784933  1.0000
  O   O2        1.0  0.020920833977868612  0.6137092400577726  0.8735309928102168  1.0000
  O   O3        1.0  0.5081381378937452  0.9791240680855325  0.38627429445387673  1.0000
  O   O4        1.0  0.8735248898740977  0.49184126321755867  0.02092459891037633  1.0000
  O   O5        1.0  0.49185842751171555  0.02086088584591284  0.8735430045838581  1.0000
  O   O6        1.0  0.12649899902796585  0.3862643138030038  0.9790796206654945  1.0000
  O   O7        1.0  0.020864038683178994  0.4918750926763664  0.613692345225246  1.0000
  O   O8        1.0  0.8734706647160666  0.020928339564548544  0.613736280474775  1.0000
  O   O9        1.0  0.9790834468503463  0.5081579313655809  0.12649611449970166  1.0000
  O   O10       1.0  0.4918172136502292  0.6137345314603877  0.0209405384099099  1.0000
  O   O11       1.0  0.38629492242380076  0.5081589843147684  0.979065293194182  1.0000
  O   O12       1.0  0.38629931250269345  0.9791352291943483  0.12644525480025234  1.0000
  O   O13       1.0  0.1264368471564128  0.5081281879601816  0.38629487229772497  1.0000
  O   O14       1.0  0.5081682977036337  0.38625372189371626  0.12651055095172137  1.0000
  O   O15       1.0  0.5081589703017074  0.12641234880796046  0.9791298899958035  1.0000
  O   O16       1.0  0.9790642933361724  0.12647617755042254  0.38629524039532004  1.0000
  O   O17       1.0  0.1265116822192024  0.9790641517941197  0.5081627940489924  1.0000
  O   O18       1.0  0.9791250703427181  0.38630259267739575  0.5081553045045764  1.0000
  O   O19       1.0  0.49186008484445437  0.8735598395124666  0.6137054774692672  1.0000
  O   O20       1.0  0.6136975286903734  0.0208799699255238  0.491860705629847  1.0000
  O   O21       1.0  0.8735530577106585  0.6137386690120651  0.491849420571512  1.0000
  O   O22       1.0  0.6136942665989906  0.8735729152345116  0.020869238710702294  1.0000
  O   O23       1.0  0.020931346720573233  0.8735160419712571  0.49181405032383907  1.0000
  O   O24       1.0  0.6137431852522253  0.4918546642904217  0.8734753412869694  1.0000
  O   O25       1.0  0.6137266065152718  0.8735336483909106  0.4918591275071121  1.0000
  O   O26       1.0  0.9790705776492177  0.3862872335644098  0.12647988169419483  1.0000
  O   O27       1.0  0.4918553341878322  0.020881694130189046  0.6137328131668125  1.0000
  O   O28       1.0  0.12646799876665693  0.5081659315219085  0.9790781761647976  1.0000
  O   O29       1.0  0.5081397808121152  0.9791386347456735  0.12645198519493298  1.0000
  O   O30       1.0  0.8735091463096792  0.6137380145414113  0.0209186219023181  1.0000
  O   O31       1.0  0.9791335487403359  0.508141053975329  0.38630014329562795  1.0000
  O   O32       1.0  0.1265131272931584  0.9790795472073127  0.38626050017054336  1.0000
  O   O33       1.0  0.020915726062426684  0.491844920820327  0.8734968257584015  1.0000
  O   O34       1.0  0.5081911186739418  0.38626091706771587  0.9790612083173897  1.0000
  O   O35       1.0  0.6137089442130376  0.49183340382791835  0.0209369680582299  1.0000
  O   O36       1.0  0.6136958367991953  0.020861402415711296  0.873557539997435  1.0000
  O   O37       1.0  0.873551941933705  0.49189163314404977  0.6136922772061054  1.0000
  O   O38       1.0  0.49183917463760446  0.6137344211711735  0.8734862797494074  1.0000
  O   O39       1.0  0.4918391199765325  0.8735856064052213  0.02086989267677108  1.0000
  O   O40       1.0  0.020934483502550484  0.8735099195059064  0.613710622104378  1.0000
  O   O41       1.0  0.8735007426221557  0.02093106235822959  0.491825544991954  1.0000
  O   O42       1.0  0.020868275712708023  0.613708574608907  0.49183116246339853  1.0000
  O   O43       1.0  0.5081385274069703  0.12644111657935736  0.38630102379038783  1.0000
  O   O44       1.0  0.38629627902326286  0.9791203634821956  0.5081447942187864  1.0000
  O   O45       1.0  0.12645445390207036  0.38627806797205727  0.5081338023906028  1.0000
  O   O46       1.0  0.38630445153954446  0.12642871412377577  0.9791264232006468  1.0000
  O   O47       1.0  0.9790529072918731  0.12649955667348678  0.508183479088153  1.0000
  O   O48       1.0  0.38626314010205215  0.508133980422727  0.1265300255778213  1.0000
