data_image0
_chemical_formula_structural       Mn2H32C48N4O8
_chemical_formula_sum              "Mn2 H32 C48 N4 O8"
_cell_length_a       6.802942567944262
_cell_length_b       11.486384397443617
_cell_length_c       13.925565649184893
_cell_angle_alpha    114.3458993817679
_cell_angle_beta     98.08830119320453
_cell_angle_gamma    89.97336905748185

_space_group_name_H-M_alt    "P 1"
_space_group_IT_number       1

loop_
  _space_group_symop_operation_xyz
  'x, y, z'

loop_
  _atom_site_type_symbol
  _atom_site_label
  _atom_site_symmetry_multiplicity
  _atom_site_fract_x
  _atom_site_fract_y
  _atom_site_fract_z
  _atom_site_occupancy
  Mn  Mn1       1.0  0.25003610464317205  0.6219706572968065  1.1532909567797984e-05  1.0000
  Mn  Mn2       1.0  0.7499681064689696  0.37802834267925794  0.9999894834016414  1.0000
  H   H1        1.0  0.3173540012357847  0.7003964679993828  0.6486291930373439  1.0000
  H   H2        1.0  0.1825567606414893  0.051746325419223596  0.3514009955572276  1.0000
  H   H3        1.0  0.6826382649691851  0.2996015980251201  0.35136919170714975  1.0000
  H   H4        1.0  0.8174429566999918  0.9482517237636686  0.6485964952818078  1.0000
  H   H5        1.0  0.3071273036717272  0.5745481879762977  0.7599184624024956  1.0000
  H   H6        1.0  0.19260893967370404  0.8146571550424043  0.24014610545521023  1.0000
  H   H7        1.0  0.6928696149883465  0.42545178375672776  0.2400809106913684  1.0000
  H   H8        1.0  0.807390962388709  0.18534280982391488  0.7598527666213002  1.0000
  H   H9        1.0  0.2911781686867343  0.9388949793954282  0.7361754946525422  1.0000
  H   H10       1.0  0.2090367071358372  0.20271487776295058  0.26385168841439105  1.0000
  H   H11       1.0  0.7088156260660624  0.06110308156996071  0.26382084639352843  1.0000
  H   H12       1.0  0.7909646939970827  0.7972850833448675  0.7361465745154802  1.0000
  H   H13       1.0  0.337101533679288  0.0011911475687469  0.5967694759997924  1.0000
  H   H14       1.0  0.16283563689071906  0.404450389919525  0.40349705898963606  1.0000
  H   H15       1.0  0.6628954994492489  0.9988097810305376  0.403229511798969  1.0000
  H   H16       1.0  0.837165989738267  0.5955524469895082  0.5965057862620781  1.0000
  H   H17       1.0  0.2688426250438809  0.13779900574943585  0.9062875447834953  1.0000
  H   H18       1.0  0.2314782878780051  0.23149592833050295  0.093757302636071  1.0000
  H   H19       1.0  0.7311542936161927  0.8622009659835971  0.0937118283103758  1.0000
  H   H20       1.0  0.7685185457909326  0.7685030852356575  0.9062410212011113  1.0000
  H   H21       1.0  0.8061129464829548  0.19390617745930427  0.5589906037194011  1.0000
  H   H22       1.0  0.6936190086037681  0.6343287785423115  0.4404138506011392  1.0000
  H   H23       1.0  0.19388547124762567  0.8060937905152199  0.4410081602278381  1.0000
  H   H24       1.0  0.30638401736592863  0.36567309709165124  0.5595880535231643  1.0000
  H   H25       1.0  0.0636408131238468  0.3108419050901716  0.700552030086733  1.0000
  H   H26       1.0  0.4362318658766497  0.6097593993897875  0.2991786491012789  1.0000
  H   H27       1.0  0.9363529487107698  0.6891571192445127  0.299451098423198  1.0000
  H   H28       1.0  0.5637742137478554  0.3902434281946441  0.7008245205382407  1.0000
  H   H29       1.0  0.3961302267674823  0.15798498526665128  0.7585080351579164  1.0000
  H   H30       1.0  0.1033109193150352  0.39954551523231174  0.24142614204249915  1.0000
  H   H31       1.0  0.6038665332081405  0.8420140315510308  0.24149387505875095  1.0000
  H   H32       1.0  0.8966937054549574  0.600457314159712  0.7585754849159584  1.0000
  C   C1        1.0  0.26135548067666997  0.8597925678039076  0.9444973037279495  1.0000
  C   C2        1.0  0.23834802330987503  0.9152834001318622  0.0555143780320932  1.0000
  C   C3        1.0  0.7386457062579979  0.1402054789210823  0.055501012516252494  1.0000
  C   C4        1.0  0.761656246756928  0.08471559724299028  0.9444837691755337  1.0000
  C   C5        1.0  0.2697282328714792  0.9403771951254568  0.8902600376940908  1.0000
  C   C6        1.0  0.2302396902268242  0.05009851207717728  0.10975283001330638  1.0000
  C   C7        1.0  0.7302701553817669  0.059622774149673284  0.10974016080493947  1.0000
  C   C8        1.0  0.7697630955081392  0.9499004884058735  0.8902452090650499  1.0000
  C   C9        1.0  0.3513107226279287  0.35456614963096206  0.8633717769015802  1.0000
  C   C10       1.0  0.14845092070891747  0.491171919735038  0.136519122828048  1.0000
  C   C11       1.0  0.6486844532860514  0.6454319127783493  0.13662969320503754  1.0000
  C   C12       1.0  0.8515535895926121  0.508829952790727  0.8634828894255191  1.0000
  C   C13       1.0  0.30089460771021953  0.7493292199949054  0.7325016440232445  1.0000
  C   C14       1.0  0.199043931180114  0.016832416850697  0.26751449674578953  1.0000
  C   C15       1.0  0.6991017975622142  0.2506659648056058  0.2674967864425923  1.0000
  C   C16       1.0  0.800959024537107  0.9831684999660909  0.7324856408459296  1.0000
  C   C17       1.0  0.2955107940155699  0.6780151034093366  0.7937127298769225  1.0000
  C   C18       1.0  0.2043010722806642  0.8842990450640542  0.2063159929616702  1.0000
  C   C19       1.0  0.7044857257253198  0.3219810382574337  0.20628531529379757  1.0000
  C   C20       1.0  0.7957004988345131  0.11570283237750091  0.7936843684815712  1.0000
  C   C21       1.0  0.2877630148562176  0.8804994693194458  0.7809776611801451  1.0000
  C   C22       1.0  0.21232330473738872  0.09953983261335249  0.21904086449060853  1.0000
  C   C23       1.0  0.7122321202826285  0.11949763297209161  0.2190206078420971  1.0000
  C   C24       1.0  0.7876797949256229  0.9004620397690885  0.78095745325421  1.0000
  C   C25       1.0  0.15171535726464208  0.22713985455801122  0.6862658792564317  1.0000
  C   C26       1.0  0.3480451719217895  0.5404954910954061  0.3135373591007776  1.0000
  C   C27       1.0  0.8482812882425179  0.772858205393405  0.3137364162553525  1.0000
  C   C28       1.0  0.6519594233708758  0.45950733959723067  0.686465702409471  1.0000
  C   C29       1.0  0.30600194745697706  0.2382134351178422  0.7632290562571027  1.0000
  C   C30       1.0  0.1935931522242669  0.47490923720918937  0.23666787465857908  1.0000
  C   C31       1.0  0.6939948125186461  0.76178558169984  0.23677285395957176  1.0000
  C   C32       1.0  0.8064113728159298  0.5250926346662725  0.7633334203190926  1.0000
  C   C33       1.0  0.18831789336595509  0.0009774690347085998  0.5553117229803703  1.0000
  C   C34       1.0  0.3116192087212965  0.445680946852228  0.4448592503688217  1.0000
  C   C35       1.0  0.8116791250239144  0.9990234602148861  0.4446879820942869  1.0000
  C   C36       1.0  0.6883824179076895  0.5543218900568049  0.5551435948828995  1.0000
  C   C37       1.0  0.08142699052049808  0.1128424405566051  0.5909855089621558  1.0000
  C   C38       1.0  0.41840159739988547  0.5215135243264655  0.4088607798641418  1.0000
  C   C39       1.0  0.9185698986622484  0.8871575324770262  0.4090152986835064  1.0000
  C   C40       1.0  0.5816014138311445  0.4784883519578074  0.5911418415360572  1.0000
  C   C41       1.0  0.2594402166051353  0.07550186396495212  0.9471691712132893  1.0000
  C   C42       1.0  0.24079764345510307  0.1283275169652001  0.05285319434629799  1.0000
  C   C43       1.0  0.7405596854572776  0.9244981009013742  0.05282970086321377  1.0000
  C   C44       1.0  0.7592037429391565  0.8716724447929207  0.947145785859476  1.0000
  C   C45       1.0  0.8916846746337724  0.1087953396723762  0.5324461879170314  1.0000
  C   C46       1.0  0.6081975908812467  0.5759835468119691  0.4672051206450121  1.0000
  C   C47       1.0  0.10831554135669559  0.8912074970933402  0.46755296282594105  1.0000
  C   C48       1.0  0.3918040357477393  0.424019290097064  0.5327977246067022  1.0000
  N   N1        1.0  0.2750446943741807  0.7314821535459259  0.8962426921507782  1.0000
  N   N2        1.0  0.2246214418873791  0.8352221757927865  0.10376216749784824  1.0000
  N   N3        1.0  0.7249566920200718  0.26851780821219506  0.1037562880549956  1.0000
  N   N4        1.0  0.7753813291089243  0.1647768253405744  0.8962365888564036  1.0000
  O   O1        1.0  0.2843591004492012  0.4595209982456936  0.8654254691015666  1.0000
  O   O2        1.0  0.21548175498455882  0.5940199140844342  0.1344921778919712  1.0000
  O   O3        1.0  0.7156420422694721  0.5404770504302051  0.13457499897032935  1.0000
  O   O4        1.0  0.7845196166710265  0.4059800483239898  0.8655075195896983  1.0000
  O   O5        1.0  0.4499358824827412  0.3421865974767826  0.9437569106615624  1.0000
  O   O6        1.0  0.05008023873870829  0.3984339190429153  0.05609724774198101  1.0000
  O   O7        1.0  0.5500625760229738  0.6578143306155226  0.056245054370052144  1.0000
  O   O8        1.0  0.9499257411560008  0.601567951024947  0.9439055899167526  1.0000
