data_image0
_chemical_formula_structural       Tm4Ag12H24C56N8O44
_chemical_formula_sum              "Tm4 Ag12 H24 C56 N8 O44"
_cell_length_a       8.144878240004982
_cell_length_b       13.770873284003551
_cell_length_c       14.566354119010734
_cell_angle_alpha    89.99992649125716
_cell_angle_beta     90.00011970477263
_cell_angle_gamma    90.00003685694819

_space_group_name_H-M_alt    "P 1"
_space_group_IT_number       1

loop_
  _space_group_symop_operation_xyz
  'x, y, z'

loop_
  _atom_site_type_symbol
  _atom_site_label
  _atom_site_symmetry_multiplicity
  _atom_site_fract_x
  _atom_site_fract_y
  _atom_site_fract_z
  _atom_site_occupancy
  Tm  Tm1       1.0  0.9736452944233067  0.25000124964868314  0.7500014140469559  1.0000
  Tm  Tm2       1.0  0.5263546905416305  0.2500000519374622  0.2500009474216824  1.0000
  Tm  Tm3       1.0  0.026354855609874106  0.7500002010946859  0.24999828876052282  1.0000
  Tm  Tm4       1.0  0.4736479150250333  0.7499992202939011  0.7500008149293295  1.0000
  Ag  Ag1       1.0  0.2500010067345145  0.0569104052312355  0.5000023748822571  1.0000
  Ag  Ag2       1.0  0.25000336705463877  0.4430831059287072  0.9999982235238323  1.0000
  Ag  Ag3       1.0  0.7499991432971527  0.9430859623191594  0.4999980144418856  1.0000
  Ag  Ag4       1.0  0.7499967829778243  0.5569147139624062  2.1657994367000005e-06  1.0000
  Ag  Ag5       1.0  0.5508195916730827  0.17432784213433905  0.514940330862828  1.0000
  Ag  Ag6       1.0  0.9491827661396358  0.174324307008547  0.4850559437522861  1.0000
  Ag  Ag7       1.0  0.949179526743201  0.3256745046836826  0.0149402730217005  1.0000
  Ag  Ag8       1.0  0.5508229964214665  0.32567304466987684  0.9850613101692574  1.0000
  Ag  Ag9       1.0  0.44917810283136117  0.8256728824372742  0.48506074497080215  1.0000
  Ag  Ag10      1.0  0.05082229494485092  0.8256742390575834  0.5149389534647568  1.0000
  Ag  Ag11      1.0  0.05081080115975571  0.6743262198898066  0.9850559972124702  1.0000
  Ag  Ag12      1.0  0.4491771536139241  0.6743255013906617  0.0149404521807384  1.0000
  H   H1        1.0  0.2753389049291926  0.2296448550406396  0.05553142118751711  1.0000
  H   H2        1.0  0.22465961394167522  0.22964424213962786  0.9444690000260464  1.0000
  H   H3        1.0  0.22465769150341694  0.27035289027368486  0.5555301953483893  1.0000
  H   H4        1.0  0.27533596077724104  0.2703537014163046  0.44446948998293584  1.0000
  H   H5        1.0  0.7246575618094157  0.7703551433603835  0.944469654645836  1.0000
  H   H6        1.0  0.7753380805594434  0.7703550300922044  0.0555307027812972  1.0000
  H   H7        1.0  0.7753412307643972  0.7296463819579129  0.44447019397326676  1.0000
  H   H8        1.0  0.7246641892564086  0.7296462969858837  0.5555308993390113  1.0000
  H   H9        1.0  0.8970305696891927  0.6461917666632784  0.7921647333824424  1.0000
  H   H10       1.0  0.6029735313956905  0.6461928337147992  0.2078364611302277  1.0000
  H   H11       1.0  0.6029738002354678  0.8538092392200693  0.29216217203217815  1.0000
  H   H12       1.0  0.8970256165984482  0.8538104651403556  0.7078367111679641  1.0000
  H   H13       1.0  0.10297326364204201  0.35380823173914416  0.20783634245526633  1.0000
  H   H14       1.0  0.3970241631062166  0.3538078908577518  0.7921632416762352  1.0000
  H   H15       1.0  0.3970238942673063  0.14619075918165683  0.7078382172883124  1.0000
  H   H16       1.0  0.10297330566929472  0.1461909856027859  0.29216299163879  1.0000
  H   H17       1.0  0.6132701707010214  0.5237166979306663  0.568744971766364  1.0000
  H   H18       1.0  0.8867301132905113  0.5237153906884231  0.4312584308065652  1.0000
  H   H19       1.0  0.8867296922896559  0.9762846112136214  0.0687405382745467  1.0000
  H   H20       1.0  0.6132698583413757  0.9762854263935521  0.9312568233780569  1.0000
  H   H21       1.0  0.38672997933342407  0.4762847528122406  0.431255417554695  1.0000
  H   H22       1.0  0.11327126450858321  0.47628460771399966  0.5687419585161066  1.0000
  H   H23       1.0  0.11327168550698022  0.023713208678188394  0.9312591645358594  1.0000
  H   H24       1.0  0.38672783616046064  0.023717476690542593  0.068742192913497  1.0000
  C   C1        1.0  0.0201113874750973  0.4651282452317318  0.848122733009312  1.0000
  C   C2        1.0  0.4798861608942886  0.4651288048309111  0.1518808352101715  1.0000
  C   C3        1.0  0.4798911986530215  0.034869829103378394  0.3481210046264991  1.0000
  C   C4        1.0  0.020105879669493704  0.0348746190652491  0.6518789662647677  1.0000
  C   C5        1.0  0.9798899903214606  0.5348717531716216  0.1518762832861853  1.0000
  C   C6        1.0  0.5201090780810134  0.5348704673985905  0.8481216136500649  1.0000
  C   C7        1.0  0.5201101791436146  0.9651279907884314  0.6518786981839071  1.0000
  C   C8        1.0  0.9798893593006711  0.9651268316776578  0.3481200500262176  1.0000
  C   C9        1.0  0.9102276950249221  0.49134031208446766  0.7700446808329815  1.0000
  C   C10       1.0  0.5897713258295029  0.49134061794057254  0.2299573879725259  1.0000
  C   C11       1.0  0.5897723638271017  0.008658057614589197  0.2700438954328703  1.0000
  C   C12       1.0  0.9102273574766571  0.008661437023214097  0.7299560126451469  1.0000
  C   C13       1.0  0.08977368277583513  0.5086604124878489  0.22995639500283724  1.0000
  C   C14       1.0  0.41022882420422496  0.5086572019500719  0.7700436878643302  1.0000
  C   C15       1.0  0.41022533067488354  0.9913404884464182  0.7299564938885015  1.0000
  C   C16       1.0  0.08977279255564952  0.9913407398909795  0.2700430036483041  1.0000
  C   C17       1.0  0.8582146545118834  0.5849168067197253  0.750182382239906  1.0000
  C   C18       1.0  0.6417869241048423  0.5849171053162224  0.24982094611804231  1.0000
  C   C19       1.0  0.6417883328765372  0.9150828038086585  0.2501784195081669  1.0000
  C   C20       1.0  0.8582086953667841  0.9150861365508546  0.7498203893854267  1.0000
  C   C21       1.0  0.1417867232892647  0.4150846440229473  0.24981869359547207  1.0000
  C   C22       1.0  0.35821322592715193  0.415082166916079  0.7501787566907582  1.0000
  C   C23       1.0  0.35821058938961414  0.08491574225304525  0.7498212833003494  1.0000
  C   C24       1.0  0.14178899913884635  0.08491676653184037  0.250180686446889  1.0000
  C   C25       1.0  0.7455633654825109  0.6000146430465347  0.6769196360574911  1.0000
  C   C26       1.0  0.7544406851530426  0.6000134325298844  0.3230809279399837  1.0000
  C   C27       1.0  0.7544393518273014  0.8999865192652262  0.17691719801963054  1.0000
  C   C28       1.0  0.7455601154543601  0.8999868052154126  0.8230823156974694  1.0000
  C   C29       1.0  0.25444046784699037  0.39998680769753736  0.3230800667521692  1.0000
  C   C30       1.0  0.24556069264391317  0.39998729204382494  0.6769180883550732  1.0000
  C   C31       1.0  0.24555957044091062  0.1000134791367273  0.823083191301592  1.0000
  C   C32       1.0  0.2544388068176531  0.10001319318514845  0.17692013316450783  1.0000
  C   C33       1.0  0.7004784500753233  0.5171295848585159  0.625118090487682  1.0000
  C   C34       1.0  0.7995218267175235  0.5171283211037618  0.3748839470459586  1.0000
  C   C35       1.0  0.7995240762682415  0.9828709215961098  0.125115605311521  1.0000
  C   C36       1.0  0.7004779370907671  0.9828703939869071  0.8748831213835901  1.0000
  C   C37       1.0  0.29952415548746814  0.48287186588579073  0.3748809258076591  1.0000
  C   C38       1.0  0.20047832331320595  0.4828709511290014  0.6251150692492545  1.0000
  C   C39       1.0  0.20047730152879245  0.017127624466056098  0.8748840974984446  1.0000
  C   C40       1.0  0.299522212940353  0.017129604416218996  0.1251158949111826  1.0000
  C   C41       1.0  0.7580802923425836  0.42641855513221566  0.65144460257644  1.0000
  C   C42       1.0  0.7419198853543137  0.4264173052930572  0.3485589179857271  1.0000
  C   C43       1.0  0.7419205570534474  0.0735821540625849  0.1514411725089175  1.0000
  C   C44       1.0  0.7580804629433047  0.07358386251477358  0.8485593433537703  1.0000
  C   C45       1.0  0.24192108545184252  0.5735821694424245  0.3485530406914492  1.0000
  C   C46       1.0  0.2580802646780783  0.5735826931095999  0.6514407848226257  1.0000
  C   C47       1.0  0.25808082074271255  0.9264171181704128  0.8485578437870203  1.0000
  C   C48       1.0  0.24191968709193654  0.9264190405688519  0.1514410459664148  1.0000
  C   C49       1.0  0.7013880933372578  0.33357115758754924  0.6084832916224698  1.0000
  C   C50       1.0  0.798611982922637  0.3335684185684328  0.3915182819918783  1.0000
  C   C51       1.0  0.7986125976857468  0.16642888374936143  0.10848187561750681  1.0000
  C   C52       1.0  0.7013860682130116  0.1664305124163192  0.8915192141661238  1.0000
  C   C53       1.0  0.29861205669339347  0.6664302931567574  0.3915150381578343  1.0000
  C   C54       1.0  0.20138939487272722  0.6664294013238391  0.6084807343049407  1.0000
  C   C55       1.0  0.20138755234751227  0.8335703884824637  0.8915185137048808  1.0000
  C   C56       1.0  0.2986153095894011  0.8335709383258914  0.1084825481828346  1.0000
  N   N1        1.0  0.8613993321923489  0.4126728480230638  0.722090352625628  1.0000
  N   N2        1.0  0.638600830486162  0.41267310728288453  0.2779118115772833  1.0000
  N   N3        1.0  0.6386030054090243  0.08732849144906397  0.22208952963254802  1.0000
  N   N4        1.0  0.8613980296073083  0.0873296087586937  0.7779123425880742  1.0000
  N   N5        1.0  0.13860450113509162  0.5873271503807513  0.27790866367132594  1.0000
  N   N6        1.0  0.36140054731458804  0.587327617289425  0.7220892642585355  1.0000
  N   N7        1.0  0.3613983723900703  0.9126715069533583  0.7779108596901239  1.0000
  N   N8        1.0  0.13860212042879994  0.9126725681541072  0.2220887332461388  1.0000
  O   O1        1.0  0.04952370681832721  0.3744724096066392  0.8589889424239845  1.0000
  O   O2        1.0  0.45047619804881134  0.37447297281313746  0.14101748178572393  1.0000
  O   O3        1.0  0.45048874149537005  0.1255263761500629  0.35898912883383366  1.0000
  O   O4        1.0  0.04951703022972251  0.12552973965932065  0.641014164696017  1.0000
  O   O5        1.0  0.950483809803288  0.6255283149691663  0.14100870084753583  1.0000
  O   O6        1.0  0.5495129021098181  0.6255270255818318  0.8589904591791254  1.0000
  O   O7        1.0  0.5495163196013736  0.8744714437410436  0.6410126335195088  1.0000
  O   O8        1.0  0.9504831198030673  0.8744709849136922  0.3589855381119023  1.0000
  O   O9        1.0  0.08074226038949922  0.5297820727758803  0.9007323253257056  1.0000
  O   O10       1.0  0.4192578141394138  0.529781228480651  0.0992697914659999  1.0000
  O   O11       1.0  0.4192598381468785  0.9702156916760952  0.40072862421348526  1.0000
  O   O12       1.0  0.08073335094123023  0.9702227545236677  0.5992674663654824  1.0000
  O   O13       1.0  0.9192566618787198  0.4702179256260805  0.09926806399551681  1.0000
  O   O14       1.0  0.5807398803625717  0.4702173175803565  0.9007305978553719  1.0000
  O   O15       1.0  0.5807403118780671  0.02977994970626699  0.5992683325431685  1.0000
  O   O16       1.0  0.9192606602600935  0.0297794223907673  0.4007294903835756  1.0000
  O   O17       1.0  0.6791817895053073  0.685492154041988  0.6613329404832555  1.0000
  O   O18       1.0  0.8208223545087777  0.685490947513017  0.3386661468321464  1.0000
  O   O19       1.0  0.8208184148134097  0.8145083032555361  0.1613306846833922  1.0000
  O   O20       1.0  0.6791809590846684  0.814509995248386  0.838667559661431  1.0000
  O   O21       1.0  0.3208195882933111  0.31450929670161537  0.338666762324948  1.0000
  O   O22       1.0  0.1791802510498215  0.3145097770623264  0.6613308099228804  1.0000
  O   O23       1.0  0.17917927968644426  0.1854909689767581  0.8386683316103645  1.0000
  O   O24       1.0  0.3208204187118896  0.1854900031549676  0.16133145663406623  1.0000
  O   O25       1.0  0.5850584424193032  0.33552529846910767  0.5517909296555176  1.0000
  O   O26       1.0  0.9149440915074722  0.33552470507196824  0.4482106415892915  1.0000
  O   O27       1.0  0.914942039609926  0.16447554598936875  0.05179034024706652  1.0000
  O   O28       1.0  0.585059079682445  0.16447342279261074  0.9482100653954364  1.0000
  O   O29       1.0  0.4149404798493067  0.6644754261032089  0.4482094596652644  1.0000
  O   O30       1.0  0.08506219734957202  0.6644752933327852  0.5517876881955319  1.0000
  O   O31       1.0  0.0850581104232546  0.8355259047540072  0.9482093625604122  1.0000
  O   O32       1.0  0.41494352588342315  0.8355243970980339  0.0517916969564496  1.0000
  O   O33       1.0  0.7750589375373877  0.2554722573393348  0.635347345713335  1.0000
  O   O34       1.0  0.7249410534035122  0.25547170539100966  0.3646543226068673  1.0000
  O   O35       1.0  0.7249418525192937  0.24452774753358847  0.135345747787909  1.0000
  O   O36       1.0  0.7750532154071408  0.24452944056670836  0.8646573068271266  1.0000
  O   O37       1.0  0.2249436680232719  0.7445299195762586  0.3646502975543982  1.0000
  O   O38       1.0  0.27506032439391254  0.7445275668415191  0.6353453802026581  1.0000
  O   O39       1.0  0.2750619808115432  0.7554715246984711  0.8646553280502404  1.0000
  O   O40       1.0  0.22494816239994012  0.7554712840032706  0.1353472015766144  1.0000
  O   O41       1.0  0.24999958914659004  0.26987041630247427  0.9999997015726052  1.0000
  O   O42       1.0  0.2499961902839516  0.23012672570856552  0.49999952379901913  1.0000
  O   O43       1.0  0.7499987208324442  0.7301281772508472  0.9999997184605647  1.0000
  O   O44       1.0  0.7500027319818089  0.7698710941827753  0.5000001790099305  1.0000
