data_image0
_chemical_formula_structural       Nd4H56C36O28
_chemical_formula_sum              "Nd4 H56 C36 O28"
_cell_length_a       7.741869731654739
_cell_length_b       9.797362223030104
_cell_length_c       18.04084766038203
_cell_angle_alpha    79.42767768764135
_cell_angle_beta     77.83400372756206
_cell_angle_gamma    66.75285501323121

_space_group_name_H-M_alt    "P 1"
_space_group_IT_number       1

loop_
  _space_group_symop_operation_xyz
  'x, y, z'

loop_
  _atom_site_type_symbol
  _atom_site_label
  _atom_site_symmetry_multiplicity
  _atom_site_fract_x
  _atom_site_fract_y
  _atom_site_fract_z
  _atom_site_occupancy
  Nd  Nd1       1.0  0.21629413054204602  0.5136255046047821  0.5383117001048703  1.0000
  Nd  Nd2       1.0  0.26812163388133586  0.9863147870870536  0.9618692182427109  1.0000
  Nd  Nd3       1.0  0.7837073747973236  0.4863719520284135  0.461687743915995  1.0000
  Nd  Nd4       1.0  0.7318778562721063  0.0136871410067698  0.038131201321746695  1.0000
  H   H1        1.0  0.007835648202366603  0.0922093433702642  0.5836652550136278  1.0000
  H   H2        1.0  0.6839137177355425  0.407809506519193  0.9162465393716205  1.0000
  H   H3        1.0  0.9921677035240679  0.9077881132629244  0.4163349896566189  1.0000
  H   H4        1.0  0.31608627317306315  0.5921901858443164  0.08375456101795463  1.0000
  H   H5        1.0  0.8438090679871383  0.2228821911313261  0.6434417924545954  1.0000
  H   H6        1.0  0.7097355834145777  0.27743289302526347  0.8561893998953777  1.0000
  H   H7        1.0  0.15619068407193756  0.7771152655018623  0.35655808132835887  1.0000
  H   H8        1.0  0.290264433812034  0.7225679172033992  0.14381108338604784  1.0000
  H   H9        1.0  0.04814875557858044  0.1085536498599708  0.7478178440981438  1.0000
  H   H10       1.0  0.903899563036717  0.3915222111525978  0.7524225160406814  1.0000
  H   H11       1.0  0.9518528955035708  0.8914460425035386  0.2521815961178859  1.0000
  H   H12       1.0  0.09609937372554372  0.6084797169412326  0.24757845691495817  1.0000
  H   H13       1.0  0.2173219698885092  0.9804303448900882  0.6877408402428742  1.0000
  H   H14       1.0  0.8855811513310675  0.5193690957917099  0.8127295759589898  1.0000
  H   H15       1.0  0.7826801819488054  0.0195671117431004  0.3122592807982727  1.0000
  H   H16       1.0  0.11441658554208088  0.4806328323021134  0.18727127336754984  1.0000
  H   H17       1.0  0.8002574600538143  0.0088568456547407  0.7349619230218137  1.0000
  H   H18       1.0  0.5440428789409848  0.49173099760064787  0.7645251689724759  1.0000
  H   H19       1.0  0.1997419106748668  0.9911439645739292  0.26503788323933003  1.0000
  H   H20       1.0  0.45595769167681516  0.5082698126280221  0.23547476091776787  1.0000
  H   H21       1.0  0.9713176090850346  0.8826842153873142  0.6731767513037851  1.0000
  H   H22       1.0  0.5276491506652051  0.617749054839642  0.8264840560589731  1.0000
  H   H23       1.0  0.02868348860593541  0.117315476976195  0.3268232423034262  1.0000
  H   H24       1.0  0.4723496929903063  0.3822528732541811  0.17351568648520296  1.0000
  H   H25       1.0  0.9224301316379454  0.7567723553384198  0.8027687883856485  1.0000
  H   H26       1.0  0.482813745608006  0.7433825664639429  0.696591039863307  1.0000
  H   H27       1.0  0.0775680128835959  0.2432273370250897  0.1972315113545449  1.0000
  H   H28       1.0  0.5171872589762075  0.2566171258995666  0.30340772333244803  1.0000
  H   H29       1.0  0.16165759554883882  0.7472705014869376  0.7753600423864596  1.0000
  H   H30       1.0  0.6845120902001655  0.7529894996403711  0.7248603689503169  1.0000
  H   H31       1.0  0.8383422759350055  0.2527280730114114  0.22464044469980138  1.0000
  H   H32       1.0  0.31549076077110527  0.24701019272313826  0.2751391948948125  1.0000
  H   H33       1.0  0.21192557016883032  0.0164639180617243  0.4626766120428981  1.0000
  H   H34       1.0  0.6919475152842126  0.48306195329261925  0.037204989826769  1.0000
  H   H35       1.0  0.788073654817069  0.9835346564366246  0.5373231980230813  1.0000
  H   H36       1.0  0.3080490216998157  0.5169399748012111  0.9627957358706708  1.0000
  H   H37       1.0  0.4251036129352742  0.9093464172945714  0.4045554067324061  1.0000
  H   H38       1.0  0.7405217886604734  0.5902641041753611  0.09543167998024421  1.0000
  H   H39       1.0  0.5748962848665758  0.0906532750689379  0.5954444632457125  1.0000
  H   H40       1.0  0.2594747483235479  0.4097378239184691  0.9045690457171957  1.0000
  H   H41       1.0  0.38940902170175223  0.9478099216853693  0.5729102088738428  1.0000
  H   H42       1.0  0.9091209896245899  0.552322642813813  0.9270463456202477  1.0000
  H   H43       1.0  0.6105909692068536  0.0521897706781331  0.427090891515732  1.0000
  H   H44       1.0  0.09087622017538172  0.4476804031451707  0.07295443998931721  1.0000
  H   H45       1.0  0.5954390683396726  0.8309997197610386  0.5193307729291661  1.0000
  H   H46       1.0  0.945327550111863  0.669047886986057  0.9808073190143104  1.0000
  H   H47       1.0  0.4045615022781205  0.1690010904676242  0.4806691569610777  1.0000
  H   H48       1.0  0.05466965968810911  0.3309551589729267  0.019193466595254408  1.0000
  H   H49       1.0  0.475287476612458  0.5384354039435806  0.6345613309641321  1.0000
  H   H50       1.0  0.647795647507074  0.9611080456168111  0.8655067071773103  1.0000
  H   H51       1.0  0.5247135016537428  0.4615631705547685  0.3654380493397724  1.0000
  H   H52       1.0  0.3522036969035938  0.0388916467466984  0.134493716191983  1.0000
  H   H53       1.0  0.36420115970982175  0.4378085359260666  0.6856031437233909  1.0000
  H   H54       1.0  0.486472882824039  0.0620515771108145  0.8145282859006142  1.0000
  H   H55       1.0  0.6357999379811474  0.5621911564374427  0.3143968498838207  1.0000
  H   H56       1.0  0.5135282148669305  0.937948115252695  0.18547170770659696  1.0000
  C   C1        1.0  0.0941736171256481  0.2630660900018214  0.5986129723664247  1.0000
  C   C2        1.0  0.9555150458156801  0.23675713348480798  0.9015844437113643  1.0000
  C   C3        1.0  0.9058268077493706  0.7369324844965277  0.4013869613286544  1.0000
  C   C4        1.0  0.04448432491299311  0.763243676743862  0.09841536254977969  1.0000
  C   C5        1.0  0.9967796259873797  0.1539646862139463  0.6307544826210005  1.0000
  C   C6        1.0  0.7812669331853  0.3461268249108471  0.869218412569424  1.0000
  C   C7        1.0  0.003224686778636995  0.8460305346889285  0.3692446590717182  1.0000
  C   C8        1.0  0.21873349168971865  0.6538717495875019  0.1307815211256553  1.0000
  C   C9        1.0  0.06402401188740468  0.04630979994180959  0.7003353896199016  1.0000
  C   C10       1.0  0.8104705487748518  0.453766061070759  0.7998185026721742  1.0000
  C   C11       1.0  0.9359776391947463  0.9536898924216999  0.29966405059612805  1.0000
  C   C12       1.0  0.18953002184294826  0.5462347491579109  0.20018142721806947  1.0000
  C   C13       1.0  0.953489741642393  0.9416135951090466  0.7223226445861215  1.0000
  C   C14       1.0  0.6176000569442268  0.5587682533205935  0.7774362486127088  1.0000
  C   C15       1.0  0.04650955013224939  0.0583838615241419  0.2776790129994779  1.0000
  C   C16       1.0  0.382398760393265  0.44123255690807633  0.22256411103960966  1.0000
  C   C17       1.0  0.013766049952025397  0.8226984530903252  0.7902732224667232  1.0000
  C   C18       1.0  0.6273193591791468  0.6774754724197436  0.7095584001484594  1.0000
  C   C19       1.0  0.9862316464503779  0.17730571073381898  0.2097251622320542  1.0000
  C   C20       1.0  0.3726822919030043  0.3225242199437659  0.2904410400675772  1.0000
  C   C21       1.0  0.9992783918122685  0.8922754984515109  0.8607721823148395  1.0000
  C   C22       1.0  0.7529109208045953  0.6077687547001105  0.6392499656701459  1.0000
  C   C23       1.0  0.0007215990963374081  0.10772419391199149  0.1392289180747355  1.0000
  C   C24       1.0  0.24709073027755574  0.392230937663399  0.3607494745458837  1.0000
  C   C25       1.0  0.3063274470887691  0.7799266963767408  0.4925227550524268  1.0000
  C   C26       1.0  0.5788858406572714  0.7196346390261894  0.007471429346750819  1.0000
  C   C27       1.0  0.6936747047485454  0.2200707602564478  0.5074773659887271  1.0000
  C   C28       1.0  0.4211113691427003  0.28036840693279425  0.992529356262814  1.0000
  C   C29       1.0  0.3462598544506291  0.9191881021543864  0.4628304787768655  1.0000
  C   C30       1.0  0.7289450359316944  0.5804626624612652  0.03712117427523507  1.0000
  C   C31       1.0  0.6537416245707346  0.0808082366136418  0.5371695823521492  1.0000
  C   C32       1.0  0.2710497740900382  0.4195403834977185  0.9628793640761301  1.0000
  C   C33       1.0  0.4692754238604095  0.9342859889918174  0.514816062155134  1.0000
  C   C34       1.0  0.918131459271912  0.5656956637109046  0.9852070375040965  1.0000
  C   C35       1.0  0.5307273076860922  0.0657125855065317  0.4851828883866816  1.0000
  C   C36       1.0  0.08186507771210931  0.4343062643829256  0.014793688193343302  1.0000
  O   O1        1.0  0.21412393970092577  0.2792203594145022  0.63067054855604  1.0000
  O   O2        1.0  0.12328933819708265  0.22052125991552166  0.8697264021746917  1.0000
  O   O3        1.0  0.7858764851740933  0.7207782150838469  0.3693293851390393  1.0000
  O   O4        1.0  0.8767089257492278  0.7794795503131482  0.1302745108688157  1.0000
  O   O5        1.0  0.048755303382236485  0.3435803280786516  0.5348815129867717  1.0000
  O   O6        1.0  0.9272497138190019  0.15620153439709838  0.9651823265932646  1.0000
  O   O7        1.0  0.9512451214927821  0.6564182464196975  0.46511842070830767  1.0000
  O   O8        1.0  0.0727491298365024  0.8438003936967249  0.0348174159509114  1.0000
  O   O9        1.0  0.8345412165375521  0.9417935713996428  0.9027911196749727  1.0000
  O   O10       1.0  0.6796658559671516  0.557833718047668  0.5971050602996044  1.0000
  O   O11       1.0  0.16545572809487638  0.0582061209638667  0.0972090564361281  1.0000
  O   O12       1.0  0.3203357687969872  0.442164856450681  0.4028949970245748  1.0000
  O   O13       1.0  0.14790892274687928  0.9018332455609438  0.8735862676181866  1.0000
  O   O14       1.0  0.9235613781286178  0.5985374242171062  0.626622546514902  1.0000
  O   O15       1.0  0.8520899209086253  0.0981686825328794  0.12641347492598948  1.0000
  O   O16       1.0  0.07644144652464764  0.4014611502812429  0.37337763443838407  1.0000
  O   O17       1.0  0.1542385046958331  0.7847033342011399  0.5367312303403579  1.0000
  O   O18       1.0  0.4748714289423718  0.7148691798533804  0.9633298442911736  1.0000
  O   O19       1.0  0.8457648207125887  0.2152930045668882  0.4632696314380453  1.0000
  O   O20       1.0  0.5251222742969972  0.2851338661056033  0.03667180084256219  1.0000
  O   O21       1.0  0.43402387693095784  0.6523078562300668  0.47403499385904263  1.0000
  O   O22       1.0  0.5608897869853137  0.8472981937792312  0.025957490207865412  1.0000
  O   O23       1.0  0.5659793816887131  0.3476896004031289  0.5259640203997477  1.0000
  O   O24       1.0  0.4391097031681356  0.1527037343145921  0.9740429293565922  1.0000
  O   O25       1.0  0.34624337135932887  0.5298658496347031  0.6513935088678409  1.0000
  O   O26       1.0  0.5264777933785754  0.9700028986869569  0.848765948352593  1.0000
  O   O27       1.0  0.6537576069068722  0.470132724863646  0.34860587143606386  1.0000
  O   O28       1.0  0.4735204968857473  0.0299990294068664  0.15123434758276488  1.0000
