data_image0
_chemical_formula_structural       Zn4H48C68N4O20
_chemical_formula_sum              "Zn4 H48 C68 N4 O20"
_cell_length_a       10.30285452179061
_cell_length_b       10.300868757465905
_cell_length_c       15.344
_cell_angle_alpha    75.38135541583154
_cell_angle_beta     75.38423575841514
_cell_angle_gamma    84.63723051567459

_space_group_name_H-M_alt    "P 1"
_space_group_IT_number       1

loop_
  _space_group_symop_operation_xyz
  'x, y, z'

loop_
  _atom_site_type_symbol
  _atom_site_label
  _atom_site_symmetry_multiplicity
  _atom_site_fract_x
  _atom_site_fract_y
  _atom_site_fract_z
  _atom_site_occupancy
  Zn  Zn1       1.0  0.48746918903273684  0.1781827091351502  0.9687352388644966  1.0000
  Zn  Zn2       1.0  0.8218158451697946  0.5125222182469003  0.531262290960946  1.0000
  Zn  Zn3       1.0  0.5125311683058484  0.8218174565886613  0.031264411823357825  1.0000
  Zn  Zn4       1.0  0.1781845121687837  0.48747794747691126  0.4687373597269088  1.0000
  H   H1        1.0  0.6021386997220333  0.2854715620910682  0.09714489418497864  1.0000
  H   H2        1.0  0.714524602966101  0.3978596092558604  0.40285773656818685  1.0000
  H   H3        1.0  0.397861657616545  0.7145286036327434  0.9028547565028759  1.0000
  H   H4        1.0  0.2854747513083069  0.6021405564679512  0.5971420840716491  1.0000
  H   H5        1.0  0.7667947550116594  0.4585119145466692  0.07867999886181555  1.0000
  H   H6        1.0  0.5414851369173164  0.2332048214500517  0.4213196600694432  1.0000
  H   H7        1.0  0.233205634241628  0.5414872473987558  0.9213198164916321  1.0000
  H   H8        1.0  0.45851421735709147  0.7667953442737598  0.5786801605703857  1.0000
  H   H9        1.0  0.7598149912469978  0.5802391158294569  0.7886169286800779  1.0000
  H   H10       1.0  0.4197649842200519  0.24018710391402462  0.7113804575187077  1.0000
  H   H11       1.0  0.24018436302741014  0.41976104989435475  0.21138354368029874  1.0000
  H   H12       1.0  0.5802353731185335  0.7598130618097869  0.2886191931691472  1.0000
  H   H13       1.0  0.5847288793283312  0.4126312120074118  0.8218232647176364  1.0000
  H   H14       1.0  0.5873702051703447  0.415273156723508  0.6781765412243033  1.0000
  H   H15       1.0  0.4152704749460767  0.5873689537163997  0.17817655592219236  1.0000
  H   H16       1.0  0.4126291491040631  0.5847270090003036  0.3218232794155327  1.0000
  H   H17       1.0  0.053917792396930515  0.7573768916631423  0.6458247354117788  1.0000
  H   H18       1.0  0.24262280507582548  0.9460812058568492  0.8541758767315885  1.0000
  H   H19       1.0  0.9460825968563569  0.2426222702822827  0.35417573166220967  1.0000
  H   H20       1.0  0.7573775841774619  0.0539179560885685  0.1458239386218594  1.0000
  H   H21       1.0  0.06967525319538481  0.7736140108605554  0.9209890489416354  1.0000
  H   H22       1.0  0.2263866733989843  0.9303238927287083  0.5790113708631567  1.0000
  H   H23       1.0  0.9303251041431936  0.2263861548632562  0.07901125346675998  1.0000
  H   H24       1.0  0.773613715854303  0.0696752692167166  0.4209890962108318  1.0000
  H   H25       1.0  0.8425458063184906  0.7235917186941592  0.934262362072161  1.0000
  H   H26       1.0  0.27641645635750933  0.1574556892101242  0.565737042167143  1.0000
  H   H27       1.0  0.15745354795591743  0.2764084470296524  0.06573745856767493  1.0000
  H   H28       1.0  0.7235828979168987  0.8425444765136874  0.4342634301932335  1.0000
  H   H29       1.0  0.9603322963669783  0.5885122572998469  0.9560511960897884  1.0000
  H   H30       1.0  0.4114848469077685  0.0396612916498498  0.5439494685439996  1.0000
  H   H31       1.0  0.039667057907429595  0.4114879084239647  0.04394927627058822  1.0000
  H   H32       1.0  0.5885145073666394  0.9603388740739618  0.45605100381637703  1.0000
  H   H33       1.0  0.2177738130201377  0.3923799830380901  0.7294490481325013  1.0000
  H   H34       1.0  0.607619835428288  0.7822183991988396  0.7705500862810055  1.0000
  H   H35       1.0  0.7822255412542702  0.6076201826857215  0.2705514242278753  1.0000
  H   H36       1.0  0.39238152497446066  0.21778176652497186  0.22944939445486773  1.0000
  H   H37       1.0  0.0673735386255245  0.1063894675206498  0.9850654935590698  1.0000
  H   H38       1.0  0.8936060095930572  0.9326235490146361  0.51493811240951  1.0000
  H   H39       1.0  0.932626882542472  0.8936086906463885  0.0149344864599713  1.0000
  H   H40       1.0  0.10639638578857809  0.0673756129307819  0.48506266648105634  1.0000
  H   H41       1.0  0.8477626214741465  0.1066374007823825  0.9413218700037831  1.0000
  H   H42       1.0  0.8933633078002005  0.1522440718218334  0.5586792220691096  1.0000
  H   H43       1.0  0.15223776777914114  0.8933617611630423  0.05867794534966462  1.0000
  H   H44       1.0  0.1066380845172574  0.8477550901235915  0.4413210750529046  1.0000
  H   H45       1.0  0.8179029872068072  0.2477345136101974  0.7918404676119978  1.0000
  H   H46       1.0  0.7522685686945962  0.1821114977441169  0.708159553833042  1.0000
  H   H47       1.0  0.18209633515289173  0.7522666558920008  0.20815918836224512  1.0000
  H   H48       1.0  0.24773078557981165  0.8178886679796945  0.29183961508625345  1.0000
  C   C1        1.0  0.638260621648989  0.3552381751410536  0.030568605225333608  1.0000
  C   C2        1.0  0.6447604290494198  0.3617386439789883  0.4694321467296306  1.0000
  C   C3        1.0  0.3617387326254189  0.644761990582758  0.9694312154144953  1.0000
  C   C4        1.0  0.3552389252249881  0.6382615217448233  0.5305676739102053  1.0000
  C   C5        1.0  0.7319144810439582  0.4505529557115935  0.018886754084590503  1.0000
  C   C6        1.0  0.5494458389432637  0.2680851166398881  0.4811139093383048  1.0000
  C   C7        1.0  0.2680848732304426  0.5494472100122181  0.9811130665552454  1.0000
  C   C8        1.0  0.4505535153311442  0.7319150490839235  0.5188865630220719  1.0000
  C   C9        1.0  0.7267662338608076  0.519218423870413  0.8584885130655309  1.0000
  C   C10       1.0  0.4807878156607472  0.273236507324917  0.6415103563387206  1.0000
  C   C11       1.0  0.27323312041360026  0.4807817418533986  0.1415119592948457  1.0000
  C   C12       1.0  0.5192115386136607  0.7267636583988946  0.3584894643011155  1.0000
  C   C13       1.0  0.6306482431192749  0.4245852088250359  0.8757376395988388  1.0000
  C   C14       1.0  0.5754222166533011  0.3693543106055159  0.6242597571879999  1.0000
  C   C15       1.0  0.3693511111551331  0.5754149568987756  0.12426218104099719  1.0000
  C   C16       1.0  0.42457713762110666  0.6306458551182956  0.37574006345183625  1.0000
  C   C17       1.0  0.7806621565033539  0.5322705542440431  0.9305414322244019  1.0000
  C   C18       1.0  0.46772718418853293  0.2193436456960356  0.569455752026535  1.0000
  C   C19       1.0  0.21933719777105412  0.4677296114797684  0.06945838841542701  1.0000
  C   C20       1.0  0.532272170085875  0.780656520027776  0.430544068613294  1.0000
  C   C21       1.0  0.0491190453702615  0.7559284394498746  0.7869399156058918  1.0000
  C   C22       1.0  0.2440711431861757  0.9508792665494568  0.7130614838783061  1.0000
  C   C23       1.0  0.9508823469471964  0.2440707224955503  0.21306038151612233  1.0000
  C   C24       1.0  0.7559292460671118  0.0491198953959682  0.2869389831956823  1.0000
  C   C25       1.0  0.09532355191712581  0.7998638194740195  0.6909295138925202  1.0000
  C   C26       1.0  0.20013647748260152  0.9046753473693983  0.8090710133225869  1.0000
  C   C27       1.0  0.9046768373361687  0.2001353424714054  0.3090709531814682  1.0000
  C   C28       1.0  0.7998649148348561  0.0953238145760267  0.19092863207887936  1.0000
  C   C29       1.0  0.1025800130480476  0.8078047102981216  0.8460618310149429  1.0000
  C   C30       1.0  0.19219522510242368  0.897419033405619  0.6539387325246865  1.0000
  C   C31       1.0  0.8974203762052468  0.1921944516473033  0.1539386360590456  1.0000
  C   C32       1.0  0.8078051641508707  0.10258012853980601  0.346061734549302  1.0000
  C   C33       1.0  0.8877190949360312  0.6310513815868788  0.913331298674187  1.0000
  C   C34       1.0  0.368946926031427  0.11228465799087671  0.586666136352008  1.0000
  C   C35       1.0  0.11228025933837668  0.3689487841369328  0.08666852196564892  1.0000
  C   C36       1.0  0.631052428242981  0.8877155077329347  0.4133336842878208  1.0000
  C   C37       1.0  0.1541707364324054  0.2514153689574314  0.8608789475813269  1.0000
  C   C38       1.0  0.7485842299840827  0.8458268318410589  0.6391225751382591  1.0000
  C   C39       1.0  0.8458286178420026  0.7485847967663801  0.13912152477904274  1.0000
  C   C40       1.0  0.2514171304186661  0.1541733338827527  0.36087755731816173  1.0000
  C   C41       1.0  0.1366100721438315  0.3300343036074409  0.7755916765343116  1.0000
  C   C42       1.0  0.6699675878476158  0.8633829158397432  0.7244050200453103  1.0000
  C   C43       1.0  0.8633902851947469  0.6699658621163707  0.2244086258740836  1.0000
  C   C44       1.0  0.3300327694909626  0.1366172498840683  0.2755952823630921  1.0000
  C   C45       1.0  0.05062190809515241  0.1694689089526165  0.9200829611527652  1.0000
  C   C46       1.0  0.8305303915829256  0.9493735989680943  0.5799183096426788  1.0000
  C   C47       1.0  0.9493774780939646  0.8305302529928086  0.07991767587320449  1.0000
  C   C48       1.0  0.16947203571341157  0.0506245591989369  0.4200819821929471  1.0000
  C   C49       1.0  0.9292775536861697  0.1693263724215797  0.895546453388647  1.0000
  C   C50       1.0  0.8306725481320782  0.0707312440804486  0.6044565402302595  1.0000
  C   C51       1.0  0.0707218005882382  0.830673793302232  0.10445271553064121  1.0000
  C   C52       1.0  0.1693288441853795  0.9292679178649762  0.3955437568917476  1.0000
  C   C53       1.0  0.9124922991272728  0.2480386584616312  0.8106157656851138  1.0000
  C   C54       1.0  0.751967134069993  0.0875144187206942  0.6893825056784737  1.0000
  C   C55       1.0  0.08750705514713532  0.7519615072621804  0.18938405495471505  1.0000
  C   C56       1.0  0.2480332232685853  0.9124857470031175  0.3106171450093811  1.0000
  C   C57       1.0  0.016655553399346004  0.3269135566004735  0.7491897112820638  1.0000
  C   C58       1.0  0.6730865128887942  0.9833484860523356  0.7508093318403155  1.0000
  C   C59       1.0  0.983343800875062  0.6730866091233381  0.25081076107831274  1.0000
  C   C60       1.0  0.3269138444497841  0.016651679671476  0.2491903188475391  1.0000
  C   C61       1.0  0.0013620673250259  0.4033161485707168  0.6552793849004955  1.0000
  C   C62       1.0  0.5966864853650691  0.9986380384518725  0.844717283331903  1.0000
  C   C63       1.0  0.9986373188640909  0.5966830133747081  0.34471994868438566  1.0000
  C   C64       1.0  0.4033139038882183  0.0013611234935524  0.15528253202153766  1.0000
  C   C65       1.0  0.2850052123106508  0.2526520239309278  0.8864768693519025  1.0000
  C   C66       1.0  0.7473466324876482  0.7149903416910277  0.6135225474635462  1.0000
  C   C67       1.0  0.7149941419637571  0.7473481417928838  0.11352360300847412  1.0000
  C   C68       1.0  0.25265372485093  0.2850098240327839  0.3864771032243084  1.0000
  N   N1        1.0  0.589392516085212  0.3410989527736774  0.9598435662515925  1.0000
  N   N2        1.0  0.6589035807632514  0.4106085985564434  0.5401581618212178  1.0000
  N   N3        1.0  0.41060683818919586  0.6589012129501342  0.040156906108784085  1.0000
  N   N4        1.0  0.34109674466061785  0.5893925709457548  0.45984132420104373  1.0000
  O   O1        1.0  0.3728034752857639  0.3342341123810542  0.837453724025572  1.0000
  O   O2        1.0  0.6657665680395155  0.6271868347947134  0.6625442831882041  1.0000
  O   O3        1.0  0.627195878988644  0.6657660533427574  0.16254740005534526  1.0000
  O   O4        1.0  0.33423275432018335  0.3728143347074848  0.3374560245065794  1.0000
  O   O5        1.0  0.3007864407978431  0.1646317009028948  0.9612184971209389  1.0000
  O   O6        1.0  0.8353595346890829  0.699214960551906  0.5387864000577308  1.0000
  O   O7        1.0  0.6992129453912738  0.8353674610425302  0.03878213990502391  1.0000
  O   O8        1.0  0.1646408545642046  0.3007842013935189  0.46121341529570975  1.0000
  O   O9        1.0  0.0969480865056553  0.4779902341575593  0.6033080407664999  1.0000
  O   O10       1.0  0.5220114159685211  0.9030452112679795  0.8966886442135689  1.0000
  O   O11       1.0  0.9030512677687526  0.5220099315662523  0.39669177987333637  1.0000
  O   O12       1.0  0.47798997634894397  0.0969539506774453  0.10331100118789749  1.0000
  O   O13       1.0  0.8941757802083928  0.3878469198398022  0.6320038367398837  1.0000
  O   O14       1.0  0.6121552436203858  0.1058373894074833  0.8679978666895637  1.0000
  O   O15       1.0  0.10582457713018559  0.6121532458840093  0.36799516222742307  1.0000
  O   O16       1.0  0.3878441425687313  0.8941617725379417  0.1320021186158584  1.0000
  O   O17       1.0  0.9522824113487331  0.6607039989342169  0.8171744674943824  1.0000
  O   O18       1.0  0.33929498732609187  0.0477166132101345  0.6828262605704296  1.0000
  O   O19       1.0  0.0477179459898451  0.3392961667895946  0.1828251831934722  1.0000
  O   O20       1.0  0.6607053700124865  0.952283552513677  0.31717404183796555  1.0000
