data_image0
_chemical_formula_structural       Ag6H44C22S6N14
_chemical_formula_sum              "Ag6 H44 C22 S6 N14"
_cell_length_a       8.729884122678147
_cell_length_b       9.65297989743359
_cell_length_c       12.263730912240504
_cell_angle_alpha    71.88481667283583
_cell_angle_beta     75.5800216961853
_cell_angle_gamma    82.38807836850116

_space_group_name_H-M_alt    "P 1"
_space_group_IT_number       1

loop_
  _space_group_symop_operation_xyz
  'x, y, z'

loop_
  _atom_site_type_symbol
  _atom_site_label
  _atom_site_symmetry_multiplicity
  _atom_site_fract_x
  _atom_site_fract_y
  _atom_site_fract_z
  _atom_site_occupancy
  Ag  Ag1       1.0  0.07588772962004953  0.8832099929774839  0.953236202172015  1.0000
  Ag  Ag2       1.0  0.9241145184647406  0.11679042210706568  0.04676705827561282  1.0000
  Ag  Ag3       1.0  0.21846197034773238  0.15067941034794788  0.4554196037439768  1.0000
  Ag  Ag4       1.0  0.7815351378313264  0.8493275043624704  0.5445804434801645  1.0000
  Ag  Ag5       1.0  0.290967410214499  0.39674554886698826  0.570638873538151  1.0000
  Ag  Ag6       1.0  0.7090370840002719  0.6032570088424405  0.429361006874892  1.0000
  H   H1        1.0  0.09801240632292259  0.10137141854978887  0.28496650618774316  1.0000
  H   H2        1.0  0.9019850300257556  0.8986300963118691  0.7150381210659091  1.0000
  H   H3        1.0  0.9455994699460529  0.10542176978984938  0.3936230078662178  1.0000
  H   H4        1.0  0.05439564464295186  0.8945796675263082  0.6063779627150795  1.0000
  H   H5        1.0  0.12146255354372217  0.7169586349511617  0.17954856935627828  1.0000
  H   H6        1.0  0.8785411036140969  0.2830384915477068  0.820454469366915  1.0000
  H   H7        1.0  0.3186679009627865  0.801961803345314  0.7837886854858598  1.0000
  H   H8        1.0  0.681335265461108  0.198042936300645  0.21621086883701685  1.0000
  H   H9        1.0  0.4004294052791123  0.35987861665248727  0.7675693936614325  1.0000
  H   H10       1.0  0.599569411021207  0.6401206273412754  0.2324306802807073  1.0000
  H   H11       1.0  0.5479818813241906  0.399383433496709  0.6505933722422625  1.0000
  H   H12       1.0  0.4520190476631852  0.6006191487024636  0.3494087488815795  1.0000
  H   H13       1.0  0.884110036058679  0.3454519662013169  0.32898557726102956  1.0000
  H   H14       1.0  0.1158861159664326  0.6545516564873849  0.6710146577343892  1.0000
  H   H15       1.0  0.9446186699231517  0.29137778722888186  0.1979552583059246  1.0000
  H   H16       1.0  0.0553776824811152  0.7086225896218108  0.802047399413759  1.0000
  H   H17       1.0  0.22527297622411882  0.3631238426624391  0.18634763464513074  1.0000
  H   H18       1.0  0.7747235387444533  0.6368743208899301  0.8136539274453513  1.0000
  H   H19       1.0  0.13480511463153275  0.44669842516236  0.2985686590885592  1.0000
  H   H20       1.0  0.8651936929753246  0.5533008336532959  0.7014322280871925  1.0000
  H   H21       1.0  0.07406076016196289  0.521712043541406  0.05044710676087049  1.0000
  H   H22       1.0  0.9259391574696918  0.47828830881953616  0.949553310248014  1.0000
  H   H23       1.0  0.9365544801736404  0.5800823688238879  0.16183606223529523  1.0000
  H   H24       1.0  0.0634441822558358  0.4199190736463122  0.838164294102434  1.0000
  H   H25       1.0  0.3730514127199739  0.560533647284636  0.11894846296487324  1.0000
  H   H26       1.0  0.6269476387333485  0.4394622915835382  0.8810507807670762  1.0000
  H   H27       1.0  0.3738753890095125  0.7520230523693809  0.08147995124977579  1.0000
  H   H28       1.0  0.6261271755104331  0.24797295094041508  0.9185219311730608  1.0000
  H   H29       1.0  0.5008970009006716  0.646900636132706  0.9150425672578921  1.0000
  H   H30       1.0  0.4991019692704911  0.35309640938462644  0.08495722428866505  1.0000
  H   H31       1.0  0.31577364675311503  0.586150692831012  0.9203543272329998  1.0000
  H   H32       1.0  0.6842237778611064  0.4138518101046458  0.0796443419663504  1.0000
  H   H33       1.0  0.560670727511038  0.8848088751670246  0.7879384729942986  1.0000
  H   H34       1.0  0.4393339323090329  0.1151904959919747  0.21206708307747146  1.0000
  H   H35       1.0  0.46204837654259007  0.9315068574718308  0.9181589416854836  1.0000
  H   H36       1.0  0.5379514250330644  0.06849466082585559  0.08184527607245681  1.0000
  H   H37       1.0  0.28380730731241494  0.11251537724734816  0.8148002746792288  1.0000
  H   H38       1.0  0.7161972594910464  0.887486088634816  0.18519987115283232  1.0000
  H   H39       1.0  0.3597297285291816  0.06233126335834529  0.6833607802270265  1.0000
  H   H40       1.0  0.6402739373220925  0.9376658483186303  0.3166414452625547  1.0000
  H   H41       1.0  0.5798853109087218  0.16206953978531388  0.798404756903054  1.0000
  H   H42       1.0  0.4201203194112323  0.8379340670037149  0.201592213642286  1.0000
  H   H43       1.0  0.6108429179115261  0.16153677222354187  0.6504411905378548  1.0000
  H   H44       1.0  0.3891592371566474  0.8384657375841723  0.34955665967006433  1.0000
  C   C1        1.0  0.9863677477469395  0.3044904391420502  0.27211006525163123  1.0000
  C   C2        1.0  0.013627512019446883  0.6955088145195703  0.7278914361676955  1.0000
  C   C3        1.0  0.11359176678404027  0.4149409171234239  0.22486733474300993  1.0000
  C   C4        1.0  0.8864047481845245  0.5850572464289456  0.7751342273474721  1.0000
  C   C5        1.0  0.06265467678123567  0.5494427842244675  0.13270909341195392  1.0000
  C   C6        1.0  0.9373452321569573  0.45055758295836745  0.8672921368305425  1.0000
  C   C7        1.0  0.3222864526929428  0.6631905724489184  0.06721872055902625  1.0000
  C   C8        1.0  0.67771607401216  0.3368064634005633  0.9327796435103367  1.0000
  C   C9        1.0  0.37176401800995507  0.6704672252661439  0.9373102697931301  1.0000
  C   C10       1.0  0.6282370909286498  0.3295331139909194  0.06268912923428621  1.0000
  C   C11       1.0  0.4452047770284366  0.9229828037072704  0.8345796752719896  1.0000
  C   C12       1.0  0.5547986623632964  0.0770175982734003  0.16542256719416326  1.0000
  C   C13       1.0  0.391672325334504  0.0718854566674736  0.7620476239635254  1.0000
  C   C14       1.0  0.6083323866463386  0.9281138255601531  0.23795305270655845  1.0000
  C   C15       1.0  0.5202984582964659  0.1799421672320847  0.7253427062925014  1.0000
  C   C16       1.0  0.479703824562172  0.8200581885648857  0.27465730122067106  1.0000
  C   C17       1.0  0.5964302500507797  0.17128936846636117  0.4288078906679687  1.0000
  C   C18       1.0  0.403562316319018  0.8287152816079839  0.5711894402175518  1.0000
  C   C19       1.0  0.9101846162805598  0.33323069050116044  0.583967433909571  1.0000
  C   C20       1.0  0.08981035617205177  0.6667719572174206  0.41603977712162543  1.0000
  C   C21       1.0  0.7451292403265766  0.7920666160949066  0.9965333682401794  1.0000
  C   C22       1.0  0.2548712232407694  0.20792506093547292  0.0034724250552642284  1.0000
  S   S1        1.0  0.4651306085696731  0.29756104928363664  0.3789595175768953  1.0000
  S   S2        1.0  0.5348617778488957  0.7024458437328319  0.621040535405058  1.0000
  S   S3        1.0  0.04001488995362478  0.21770490527251948  0.6467367361088706  1.0000
  S   S4        1.0  0.9599815902410995  0.7822933175674223  0.3532680789160665  1.0000
  S   S5        1.0  0.8154918377020833  0.950079735170625  0.9102324280379223  1.0000
  S   S6        1.0  0.18450840809918387  0.0499152173415638  0.08977256900048051  1.0000
  N   N1        1.0  0.04280043909042059  0.16094114470308796  0.3416988759432585  1.0000
  N   N2        1.0  0.9571934116029368  0.8390613975442134  0.6583028472004955  1.0000
  N   N3        1.0  0.14952740004658688  0.6808783294818355  0.10633334236252516  1.0000
  N   N4        1.0  0.8504749380138178  0.3191209641316631  0.8936685570368824  1.0000
  N   N5        1.0  0.32723796929948884  0.8146050697956966  0.8617106251789652  1.0000
  N   N6        1.0  0.6727642961722251  0.18539531564506723  0.13829100880143133  1.0000
  N   N7        1.0  0.4557218854656355  0.33294216115704955  0.691571192577584  1.0000
  N   N8        1.0  0.5442792060860454  0.6670582077438069  0.30842983291705656  1.0000
  N   N9        1.0  0.6946459450941161  0.08119379943165228  0.46077742582527065  1.0000
  N   N10       1.0  0.3053506946239182  0.9188031833620726  0.5392195222825367  1.0000
  N   N11       1.0  0.8141537725444578  0.4166833381916318  0.5418138015690062  1.0000
  N   N12       1.0  0.18584332998213432  0.583322618088573  0.45819383017666865  1.0000
  N   N13       1.0  0.6935181245650311  0.6794527059558816  0.0572958443452408  1.0000
  N   N14       1.0  0.30648240289754364  0.320537894069126  0.9427110276028262  1.0000
