data_image0
_chemical_formula_structural       Mo4H36C52S4N4O16F24
_chemical_formula_sum              "Mo4 H36 C52 S4 N4 O16 F24"
_cell_length_a       13.199048520038101
_cell_length_b       13.19539949034674
_cell_length_c       14.81636617394954
_cell_angle_alpha    100.37969166038015
_cell_angle_beta     105.36057074901052
_cell_angle_gamma    120.05062649932051

_space_group_name_H-M_alt    "P 1"
_space_group_IT_number       1

loop_
  _space_group_symop_operation_xyz
  'x, y, z'

loop_
  _atom_site_type_symbol
  _atom_site_label
  _atom_site_symmetry_multiplicity
  _atom_site_fract_x
  _atom_site_fract_y
  _atom_site_fract_z
  _atom_site_occupancy
  Mo  Mo1       1.0  0.024449098911226506  0.5772358212874594  0.47459153452734176  1.0000
  Mo  Mo2       1.0  0.6026215476129764  0.5497823799321679  0.025370149139476442  1.0000
  Mo  Mo3       1.0  0.9755203901939499  0.4227471530499543  0.5253887644517692  1.0000
  Mo  Mo4       1.0  0.39737433117839777  0.4502215132871756  0.9746352187884854  1.0000
  H   H1        1.0  0.3936110722576559  0.251178223794831  0.45948333288277615  1.0000
  H   H2        1.0  0.29143533859738824  0.9338974905789713  0.04034134800674854  1.0000
  H   H3        1.0  0.6063868376999153  0.748823721376425  0.5405134442181067  1.0000
  H   H4        1.0  0.7085685899673564  0.0661120174292904  0.9596587135404278  1.0000
  H   H5        1.0  0.2341792307258644  0.1117259030034674  0.39360642705474197  1.0000
  H   H6        1.0  0.21790732787108186  0.8402757121263777  0.10617582884371066  1.0000
  H   H7        1.0  0.7658224232140398  0.8882703646753994  0.6063869901521174  1.0000
  H   H8        1.0  0.7821009003160598  0.15972906273267282  0.8938211518534589  1.0000
  H   H9        1.0  0.3136366878172153  0.19675873327096838  0.3264964389992003  1.0000
  H   H10       1.0  0.3701386000284758  0.9869026462882717  0.1733379880836311  1.0000
  H   H11       1.0  0.6863631628908992  0.8032384892772558  0.6734987201885547  1.0000
  H   H12       1.0  0.6298722200954217  0.013101210483199602  0.8266621693483956  1.0000
  H   H13       1.0  0.28933161424722453  0.7218048861955283  0.3367866202439205  1.0000
  H   H14       1.0  0.8847917648311496  0.9519451427893629  0.16270724461667643  1.0000
  H   H15       1.0  0.7106760579980502  0.27819893928402456  0.6632094056140687  1.0000
  H   H16       1.0  0.11521192993235023  0.048049338003416216  0.8372992072086165  1.0000
  H   H17       1.0  0.4200467906804947  0.7668710735064155  0.30264528650406686  1.0000
  H   H18       1.0  0.9637794362829198  0.11684646231296374  0.1969301972028604  1.0000
  H   H19       1.0  0.579962779437338  0.23313464218710325  0.6973514855914686  1.0000
  H   H20       1.0  0.03622773014154745  0.883149921821584  0.8030787287494194  1.0000
  H   H21       1.0  0.2747592059852766  0.7326997524689605  0.21705982535490173  1.0000
  H   H22       1.0  0.015202907707291005  0.05713750062584921  0.28252259520259326  1.0000
  H   H23       1.0  0.7252490209946885  0.26730500224483933  0.7829344521615698  1.0000
  H   H24       1.0  0.9848010186121458  0.942856047423959  0.7174851173185816  1.0000
  H   H25       1.0  0.614303895415759  0.920562096414557  0.4176632339780754  1.0000
  H   H26       1.0  0.003055228018297394  0.19666980144147325  0.08238906945519632  1.0000
  H   H27       1.0  0.3857073404151025  0.0794464321632802  0.5823316720687899  1.0000
  H   H28       1.0  0.9969464861346042  0.8033360651744702  0.9176281223856223  1.0000
  H   H29       1.0  0.7171418904322169  0.08715980390108771  0.47849457327038186  1.0000
  H   H30       1.0  0.10879697958615253  0.23876516818199892  0.021581267064426927  1.0000
  H   H31       1.0  0.28286541243657853  0.9128487170387987  0.5214993920287797  1.0000
  H   H32       1.0  0.8912055187448047  0.7612406596710244  0.9784307065645592  1.0000
  H   H33       1.0  0.667163298274197  0.017661219363553502  0.34757684165727915  1.0000
  H   H34       1.0  0.17024544176280904  0.31955413989453524  0.15254715602082314  1.0000
  H   H35       1.0  0.3328474753501854  0.9823491898091636  0.6524175703833424  1.0000
  H   H36       1.0  0.8297613589066942  0.6804470001361055  0.8474678189147014  1.0000
  C   C1        1.0  0.3782754435034264  0.08813179850041311  0.3777329784159066  1.0000
  C   C2        1.0  0.21032985841791432  0.0003793544702972001  0.12213290674932151  1.0000
  C   C3        1.0  0.6217298686628185  0.9118720173600539  0.6222618071982852  1.0000
  C   C4        1.0  0.7896738844868308  0.999624523807057  0.8778702879030221  1.0000
  C   C5        1.0  0.3103357097532683  0.9576055375491354  0.33300649291851425  1.0000
  C   C6        1.0  0.12446940579589243  0.9770664551320253  0.16672624742192013  1.0000
  C   C7        1.0  0.6896703908161541  0.04239831005679661  0.6669925356162523  1.0000
  C   C8        1.0  0.8755349365322901  0.022931769760461407  0.8332768895092784  1.0000
  C   C9        1.0  0.3916263953286289  0.913372309493205  0.3406234579757808  1.0000
  C   C10       1.0  0.07265964585078422  0.050767569871347014  0.1591805433124094  1.0000
  C   C11       1.0  0.6083818319531319  0.08663245025690713  0.6593714953358685  1.0000
  C   C12       1.0  0.9273404394311983  0.949228770297033  0.8408226345229581  1.0000
  C   C13       1.0  0.5203143177025567  0.012175284308384004  0.38882044189971054  1.0000
  C   C14       1.0  0.12333120397197211  0.13136424515828793  0.11109179360131803  1.0000
  C   C15       1.0  0.47969220038459076  0.9878332653217897  0.6111773900209415  1.0000
  C   C16       1.0  0.8766693006385043  0.8686368272522036  0.8889142423909678  1.0000
  C   C17       1.0  0.16956302364007309  0.8728652618654706  0.2854333927023235  1.0000
  C   C18       1.0  0.0873282624743652  0.8838812283930936  0.21425241571041204  1.0000
  C   C19       1.0  0.8304413183863204  0.12713295799069615  0.714569068433704  1.0000
  C   C20       1.0  0.9126782083769245  0.11611793886144284  0.7857507007687091  1.0000
  C   C21       1.0  0.11324862746886326  0.7756971023643688  0.32282827298507044  1.0000
  C   C22       1.0  0.9527320790266247  0.7902464492476614  0.17695922869202735  1.0000
  C   C23       1.0  0.8867569612438616  0.2242992031703182  0.6771701397405323  1.0000
  C   C24       1.0  0.04727114960707011  0.20974984666794683  0.8230379437897853  1.0000
  C   C25       1.0  0.3279510155583908  0.16625711969188475  0.3902104693687747  1.0000
  C   C26       1.0  0.2758802538039833  0.937499766225635  0.10962232129728029  1.0000
  C   C27       1.0  0.6720507330222747  0.8337419930703052  0.6097854360565336  1.0000
  C   C28       1.0  0.7241264027072987  0.0625050307598016  0.8903776620766664  1.0000
  C   C29       1.0  0.3414366326103321  0.7770568940707677  0.29736934983944263  1.0000
  C   C30       1.0  0.9794082928953787  0.043597635590146004  0.2022353696487542  1.0000
  C   C31       1.0  0.6585713649262601  0.22294882864019885  0.7026283975473576  1.0000
  C   C32       1.0  0.02059438492695172  0.9563977965632662  0.7977723365118125  1.0000
  C   C33       1.0  0.6355555697394524  0.009035796087594902  0.4089633012043025  1.0000
  C   C34       1.0  0.10019635838725804  0.22660549580746195  0.09105223905362445  1.0000
  C   C35       1.0  0.3644509471405187  0.9909727333973282  0.591031827535659  1.0000
  C   C36       1.0  0.8998081768439833  0.7733984796874227  0.9089639838565517  1.0000
  C   C37       1.0  0.19462050411510032  0.6659861464220287  0.6831291127257729  1.0000
  C   C38       1.0  0.4827597196696871  0.5119628067225221  0.8169997494663052  1.0000
  C   C39       1.0  0.8053461148651095  0.33398930644293057  0.3168533849714096  1.0000
  C   C40       1.0  0.5172482380068502  0.4880495791885622  0.18300712002290004  1.0000
  C   C41       1.0  0.30135651227544735  0.7575276430055031  0.7895409850958687  1.0000
  C   C42       1.0  0.46800601537960773  0.5122907785119041  0.7106241958300501  1.0000
  C   C43       1.0  0.6986176914227545  0.24243933521218258  0.21044201159793374  1.0000
  C   C44       1.0  0.5320158277336092  0.4877292006210042  0.2893898669863973  1.0000
  C   C45       1.0  0.8386974260626658  0.5342366931108062  0.558164118162793  1.0000
  C   C46       1.0  0.4757257308923428  0.28027131578044623  0.9416425054440084  1.0000
  C   C47       1.0  0.16129720242084744  0.46576905399427204  0.44183718863351373  1.0000
  C   C48       1.0  0.5242786625950231  0.7197363569597358  0.058364132265971654  1.0000
  C   C49       1.0  0.746329938179777  0.5506271672149554  0.5930647198303874  1.0000
  C   C50       1.0  0.45695437850103815  0.15281647210294844  0.9067403820118471  1.0000
  C   C51       1.0  0.2536694134797415  0.4493786494914005  0.4069458254052521  1.0000
  C   C52       1.0  0.5430478837470789  0.8471902129483627  0.09326019399365768  1.0000
  S   S1        1.0  0.5403382837356858  0.15546636831491878  0.42649889579065814  1.0000
  S   S2        1.0  0.22895702682131971  0.11375337235806879  0.0734675500336266  1.0000
  S   S3        1.0  0.45966679778000946  0.844538395397464  0.5734966565131644  1.0000
  S   S4        1.0  0.7710440331274315  0.8862486393592949  0.9265380892074903  1.0000
  N   N1        1.0  0.0714562349751802  0.7047117129809309  0.3618984043518979  1.0000
  N   N2        1.0  0.8426181761990108  0.7095439795687285  0.1380378604779296  1.0000
  N   N3        1.0  0.9285276449529434  0.29527036618273433  0.6380878936051957  1.0000
  N   N4        1.0  0.15738111977441355  0.2904523137452486  0.861959047051343  1.0000
  O   O1        1.0  0.17683212640091042  0.7111568430226003  0.6158713122842274  1.0000
  O   O2        1.0  0.5951679466099692  0.5612647513597295  0.8842298099366915  1.0000
  O   O3        1.0  0.8231451351947995  0.28882332165262176  0.3841110831525469  1.0000
  O   O4        1.0  0.4048371921007858  0.4387495609266028  0.11578275904936677  1.0000
  O   O5        1.0  0.12724820324989158  0.5497560473110216  0.6697038852318828  1.0000
  O   O6        1.0  0.3799549685557866  0.45795863908684725  0.8303739109136786  1.0000
  O   O7        1.0  0.8727093037234468  0.450221314672156  0.33028213097064457  1.0000
  O   O8        1.0  0.6200487725381905  0.5420452089726311  0.16962522896763238  1.0000
  O   O9        1.0  0.9009468607955428  0.6086633865071108  0.5189736149176767  1.0000
  O   O10       1.0  0.5894158127463386  0.3816812796764141  0.9807899837383758  1.0000
  O   O11       1.0  0.0990445257721788  0.39133949429534454  0.4810224236764995  1.0000
  O   O12       1.0  0.4105837692619333  0.6183235841417201  0.019219119012454773  1.0000
  O   O13       1.0  0.8470126337698148  0.4453913329905961  0.5709897052096268  1.0000
  O   O14       1.0  0.3741828985442624  0.27593066317031406  0.9288899536475769  1.0000
  O   O15       1.0  0.15296801403267332  0.5546039657367033  0.42900056845064694  1.0000
  O   O16       1.0  0.6258174682456572  0.7240741719575328  0.07111528248176317  1.0000
  F   F1        1.0  0.39326548563203545  0.8680289889771302  0.7891222769791852  1.0000
  F   F2        1.0  0.5789328066854509  0.6047816402057792  0.7112072210878396  1.0000
  F   F3        1.0  0.6067127358788299  0.1319247560955645  0.21085490477546642  1.0000
  F   F4        1.0  0.4210998125059505  0.3952232928074083  0.28881045973893293  1.0000
  F   F5        1.0  0.2496851631133764  0.7846295090466952  0.8509790116956426  1.0000
  F   F6        1.0  0.43388790073557715  0.3991706617191256  0.6493118643423018  1.0000
  F   F7        1.0  0.7502883036426198  0.21534689030954016  0.14900391865153753  1.0000
  F   F8        1.0  0.5660961326700901  0.6008397609876256  0.3506849359511294  1.0000
  F   F9        1.0  0.3586435962708381  0.7058711788916201  0.8310697955321518  1.0000
  F   F10       1.0  0.374743006204831  0.5278467215677624  0.6688347391718638  1.0000
  F   F11       1.0  0.641322326701655  0.29409112735275045  0.16891859843690335  1.0000
  F   F12       1.0  0.6253007357108588  0.47220910887970297  0.331185384900131  1.0000
  F   F13       1.0  0.7579405290194288  0.5376158165421502  0.6836021611723738  1.0000
  F   F14       1.0  0.3528895409602769  0.0735987595331906  0.8164719760497051  1.0000
  F   F15       1.0  0.2420634913371772  0.4623805665183626  0.3164066879769152  1.0000
  F   F16       1.0  0.6471173946445958  0.926414492121218  0.1835246592568255  1.0000
  F   F17       1.0  0.7700744495255166  0.665265895504156  0.6029935636953072  1.0000
  F   F18       1.0  0.5612721995751784  0.1662801394407936  0.8962886094967786  1.0000
  F   F19       1.0  0.22993041129883102  0.33473998225844787  0.3970250565388582  1.0000
  F   F20       1.0  0.4387317745837011  0.8337228010572777  0.10371517005627615  1.0000
  F   F21       1.0  0.6212798857210302  0.4608277634234597  0.525985583767195  1.0000
  F   F22       1.0  0.43487625960302284  0.09528004425644097  0.9741351126067883  1.0000
  F   F23       1.0  0.3787177567438747  0.5391818431629575  0.47402784007744714  1.0000
  F   F24       1.0  0.5651068851936643  0.9047114862636433  0.02585517377471557  1.0000
