data_image0
_chemical_formula_structural       Cu2H56C40N16Cl4
_chemical_formula_sum              "Cu2 H56 C40 N16 Cl4"
_cell_length_a       7.565560281
_cell_length_b       8.828765905130531
_cell_length_c       17.6047
_cell_angle_alpha    90.0
_cell_angle_beta     90.0
_cell_angle_gamma    115.07271156658719

_space_group_name_H-M_alt    "P 1"
_space_group_IT_number       1

loop_
  _space_group_symop_operation_xyz
  'x, y, z'

loop_
  _atom_site_type_symbol
  _atom_site_label
  _atom_site_symmetry_multiplicity
  _atom_site_fract_x
  _atom_site_fract_y
  _atom_site_fract_z
  _atom_site_occupancy
  Cu  Cu1       1.0  0.9999999336253896  0.5000013912999535  0.5000005680301314  1.0000
  Cu  Cu2       1.0  0.0  0.0  0.9999994319698686  1.0000
  H   H1        1.0  0.6790406511735443  0.6269778327381914  0.4391435241725219  1.0000
  H   H2        1.0  0.32096001234761934  0.8730225896787829  0.9391435241725218  1.0000
  H   H3        1.0  0.320960659979349  0.3730224488731224  0.5608570438576095  1.0000
  H   H4        1.0  0.6790380368478142  0.1269764414382379  0.0608564758274781  1.0000
  H   H5        1.0  0.291936691399485  0.8682094371286195  0.4561719313592362  1.0000
  H   H6        1.0  0.7080639721216784  0.6317909852883545  0.9561719313592363  1.0000
  H   H7        1.0  0.7080651531715744  0.1317945959655873  0.5438280686407637  1.0000
  H   H8        1.0  0.29193478045381493  0.3682067953343733  0.043828636670887995  1.0000
  H   H9        1.0  0.1568870757435832  0.09818881222097527  0.4027157520434912  1.0000
  H   H10       1.0  0.8431135612618662  0.401811328584678  0.9027168881037468  1.0000
  H   H11       1.0  0.8431108884709105  0.9018127198846384  0.5972831118962532  1.0000
  H   H12       1.0  0.15688651309280033  0.5981864520380427  0.0972836799263845  1.0000
  H   H13       1.0  0.8347949822275568  0.0760425582164785  0.3611620760365142  1.0000
  H   H14       1.0  0.16520239282043286  0.4239563320948817  0.8611620760365142  1.0000
  H   H15       1.0  0.16520174518871034  0.9239564729005421  0.6388379239634858  1.0000
  H   H16       1.0  0.8347975965532868  0.576043949516432  0.1388379239634858  1.0000
  H   H17       1.0  0.6654769061236295  0.9692481258530561  0.433856867768263  1.0000
  H   H18       1.0  0.3345218172192546  0.5307510460696176  0.933856867768263  1.0000
  H   H19       1.0  0.3345199062735844  0.0307484042753643  0.5661425642016056  1.0000
  H   H20       1.0  0.6654801973136985  0.4692479850474028  0.066143132231737  1.0000
  H   H21       1.0  0.4987979058209292  0.7246064235139968  0.3544888580890344  1.0000
  H   H22       1.0  0.5012008175219478  0.7753927484086771  0.8544888580890344  1.0000
  H   H23       1.0  0.5012027869328508  0.27539260760302386  0.6455100058507098  1.0000
  H   H24       1.0  0.4987972316734855  0.2246062827083364  0.1455105738808413  1.0000
  H   H25       1.0  0.6834760392450363  0.7992221677372982  0.2844183655501098  1.0000
  H   H26       1.0  0.3165246242761342  0.7007782546796761  0.7844189335802341  1.0000
  H   H27       1.0  0.31652729706708993  0.2007768633797227  0.7155799303595032  1.0000
  H   H28       1.0  0.6834734249193062  0.2992207764373447  0.2155804983896346  1.0000
  H   H29       1.0  0.4058783109976006  0.9591878992315868  0.3252540514748929  1.0000
  H   H30       1.0  0.5941210307443897  0.5408125231853802  0.825254051474893  1.0000
  H   H31       1.0  0.594121059977006  0.040811131885426684  0.674745948525107  1.0000
  H   H32       1.0  0.40587763685015693  0.4591877584259336  0.1747459485251071  1.0000
  H   H33       1.0  0.591375554852604  0.0357591349244899  0.2555107442898787  1.0000
  H   H34       1.0  0.40862376037367204  0.4642410058811634  0.7555107442898787  1.0000
  H   H35       1.0  0.40862513790117566  0.9642398961925236  0.7444886876799969  1.0000
  H   H36       1.0  0.5913762290000478  0.5357592757301504  0.24448868767999699  1.0000
  H   H37       1.0  0.43738777961140574  0.7763706349491384  0.18019903775696375  1.0000
  H   H38       1.0  0.5626108587505314  0.7236310379621358  0.680199605787088  1.0000
  H   H39       1.0  0.5626115913632077  0.22362839616788213  0.819800394212912  1.0000
  H   H40       1.0  0.43738904564224174  0.2763717446377781  0.3198009622430362  1.0000
  H   H41       1.0  0.2649549543849475  0.6788520876714941  0.25388674615301443  1.0000
  H   H42       1.0  0.73504509073711  0.8211470842511801  0.7538867461530145  1.0000
  H   H43       1.0  0.7350463567679456  0.3211481939398197  0.7461132538469855  1.0000
  H   H44       1.0  0.26495428023750384  0.17885194686583356  0.2461143899072411  1.0000
  H   H45       1.0  0.015438405636096842  0.821313399992718  0.2818781348162673  1.0000
  H   H46       1.0  0.9845576741484409  0.6786857719299559  0.7818792708765301  1.0000
  H   H47       1.0  0.9845602619584497  0.1786868816185958  0.7181207291234698  1.0000
  H   H48       1.0  0.01543967166693964  0.3213145096813577  0.2181224332138569  1.0000
  H   H49       1.0  0.8296240844289501  0.9261260805062932  0.1682033775071403  1.0000
  H   H50       1.0  0.17037402051481376  0.5738718409220878  0.6682045135674031  1.0000
  H   H51       1.0  0.1703766083248297  0.07387295061072757  0.8317949184024727  1.0000
  H   H52       1.0  0.829626672238966  0.42612719019493267  0.3317966224928597  1.0000
  H   H53       1.0  0.3417975679894952  0.914440211298384  0.0781830988315591  1.0000
  H   H54       1.0  0.6582017737525023  0.58556021111859  0.578183098831559  1.0000
  H   H55       1.0  0.6582050649425712  0.08556007031293687  0.9218163331383096  1.0000
  H   H56       1.0  0.3417988340203309  0.4144413209870237  0.4218174691985652  1.0000
  C   C1        1.0  0.8273724544441523  0.7226981692163719  0.434858304884493  1.0000
  C   C2        1.0  0.17262820907701837  0.7773022532005951  0.934858304884493  1.0000
  C   C3        1.0  0.17262947510785417  0.277303362889235  0.5651422631456384  1.0000
  C   C4        1.0  0.8273705434984819  0.22269552742212534  0.065141695115507  1.0000
  C   C5        1.0  0.14561953038300862  0.8537437190978991  0.442760740029648  1.0000
  C   C6        1.0  0.8543824549173351  0.6462567033190749  0.9427601719995238  1.0000
  C   C7        1.0  0.8543823991690047  0.1462578130077148  0.5572403960306076  1.0000
  C   C8        1.0  0.1456169160572784  0.35374232779794557  0.0572398280004762  1.0000
  C   C9        1.0  0.07953236945688495  0.9667146244068048  0.4160741165711457  1.0000
  C   C10       1.0  0.9204669722851123  0.5332857980101691  0.9160752526314013  1.0000
  C   C11       1.0  0.9204688567150612  0.0332881581931019  0.58392531539873  1.0000
  C   C12       1.0  0.07953178029038808  0.4667119826125585  0.0839258834288543  1.0000
  C   C13       1.0  0.7450395892828183  0.9520688351972806  0.3848966469181505  1.0000
  C   C14       1.0  0.25495851566095235  0.5479290862311001  0.8848960788880262  1.0000
  C   C15       1.0  0.254958459912622  0.04793019591973999  0.6151033530818495  1.0000
  C   C16       1.0  0.745040855313654  0.4520699448859203  0.1151039211119738  1.0000
  C   C17       1.0  0.602733654976383  0.838691519241763  0.3260106676058072  1.0000
  C   C18       1.0  0.39726436498644085  0.6613089031752108  0.8260112356359385  1.0000
  C   C19       1.0  0.39726765617650983  0.1613087623695506  0.6739881963339371  1.0000
  C   C20       1.0  0.6027329808289394  0.3386913784361028  0.17398819633393  1.0000
  C   C21       1.0  0.4897943039913315  0.9214879971577472  0.2844734644725548  1.0000
  C   C22       1.0  0.5102044193515454  0.5785111747649267  0.7844728964424306  1.0000
  C   C23       1.0  0.510205770363335  0.07850978346497327  0.7155271035575694  1.0000
  C   C24       1.0  0.4897955700221743  0.42148910684638696  0.2155265355274452  1.0000
  C   C25       1.0  0.35359543820350586  0.7992671855319955  0.2264207853584566  1.0000
  C   C26       1.0  0.6464059286977175  0.7007319863906785  0.7264202173283252  1.0000
  C   C27       1.0  0.6464078981086203  0.20073184558501814  0.7735797826716748  1.0000
  C   C28       1.0  0.3535960858352354  0.29926704472634197  0.2735792146415434  1.0000
  C   C29       1.0  0.05281920836982578  0.8575614781874421  0.2232011905911477  1.0000
  C   C30       1.0  0.9471814551513377  0.642438944229532  0.7232011905911477  1.0000
  C   C31       1.0  0.9471840429613536  0.1424400539181718  0.7767988094088523  1.0000
  C   C32       1.0  0.05281985600155537  0.3575613373817815  0.2767988094088523  1.0000
  C   C33       1.0  0.9650708338709253  0.9119254672665915  0.1676773816083212  1.0000
  C   C34       1.0  0.03492656769278573  0.5880737046560895  0.6676773816083212  1.0000
  C   C35       1.0  0.0349310956810811  0.0880760648390222  0.8323226183916785  1.0000
  C   C36       1.0  0.9650720999017679  0.41192657695523127  0.3323231864218101  1.0000
  C   C37       1.0  0.22757081633189105  0.9088167384435977  0.1173095821002335  1.0000
  C   C38       1.0  0.7724285254101063  0.5911836839733766  0.6173101501303648  1.0000
  C   C39       1.0  0.7724298764218959  0.0911822926734231  0.8826892818395109  1.0000
  C   C40       1.0  0.22757208236272672  0.4088178481322372  0.3826904178997665  1.0000
  N   N1        1.0  0.9867911022694359  0.7027565366579436  0.4541946184825676  1.0000
  N   N2        1.0  0.013209561251727668  0.7972438857590305  0.9541946184825675  1.0000
  N   N3        1.0  0.0132114456816836  0.2972462459419631  0.5458059495475638  1.0000
  N   N4        1.0  0.9867898097228791  0.20275514535799025  0.045805381517432395  1.0000
  N   N5        1.0  0.8787555603983819  0.8822774979728152  0.4111220299124696  1.0000
  N   N6        1.0  0.1212437813436154  0.6177229244441589  0.9111225979425939  1.0000
  N   N7        1.0  0.12124504737445822  0.11772403413279867  0.5888774020574061  1.0000
  N   N8        1.0  0.878755589630991  0.3822761066728616  0.0888774020574061  1.0000
  N   N9        1.0  0.21832636785400436  0.8563384947647206  0.1904281243077151  1.0000
  N   N10       1.0  0.7816742956671661  0.6436619276522535  0.690428124307715  1.0000
  N   N11       1.0  0.7816762650780619  0.1436617868466001  0.809571875692285  1.0000
  N   N12       1.0  0.21832569370656066  0.3563383539590602  0.3095724437224163  1.0000
  N   N13       1.0  0.07517826106286653  0.9423487430246664  0.1022687123325028  1.0000
  N   N14       1.0  0.9248185221017309  0.5576491784037145  0.6022687123325028  1.0000
  N   N15       1.0  0.9248224316909132  0.05765028809235419  0.8977312876674972  1.0000
  N   N16       1.0  0.07518014549281554  0.4423511032075992  0.3977318556976286  1.0000
  Cl  Cl1       1.0  0.41892156772556177  0.6970817935369735  0.54044033695547  1.0000
  Cl  Cl2       1.0  0.5810777740164285  0.8029186288800005  0.04044033695547  1.0000
  Cl  Cl3       1.0  0.5810783366672112  0.3029209890629403  0.4595602310746543  1.0000
  Cl  Cl4       1.0  0.4189235371364647  0.1970816527313133  0.9595602310746543  1.0000
