data_image0
_chemical_formula_structural       Er2H22C32N4O28
_chemical_formula_sum              "Er2 H22 C32 N4 O28"
_cell_length_a       9.114948892298457
_cell_length_b       9.989480574638353
_cell_length_c       13.177248789922766
_cell_angle_alpha    114.17782863206119
_cell_angle_beta     96.12376441180788
_cell_angle_gamma    111.54017758805472

_space_group_name_H-M_alt    "P 1"
_space_group_IT_number       1

loop_
  _space_group_symop_operation_xyz
  'x, y, z'

loop_
  _atom_site_type_symbol
  _atom_site_label
  _atom_site_symmetry_multiplicity
  _atom_site_fract_x
  _atom_site_fract_y
  _atom_site_fract_z
  _atom_site_occupancy
  Er  Er1       1.0  0.20302369041969115  0.438549665655927  0.4676486756505939  1.0000
  Er  Er2       1.0  0.7969712922078216  0.5614422016262424  0.5323476846765374  1.0000
  H   H1        1.0  0.887057996350727  0.966907870329834  0.24682839152958286  1.0000
  H   H2        1.0  0.112950264598517  0.03311170982195931  0.7531670468429893  1.0000
  H   H3        1.0  0.5882082164869901  0.7926793285809809  0.8819150961764919  1.0000
  H   H4        1.0  0.4117970725659107  0.2073193334411343  0.1180746618629698  1.0000
  H   H5        1.0  0.4898940055445139  0.6772985841210756  0.15635115681636347  1.0000
  H   H6        1.0  0.510128719969849  0.3227226028965547  0.8436537851556452  1.0000
  H   H7        1.0  0.11600938967512071  0.4046377393134792  0.8222301041340715  1.0000
  H   H8        1.0  0.8839968632059014  0.5953794358773051  0.17778655788338685  1.0000
  H   H9        1.0  0.8167685836742182  0.9548935419114671  0.4507443464180057  1.0000
  H   H10       1.0  0.18322006172434874  0.04508876504629461  0.5492534035271817  1.0000
  H   H11       1.0  0.5340292237971268  0.13508620459042933  0.3063684617807851  1.0000
  H   H12       1.0  0.4659475984530348  0.864896372527973  0.6936318707261934  1.0000
  H   H13       1.0  0.28534895412106936  0.7182025315750878  0.3585748692179537  1.0000
  H   H14       1.0  0.7146388142708774  0.2817888657782179  0.6414331806834142  1.0000
  H   H15       1.0  0.9929493908273272  0.4921704447109292  0.31382870412263497  1.0000
  H   H16       1.0  0.007048163160149741  0.5078273976760743  0.6861665343372608  1.0000
  H   H17       1.0  0.1011184093241867  0.41788447001469126  0.2373379240157405  1.0000
  H   H18       1.0  0.8988805344835101  0.5821111136268942  0.7626604969932487  1.0000
  H   H19       1.0  0.38405642823095587  0.32860134411665604  0.3068615886979984  1.0000
  H   H20       1.0  0.6159419558310831  0.6714027966967818  0.6931378659923979  1.0000
  H   H21       1.0  0.21513273598711896  0.17080167812689245  0.2622419577730355  1.0000
  H   H22       1.0  0.7848668116844167  0.8292024977355085  0.7377583205175  1.0000
  C   C1        1.0  0.29769215586360803  0.5498049443043983  0.7126988615253396  1.0000
  C   C2        1.0  0.7023098230464343  0.45019043849110574  0.2872965972745122  1.0000
  C   C3        1.0  0.34781697795711614  0.5924536894183278  0.8376757782568304  1.0000
  C   C4        1.0  0.6521999457837497  0.40756159220070753  0.16233091935887964  1.0000
  C   C5        1.0  0.5043992930367907  0.7187021642885013  0.9124310255830395  1.0000
  C   C6        1.0  0.4956153115013536  0.28130656528873743  0.08756675148090663  1.0000
  C   C7        1.0  0.5563625635868662  0.7501580439218146  0.02705922429898068  1.0000
  C   C8        1.0  0.4436436970689925  0.24984541559114612  0.9729297440196163  1.0000
  C   C9        1.0  0.4505303443903018  0.6571689569355145  0.06830511748554367  1.0000
  C   C10       1.0  0.5494867208789458  0.3428448237479317  0.9316965741788081  1.0000
  C   C11       1.0  0.29141480555560423  0.5387002088545431  0.9943672001654635  1.0000
  C   C12       1.0  0.7086021181852616  0.46131507276449923  0.005639497450246754  1.0000
  C   C13       1.0  0.23823633944931547  0.5031444009652759  0.8792861449407852  1.0000
  C   C14       1.0  0.761776317171318  0.49686610915588164  0.12072120002803652  1.0000
  C   C15       1.0  0.7228236883512268  0.8896171845697368  0.10522203792895374  1.0000
  C   C16       1.0  0.27719331793282015  0.11036890776750852  0.8947621855532191  1.0000
  C   C17       1.0  0.5611381454501371  0.7124224297490259  0.4554179930677478  1.0000
  C   C18       1.0  0.43885201031149995  0.28757322320711864  0.544580048293895  1.0000
  C   C19       1.0  0.5524297069049312  0.8250790290063892  0.4091362013707355  1.0000
  C   C20       1.0  0.44757767348365013  0.17491454989681907  0.5908711199324443  1.0000
  C   C21       1.0  0.6982118706592076  0.9465140759678337  0.41531299322073784  1.0000
  C   C22       1.0  0.3017776536437182  0.053480303283443206  0.5846838754547434  1.0000
  C   C23       1.0  0.6923584880043876  0.060128523584438716  0.38084083009544406  1.0000
  C   C24       1.0  0.3076418147239935  0.9398672262459443  0.6191607429463701  1.0000
  C   C25       1.0  0.5403502033994912  0.04697164906936282  0.3328612647872333  1.0000
  C   C26       1.0  0.45963697905886414  0.9530193548644165  0.6671397998161127  1.0000
  C   C27       1.0  0.3966481849577194  0.9209560749462185  0.32372145523262225  1.0000
  C   C28       1.0  0.6033343088584786  0.079032320144222  0.6762755693421951  1.0000
  C   C29       1.0  0.3993246519785887  0.8120082327304773  0.36335407656330443  1.0000
  C   C30       1.0  0.6006698522809516  0.18798650528303545  0.636649967233879  1.0000
  C   C31       1.0  0.8516314108730612  0.19926037611609362  0.40178854768770833  1.0000
  C   C32       1.0  0.14835434756087573  0.8007304179156024  0.5982085887385864  1.0000
  N   N1        1.0  0.17561545536234047  0.4470101864920579  0.03886320527633561  1.0000
  N   N2        1.0  0.8243982379649852  0.5530051648332234  0.9611441261158477  1.0000
  N   N3        1.0  0.23640569240067338  0.9096791758395641  0.27774279551964304  1.0000
  N   N4        1.0  0.763586167378918  0.09031602529971391  0.722268867352028  1.0000
  O   O1        1.0  0.14827620799261615  0.44815816560592486  0.6488021438651685  1.0000
  O   O2        1.0  0.8517229311262756  0.5518375491755024  0.35119860557649935  1.0000
  O   O3        1.0  0.40416754859352727  0.6116918827578388  0.668835393009779  1.0000
  O   O4        1.0  0.5958253818555266  0.3883033944991043  0.3311565815658213  1.0000
  O   O5        1.0  0.7847591292051278  0.014958084974487909  0.097386335304698  1.0000
  O   O6        1.0  0.21527737018902138  0.9850285131239505  0.9025890490510309  1.0000
  O   O7        1.0  0.792281625605199  0.8613976105476767  0.1848815011487233  1.0000
  O   O8        1.0  0.20773630865441822  0.13861356168411024  0.8151171639109265  1.0000
  O   O9        1.0  0.23245047492866186  0.4664331307358723  0.1372965685345093  1.0000
  O   O10       1.0  0.7675605201359019  0.5335810516397361  0.8627110475481246  1.0000
  O   O11       1.0  0.02948336070785024  0.35766830980728775  0.9785559109780523  1.0000
  O   O12       1.0  0.9705353514918897  0.6423384934021357  0.02145135270063039  1.0000
  O   O13       1.0  0.42694137211848476  0.6140172220384983  0.4573436857574151  1.0000
  O   O14       1.0  0.5730679172718213  0.3859834831988921  0.5426613104760847  1.0000
  O   O15       1.0  0.7024154093196772  0.7247573527249856  0.49077277791310797  1.0000
  O   O16       1.0  0.2975794169124343  0.2752254765392479  0.509214011146156  1.0000
  O   O17       1.0  0.9723199923381574  0.16944834630292152  0.3784532123011033  1.0000
  O   O18       1.0  0.02766176104677967  0.8305517800390947  0.6215366743942994  1.0000
  O   O19       1.0  0.8665315230388161  0.3447087710645462  0.4466002660771196  1.0000
  O   O20       1.0  0.13344478499082166  0.6552832435110645  0.5533952874993915  1.0000
  O   O21       1.0  0.23065237319454474  0.9760721354194289  0.21631539867495064  1.0000
  O   O22       1.0  0.7693305945194595  0.023931998199223908  0.7837023512403504  1.0000
  O   O23       1.0  0.11673391130986499  0.8370542744997068  0.3036862328678184  1.0000
  O   O24       1.0  0.8832547911761779  0.16293455811521806  0.6963195665730667  1.0000
  O   O25       1.0  0.07990458710875001  0.4542113615486087  0.3130565690843596  1.0000
  O   O26       1.0  0.9200895996483922  0.5457766759546347  0.6869363206402214  1.0000
  O   O27       1.0  0.263701077607081  0.2908771337309944  0.29710563528317385  1.0000
  O   O28       1.0  0.7362968540334976  0.7091315946712059  0.7028891015093137  1.0000
