data_image0
_chemical_formula_structural       Al2H9C16S2NO10
_chemical_formula_sum              "Al2 H9 C16 S2 N1 O10"
_cell_length_a       6.6542723620192845
_cell_length_b       11.056444028371915
_cell_length_c       12.774475033815655
_cell_angle_alpha    70.21473566221803
_cell_angle_beta     74.20302266177912
_cell_angle_gamma    73.15196002750632

_space_group_name_H-M_alt    "P 1"
_space_group_IT_number       1

loop_
  _space_group_symop_operation_xyz
  'x, y, z'

loop_
  _atom_site_type_symbol
  _atom_site_label
  _atom_site_symmetry_multiplicity
  _atom_site_fract_x
  _atom_site_fract_y
  _atom_site_fract_z
  _atom_site_occupancy
  Al  Al1       1.0  0.49850669242275086  0.5022330373179571  0.49979336284735615  1.0000
  Al  Al2       1.0  0.9991301736774504  0.49856184866830927  0.5052250406969705  1.0000
  H   H1        1.0  0.2652226859536312  0.6011105017552866  0.36190163333323266  1.0000
  H   H2        1.0  0.7753151109906328  0.3387642995619231  0.5910890266026954  1.0000
  H   H3        1.0  0.8506610649473669  0.8666670373600595  0.5559651185435115  1.0000
  H   H4        1.0  0.152420160008333  0.1298086903600435  0.45032980307347975  1.0000
  H   H5        1.0  0.7189705877944945  0.10039617649583477  0.5656607741826037  1.0000
  H   H6        1.0  0.28438760451442846  0.8955581825681591  0.4409509094303914  1.0000
  H   H7        1.0  0.6551979948134204  0.434629584186176  0.16798635367311474  1.0000
  H   H8        1.0  0.4963341629691271  0.5704969295886428  0.8752071549848922  1.0000
  H   H9        1.0  0.47144433455763834  0.5575971169153179  0.7482825004587641  1.0000
  C   C1        1.0  0.8427515313248151  0.5131148807410356  0.3025918142480606  1.0000
  C   C2        1.0  0.6519792373781144  0.7291835343802973  0.49290075886131046  1.0000
  C   C3        1.0  0.16122225504948767  0.4859556973089169  0.701083100956737  1.0000
  C   C4        1.0  0.34958352263331  0.2676421573936663  0.5139069953095545  1.0000
  C   C5        1.0  0.5750550780918288  0.8684299770759835  0.49751747585989403  1.0000
  C   C6        1.0  0.42778725450288146  0.12836970867955694  0.5089538419176094  1.0000
  C   C7        1.0  0.6984179051118246  0.9254507165929268  0.5328012578670994  1.0000
  C   C8        1.0  0.30453364459251026  0.0710872736413606  0.47372344659552124  1.0000
  C   C9        1.0  0.6250679067869455  0.0547771688610368  0.5383555082936341  1.0000
  C   C10       1.0  0.3777808551928669  0.9417752076869944  0.46805545372637186  1.0000
  C   C11       1.0  0.218006115964009  0.5251389452132713  0.8748741220462366  1.0000
  C   C12       1.0  0.8064469635907087  0.46476906969629533  0.12860994153036387  1.0000
  C   C13       1.0  0.10329417490623881  0.4864861302146791  0.8183099767184389  1.0000
  C   C14       1.0  0.9139322726318753  0.5046340001589797  0.18539685713524537  1.0000
  C   C15       1.0  0.9184638532107954  0.46945392490963656  0.016904550970593752  1.0000
  C   C16       1.0  0.10855337390490392  0.5142756914505568  0.9895628395331431  1.0000
  S   S1        1.0  0.871266252169768  0.4363748686673005  0.904195997083406  1.0000
  S   S2        1.0  0.15232148229103612  0.5473002127147167  0.103270358916582  1.0000
  N   N1        1.0  0.39896853075762095  0.5719004006607875  0.8257716026208827  1.0000
  O   O1        1.0  0.6533586462828752  0.49668288456710025  0.3500164395304211  1.0000
  O   O2        1.0  0.8381548748434184  0.6699420902334126  0.513304427931253  1.0000
  O   O3        1.0  0.031037028973848586  0.45980485605331  0.6583048693501753  1.0000
  O   O4        1.0  0.4793967689362404  0.3207322304076712  0.5314650820982152  1.0000
  O   O5        1.0  0.344293836341201  0.5118589870330367  0.6463906233018265  1.0000
  O   O6        1.0  0.15798199875222  0.3233361634124137  0.5002697581502532  1.0000
  O   O7        1.0  0.9731017807432066  0.5362395904707001  0.3470020372656323  1.0000
  O   O8        1.0  0.5260948038889879  0.6789683617562118  0.46915924950567234  1.0000
  O   O9        1.0  0.24647620854033664  0.5649268221427375  0.4435779491256753  1.0000
  O   O10       1.0  0.750968002196572  0.43333015528935437  0.5574486559411227  1.0000
