data_image0
_chemical_formula_structural       Zn2H24C58S2N4Cl4O18
_chemical_formula_sum              "Zn2 H24 C58 S2 N4 Cl4 O18"
_cell_length_a       9.698127062331093
_cell_length_b       10.963537868046737
_cell_length_c       27.996389539374594
_cell_angle_alpha    88.4271077513461
_cell_angle_beta     89.7177369253142
_cell_angle_gamma    88.211363530341

_space_group_name_H-M_alt    "P 1"
_space_group_IT_number       1

loop_
  _space_group_symop_operation_xyz
  'x, y, z'

loop_
  _atom_site_type_symbol
  _atom_site_label
  _atom_site_symmetry_multiplicity
  _atom_site_fract_x
  _atom_site_fract_y
  _atom_site_fract_z
  _atom_site_occupancy
  Zn  Zn1       1.0  0.6443315671393394  0.4972903343566629  0.4999868898139467  1.0000
  Zn  Zn2       1.0  0.35880154735025366  0.500675003648496  0.5005044559594933  1.0000
  H   H1        1.0  0.2821184958717922  0.5084685459003496  0.6429341061247127  1.0000
  H   H2        1.0  0.24256401390116622  0.5228751017681932  0.7308554548254234  1.0000
  H   H3        1.0  0.2703652265946488  0.26933269123249914  0.8795049718240616  1.0000
  H   H4        1.0  0.7216343808420973  0.4688570309351832  0.34893252960121396  1.0000
  H   H5        1.0  0.40300828612357975  0.2167757342504544  0.034852986637154984  1.0000
  H   H6        1.0  0.6825653406138557  0.5266298402801582  0.7509548298910997  1.0000
  H   H7        1.0  0.5842208046913272  0.8055529948616995  0.876211432204492  1.0000
  H   H8        1.0  0.5335743624217385  0.8198782744087509  0.03327209033080439  1.0000
  H   H9        1.0  0.28396722377933503  0.5403199182446629  0.34808593464583026  1.0000
  H   H10       1.0  0.5495890260664852  0.8087584087493198  0.12141024111187446  1.0000
  H   H11       1.0  0.5834059907107162  0.8051780679211407  0.9647283700758817  1.0000
  H   H12       1.0  0.28756383825336934  0.12101407816330584  0.4971662652638783  1.0000
  H   H13       1.0  0.7710398397697205  0.20590999356245027  0.4845099276022039  1.0000
  H   H14       1.0  0.9865665687183237  0.0855338939575745  0.497859437497908  1.0000
  H   H15       1.0  0.9768120054216496  0.868144215637024  0.5277849604329601  1.0000
  H   H16       1.0  0.7531064740382688  0.7668941766893341  0.531389506745988  1.0000
  H   H17       1.0  0.2832565777011666  0.8919436870960386  0.49973508211312617  1.0000
  H   H18       1.0  0.1290571645857952  0.6314433047389941  0.45396171013948095  1.0000
  H   H19       1.0  0.2638595698530041  0.32602539681148823  0.564297555303902  1.0000
  H   H20       1.0  0.13798203856869412  0.18231936724760808  0.6174532174458205  1.0000
  H   H21       1.0  0.7485497957606455  0.3320187857816563  0.5662028842413915  1.0000
  H   H22       1.0  0.8670457857042921  0.6293275410802792  0.4528112292750917  1.0000
  H   H23       1.0  0.045868908131147614  0.5005900767858904  0.2826070166454428  1.0000
  H   H24       1.0  0.29883274219653794  0.042352316385255113  0.08947211726076178  1.0000
  C   C1        1.0  0.49807772663558586  0.262832154373598  0.49771832005043126  1.0000
  C   C2        1.0  0.5116462546997838  0.504148246923009  0.5935495718903494  1.0000
  C   C3        1.0  0.4924448465089455  0.7334536594169663  0.5024458931653013  1.0000
  C   C4        1.0  0.5038644528920457  0.5044692863751976  0.40717900127723533  1.0000
  C   C5        1.0  0.3812311959710186  0.43232607271238527  0.8208225408048049  1.0000
  C   C6        1.0  0.49565880928189887  0.6344830377150928  0.8198070971311819  1.0000
  C   C7        1.0  0.5938772036284591  0.5233100756238755  0.7274074800423234  1.0000
  C   C8        1.0  0.6149217608286789  0.5172096321780727  0.6781780861182367  1.0000
  C   C9        1.0  0.36891330955057094  0.5133763127373071  0.667264581250194  1.0000
  C   C10       1.0  0.3466080873008934  0.521433898832342  0.716114009467219  1.0000
  C   C11       1.0  0.46064185513834827  0.5260264918290221  0.7460604602128026  1.0000
  C   C12       1.0  0.4388869544944355  0.5308772466037511  0.8985137893413648  1.0000
  C   C13       1.0  0.38067318070988426  0.4344776377133713  0.8736662949395535  1.0000
  C   C14       1.0  0.3208341853595655  0.33993422839828474  0.8990124444978417  1.0000
  C   C15       1.0  0.49170274030284844  0.631706338670071  0.8725763951368106  1.0000
  C   C16       1.0  0.5018547011168266  0.5114773177736397  0.6469275781146917  1.0000
  C   C17       1.0  0.5030375430745336  0.504905772263605  0.35342148290794023  1.0000
  C   C18       1.0  0.4252880882801548  0.4108540109099011  0.02700681506575359  1.0000
  C   C19       1.0  0.49105598546727686  0.6285659370961982  0.02593146301819619  1.0000
  C   C20       1.0  0.4651581804997632  0.5168578645776735  0.05133126129572928  1.0000
  C   C21       1.0  0.422202847576564  0.3002747344394764  0.05300703359315408  1.0000
  C   C22       1.0  0.44540563560288865  0.29173453383718595  0.10233418381933028  1.0000
  C   C23       1.0  0.4718288689561163  0.39646509880706315  0.12783152995410765  1.0000
  C   C24       1.0  0.4823478566297793  0.5097980522593987  0.10211986842410428  1.0000
  C   C25       1.0  0.5130060665954943  0.6176543665432562  0.12647851016733105  1.0000
  C   C26       1.0  0.5280142344409883  0.6172993819528332  0.17887835514154196  1.0000
  C   C27       1.0  0.49169996778194036  0.391446852282627  0.18027199715010764  1.0000
  C   C28       1.0  0.6274971019793226  0.48425107043051  0.2790728914361934  1.0000
  C   C29       1.0  0.6268070914687627  0.48458660287929695  0.3287926469598616  1.0000
  C   C30       1.0  0.3793327209478718  0.5242033260039562  0.32842601148795564  1.0000
  C   C31       1.0  0.3807553860013329  0.5227315988839936  0.2787491012796081  1.0000
  C   C32       1.0  0.5046604623649955  0.5031928698746243  0.2535111788586092  1.0000
  C   C33       1.0  0.3959730349978159  0.41990723544218156  0.9756776710949209  1.0000
  C   C34       1.0  0.44287721697526183  0.5257802021779556  0.949563999032854  1.0000
  C   C35       1.0  0.4927598139197683  0.6287159074017696  0.9738078826511012  1.0000
  C   C36       1.0  0.32628054762044906  0.33340800053016306  0.9490740555651767  1.0000
  C   C37       1.0  0.5434428813030223  0.7290244104414044  0.8969042413479185  1.0000
  C   C38       1.0  0.5188780957552552  0.7324592185759116  0.05169055923762759  1.0000
  C   C39       1.0  0.5282814602373662  0.7274782325958856  0.10142860367911766  1.0000
  C   C40       1.0  0.5423664587402612  0.7275360398863739  0.9467048008898968  1.0000
  C   C41       1.0  0.7669530501119368  0.11011225763297011  0.4949233948438162  1.0000
  C   C42       1.0  0.8872630406975122  0.042513219479026504  0.502680426673926  1.0000
  C   C43       1.0  0.8820567587041026  0.9191287352267778  0.5181208084301756  1.0000
  C   C44       1.0  0.7572675423821521  0.8624691904975847  0.5204115874242274  1.0000
  C   C45       1.0  0.6316110465665973  0.9272321009657603  0.5089691834238008  1.0000
  C   C46       1.0  0.635400604801518  0.05729083666864912  0.500731078400406  1.0000
  C   C47       1.0  0.5070617961240201  0.1262783414082591  0.49801885102742444  1.0000
  C   C48       1.0  0.3831956471454347  0.06631312077502832  0.49908617147643486  1.0000
  C   C49       1.0  0.3805694309312955  0.93861976657891  0.5015983578220611  1.0000
  C   C50       1.0  0.5016539164566751  0.8689052827818461  0.5059594967299004  1.0000
  C   C51       1.0  0.1519483760335874  0.32647217224318587  0.5644239855627331  1.0000
  C   C52       1.0  0.08193843367287458  0.2476800378060418  0.5941736540556304  1.0000
  C   C53       1.0  0.9357971356916436  0.2512919631984333  0.5949155002617202  1.0000
  C   C54       1.0  0.8603189705318428  0.3318056186844559  0.5659222160872444  1.0000
  C   C55       1.0  0.9301159974617549  0.41220174122206293  0.5346727653652008  1.0000
  C   C56       1.0  0.07827818282672179  0.41129592124391934  0.5342678461214942  1.0000
  C   C57       1.0  0.0723008788868356  0.5682815568544016  0.47685806919057666  1.0000
  C   C58       1.0  0.9271051156242791  0.5670831004539283  0.476265540951047  1.0000
  S   S1        1.0  0.22661457981283212  0.5491201334083515  0.24428634775598812  1.0000
  S   S2        1.0  0.4395793190550208  0.1403989137730619  0.1305480799856582  1.0000
  N   N1        1.0  0.44402477295093223  0.5314653591030094  0.797059723462574  1.0000
  N   N2        1.0  0.5035710038211717  0.504551358340912  0.20238683071688254  1.0000
  N   N3        1.0  0.1455684695932433  0.4916320658615877  0.5049665222226947  1.0000
  N   N4        1.0  0.8580015536464103  0.4907728483887724  0.5043210148878996  1.0000
  Cl  Cl1       1.0  0.8514548074423303  0.15186980905666303  0.6325598338483187  1.0000
  Cl  Cl2       1.0  0.7804954152857988  0.4598459115762168  0.24841392432509216  1.0000
  Cl  Cl3       1.0  0.23506851192566813  0.21380149405177928  0.9743713820054293  1.0000
  Cl  Cl4       1.0  0.785511988028979  0.5144088334462183  0.6596399184191026  1.0000
  O   O1        1.0  0.6045549834129388  0.3190860110056947  0.5106141480282531  1.0000
  O   O2        1.0  0.3833784595105527  0.3157600889650993  0.48689412759264866  1.0000
  O   O3        1.0  0.6234731696046866  0.5312621545746907  0.5727433382255922  1.0000
  O   O4        1.0  0.40328055881821  0.47097144381819334  0.5723287783499981  1.0000
  O   O5        1.0  0.6001480414880901  0.6758710146667897  0.4877158540888401  1.0000
  O   O6        1.0  0.3774679600839832  0.6848604516465286  0.512221318337687  1.0000
  O   O7        1.0  0.6184160797156578  0.4762409013522557  0.4272532531525427  1.0000
  O   O8        1.0  0.3903727698009121  0.5314545526537701  0.4280529411131012  1.0000
  O   O9        1.0  0.3331099172928873  0.34851661038757  0.7985540032925227  1.0000
  O   O10       1.0  0.497426737763476  0.2963545509468021  0.20423436042398888  1.0000
  O   O11       1.0  0.5426432258587539  0.7197796176040043  0.7961555805266368  1.0000
  O   O12       1.0  0.5586443498745766  0.7063799680954619  0.2015587974713994  1.0000
  O   O13       1.0  0.2368343713036154  0.6646790332675891  0.21950153711001963  1.0000
  O   O14       1.0  0.19533046214631608  0.44081713843495157  0.21882565341172713  1.0000
  O   O15       1.0  0.1125544331054655  0.5652558396027842  0.2860745391501708  1.0000
  O   O16       1.0  0.5779365555349187  0.09946714324278363  0.14108759072264823  1.0000
  O   O17       1.0  0.3245885845865146  0.13267284880527092  0.16284435238926412  1.0000
  O   O18       1.0  0.3964871458007693  0.05954621021871989  0.08460366292347737  1.0000
