data_image0
_chemical_formula_structural       Cd4H52C40N4O40
_chemical_formula_sum              "Cd4 H52 C40 N4 O40"
_cell_length_a       9.933683553
_cell_length_b       10.240428317891693
_cell_length_c       13.5585
_cell_angle_alpha    98.1017295382641
_cell_angle_beta     90.0
_cell_angle_gamma    90.0

_space_group_name_H-M_alt    "P 1"
_space_group_IT_number       1

loop_
  _space_group_symop_operation_xyz
  'x, y, z'

loop_
  _atom_site_type_symbol
  _atom_site_label
  _atom_site_symmetry_multiplicity
  _atom_site_fract_x
  _atom_site_fract_y
  _atom_site_fract_z
  _atom_site_occupancy
  Cd  Cd1       1.0  0.24594804001604587  0.2202851581854262  0.8288833159175012  1.0000
  Cd  Cd2       1.0  0.7459488678559865  0.2797156930485798  0.171118065392875  1.0000
  Cd  Cd3       1.0  0.7540516023119963  0.7797155579164183  0.17111712907823318  1.0000
  Cd  Cd4       1.0  0.2540527878238946  0.7202850230532647  0.8288831171475691  1.0000
  H   H1        1.0  0.12121082713937878  0.1134232329955722  0.6674832645752177  1.0000
  H   H2        1.0  0.6212116549793194  0.3865756455060847  0.3325179067534165  1.0000
  H   H3        1.0  0.8787878085127474  0.8865745240077486  0.33251612790319024  1.0000
  H   H4        1.0  0.3787879873487228  0.6134240842295782  0.6674831707961602  1.0000
  H   H5        1.0  0.1307208945273715  0.9839397156507915  0.7200425473266704  1.0000
  H   H6        1.0  0.6307197090154799  0.51605987895271  0.2799575939082644  1.0000
  H   H7        1.0  0.8692797544765937  0.0160610004510531  0.2799593727584906  1.0000
  H   H8        1.0  0.3692789266366532  0.48393985078296  0.7200420085518857  1.0000
  H   H9        1.0  0.0850610949595634  0.45005817262207864  0.8474567027648591  1.0000
  H   H10       1.0  0.585061922799504  0.0499426786119344  0.15254394100080046  1.0000
  H   H11       1.0  0.9149375406925628  0.5499405707474097  0.1525427947044165  1.0000
  H   H12       1.0  0.4149397328803772  0.9500590238560918  0.8474558714410847  1.0000
  H   H13       1.0  0.0028005724011208994  0.3402637807896483  0.8974449228983091  1.0000
  H   H14       1.0  0.5028014002410613  0.1597360840781832  0.10255487833176602  1.0000
  H   H15       1.0  0.9971970565750894  0.6597349625798401  0.1025545745709664  1.0000
  H   H16       1.0  0.4971992487629037  0.8402636456574868  0.897444724128384  1.0000
  H   H17       1.0  0.3746374625428928  0.4522745374205499  0.9322196667059544  1.0000
  H   H18       1.0  0.8746372837069174  0.0477263138134632  0.0677802395149953  1.0000
  H   H19       1.0  0.6253641931369884  0.5477242059489384  0.0677790932186042  1.0000
  H   H20       1.0  0.12536437197296377  0.9522744022883813  0.9322202054807391  1.0000
  H   H21       1.0  0.4045377506299132  0.3178890504431777  0.9751768918504524  1.0000
  H   H22       1.0  0.9045385784698539  0.1821118007908353  0.0248222768257804  1.0000
  H   H23       1.0  0.5954618916981289  0.6821106792924921  0.024822710609690487  1.0000
  H   H24       1.0  0.0954610638581883  0.8178889153110092  0.9751766930805204  1.0000
  H   H25       1.0  0.6294955911003939  0.04268203718712019  0.5311021501388993  1.0000
  H   H26       1.0  0.1294947632604533  0.4573188140468858  0.4688962809926167  1.0000
  H   H27       1.0  0.3705060645794873  0.9573196652808987  0.46889618721355925  1.0000
  H   H28       1.0  0.8705038723916729  0.5426809156887771  0.5311040590122431  1.0000
  H   H29       1.0  0.5805721482096402  0.2756173415854519  0.8196437341364771  1.0000
  H   H30       1.0  0.08057333372153858  0.22438350964855397  0.18035543453975583  1.0000
  H   H31       1.0  0.4194285007943249  0.7243843608825671  0.18035534076069837  1.0000
  H   H32       1.0  0.9194263086065106  0.7756172064532905  0.8196442729112619  1.0000
  H   H33       1.0  0.916409300883231  0.3325563154869116  0.6233170049584515  1.0000
  H   H34       1.0  0.4164084730432903  0.1674425630147454  0.3766834288254656  1.0000
  H   H35       1.0  0.0835923547966502  0.6674453869811146  0.3766850201175771  1.0000
  H   H36       1.0  0.5835911692847515  0.8325571667209175  0.6233169111793941  1.0000
  H   H37       1.0  0.8368517031619616  0.0474363221575871  0.45509679263607694  1.0000
  H   H38       1.0  0.3368518819979371  0.45256551544260043  0.5449032185757403  1.0000
  H   H39       1.0  0.1631489458420035  0.9525634075780829  0.5449042849134997  1.0000
  H   H40       1.0  0.6631487670060281  0.547435200659244  0.4550972264199871  1.0000
  H   H41       1.0  0.9467857466789977  0.1859970971598486  0.4838286005557819  1.0000
  H   H42       1.0  0.4467839121631414  0.3140027677079829  0.5161719382190029  1.0000
  H   H43       1.0  0.05321490232496729  0.8140036189419888  0.5161718444399455  1.0000
  H   H44       1.0  0.5532147234889848  0.6859959756615126  0.4838282967949823  1.0000
  H   H45       1.0  0.633230358752499  0.4814088351742  0.8748140888652287  1.0000
  H   H46       1.0  0.1332305375884744  0.0185900433274568  0.1251863449186814  1.0000
  H   H47       1.0  0.3667682768996271  0.5185908945614699  0.1251855135949143  1.0000
  H   H48       1.0  0.8667691047395678  0.9814087000420385  0.8748153651847304  1.0000
  H   H49       1.0  0.7880389946220774  0.5628866268132526  0.9118578873314717  1.0000
  H   H50       1.0  0.28803816678213673  0.9371139541564232  0.08814235889433061  1.0000
  H   H51       1.0  0.21196266105780376  0.4371091574577122  0.0881405576204699  1.0000
  H   H52       1.0  0.7119624822218285  0.0628877483115957  0.9118574535475545  1.0000
  C   C1        1.0  0.6633269486433377  0.1171576153395861  0.5912874790478284  1.0000
  C   C2        1.0  0.16332612080339706  0.3828422495282453  0.4087123221822396  1.0000
  C   C3        1.0  0.3366747070365435  0.8828421143960766  0.4087128609570243  1.0000
  C   C4        1.0  0.836673521524652  0.6171574802074247  0.5912872802779034  1.0000
  C   C5        1.0  0.5944964894937215  0.1478010533432013  0.6804805650462528  1.0000
  C   C6        1.0  0.0944956616537809  0.3521978251584557  0.3195191311929477  1.0000
  C   C7        1.0  0.40550516618615967  0.8521996627586433  0.31951987994947467  1.0000
  C   C8        1.0  0.9055049873501841  0.6478009182110327  0.6804796287316107  1.0000
  C   C9        1.0  0.6385858746309907  0.2512215469434409  0.7511820393436609  1.0000
  C   C10       1.0  0.1385850467910501  0.2487793042905651  0.2488178668772818  1.0000
  C   C11       1.0  0.3614147743729744  0.7487791691584036  0.24881693056263995  1.0000
  C   C12       1.0  0.8614156022129151  0.7512204254450978  0.7511817355828612  1.0000
  C   C13       1.0  0.7537646996756491  0.3213679639474947  0.7306034324393735  1.0000
  C   C14       1.0  0.2537658851875477  0.1786338736526929  0.269395841227734  1.0000
  C   C15       1.0  0.2462349426523929  0.6786337385205243  0.2693941673683753  1.0000
  C   C16       1.0  0.7462337571405014  0.8213668424491515  0.7306038662232837  1.0000
  C   C17       1.0  0.8238363902309443  0.283744012513182  0.6416217089013543  1.0000
  C   C18       1.0  0.3238345557150879  0.2162568387208239  0.3583781973195954  1.0000
  C   C19       1.0  0.1761652654489367  0.7162567035886624  0.3583779985496633  1.0000
  C   C20       1.0  0.6761640799370454  0.7837419046486644  0.6416205626049631  1.0000
  C   C21       1.0  0.4736400122771229  0.0643248838306718  0.6988769665316994  1.0000
  C   C22       1.0  0.9736398334411476  0.4356739946709851  0.3011234672522178  1.0000
  C   C23       1.0  0.5263596300509192  0.9356738595388165  0.3011232684822929  1.0000
  C   C24       1.0  0.026359808886894598  0.5643257350646849  0.6988761352079251  1.0000
  C   C25       1.0  0.841076721985651  0.1544392977106739  0.4774551773617688  1.0000
  C   C26       1.0  0.34107589414571027  0.3455625398895137  0.5225448338500485  1.0000
  C   C27       1.0  0.15892292034239827  0.8455614183911706  0.522543792544532  1.0000
  C   C28       1.0  0.6589237481823388  0.6544371898461563  0.4774562436995282  1.0000
  C   C29       1.0  0.7691255674933044  0.2233734706838746  0.39824917771314017  1.0000
  C   C30       1.0  0.269122726301525  0.2766273805501314  0.6017499909630928  1.0000
  C   C31       1.0  0.23087608818657657  0.7766272454179699  0.6017497921931607  1.0000
  C   C32       1.0  0.7308749026746851  0.7233723491855315  0.3982496114970573  1.0000
  C   C33       1.0  0.7420802123069163  0.4674034218348595  0.8837772822491415  1.0000
  C   C34       1.0  0.24207938446698304  0.0325974293991464  0.1162226239718009  1.0000
  C   C35       1.0  0.2579184233452096  0.5325953215346289  0.11622074013070718  1.0000
  C   C36       1.0  0.7579202578610662  0.9674042730688724  0.883777926014794  1.0000
  C   C37       1.0  0.7685074684802586  0.3731354199858501  0.9596015173099134  1.0000
  C   C38       1.0  0.268506640640318  0.1268664176143375  0.040398493901904  1.0000
  C   C39       1.0  0.2314921738477906  0.6268633233836383  0.040397980159354974  1.0000
  C   C40       1.0  0.7314919950118152  0.8731352848536815  0.9596013185399884  1.0000
  N   N1        1.0  0.7764169211602052  0.184350852011363  0.5751199784539978  1.0000
  N   N2        1.0  0.2764170999961806  0.3156490128564684  0.4248798227760702  1.0000
  N   N3        1.0  0.22358473451967598  0.8156498640904815  0.4248804665417297  1.0000
  N   N4        1.0  0.7235825423318687  0.6843507168792016  0.5751205172287825  1.0000
  O   O1        1.0  0.09850625850714317  0.0767964977656419  0.730335385300208  1.0000
  O   O2        1.0  0.5985080930229998  0.4232013943698405  0.2696649434928347  1.0000
  O   O3        1.0  0.9014933838208989  0.9232042183362026  0.2696650596955195  1.0000
  O   O4        1.0  0.4014925559809583  0.5767963626334733  0.7303351865302831  1.0000
  O   O5        1.0  0.8555577550518336  0.2833780706617191  0.9394165884639633  1.0000
  O   O6        1.0  0.355556927211893  0.216624753304643  0.0605835277387214  1.0000
  O   O7        1.0  0.14444390062804754  0.7166226454401183  0.060583856531763985  1.0000
  O   O8        1.0  0.6444427151161563  0.7833769491633831  0.9394162847031636  1.0000
  O   O9        1.0  0.0942188257766006  0.3763963465651798  0.8883802282981961  1.0000
  O   O10       1.0  0.594219653616541  0.1236035183026587  0.1116188353871621  1.0000
  O   O11       1.0  0.9057788031996097  0.6236023968043156  0.11161926917107219  1.0000
  O   O12       1.0  0.4057820020633399  0.8763962114330113  0.8883792919835544  1.0000
  O   O13       1.0  0.6992562187973306  0.39520240408527474  0.039394780658909695  1.0000
  O   O14       1.0  0.19925539095739  0.1047984471487382  0.9606043880173161  1.0000
  O   O15       1.0  0.3007454368825506  0.604799298382744  0.9606042942382658  1.0000
  O   O16       1.0  0.8007442513706593  0.8952002962207573  0.03939437190724248  1.0000
  O   O17       1.0  0.4110207435354596  0.361196443786163  0.9139858318906916  1.0000
  O   O18       1.0  0.9110195580235612  0.1388044074478501  0.0860148118749606  1.0000
  O   O19       1.0  0.5889788987925897  0.6388022995833325  0.0860144031232934  1.0000
  O   O20       1.0  0.08897907762856509  0.8611982813863506  0.9139851055577992  1.0000
  O   O21       1.0  0.6808612297658101  0.3089002954772297  0.42527000493647904  1.0000
  O   O22       1.0  0.1808593952499535  0.1911015421229507  0.5747285311859116  1.0000
  O   O23       1.0  0.3191404259140711  0.6911004206246147  0.574728227425112  1.0000
  O   O24       1.0  0.8191392404021727  0.8089001603450682  0.4252712812559807  1.0000
  O   O25       1.0  0.8127418149495753  0.1856518689980931  0.3102888851332182  1.0000
  O   O26       1.0  0.3127399804337188  0.3143479958697384  0.68971017855214  1.0000
  O   O27       1.0  0.18726084740622176  0.8143478607375697  0.6897107173269319  1.0000
  O   O28       1.0  0.6872606685702392  0.6856517338659316  0.31028868636328605  1.0000
  O   O29       1.0  0.4311290949777272  0.9843145347978393  0.6274925555959427  1.0000
  O   O30       1.0  0.9311299228176679  0.5156860461718367  0.3725076906298597  1.0000
  O   O31       1.0  0.5688705473503219  0.0156881540363543  0.37250736183681704  1.0000
  O   O32       1.0  0.0688707261862973  0.4843126971976517  0.6274918068394086  1.0000
  O   O33       1.0  0.42782518461810065  0.0810428041552385  0.7886824183901453  1.0000
  O   O34       1.0  0.9278260124580411  0.4189560743464185  0.2113180153937648  1.0000
  O   O35       1.0  0.5721744577099486  0.9189559392142499  0.2113178166238399  1.0000
  O   O36       1.0  0.072173629870008  0.5810436553892515  0.7886815870663783  1.0000
  O   O37       1.0  0.8057967577981272  0.4263469161065174  0.7896995786842496  1.0000
  O   O38       1.0  0.3057969366341027  0.0736539351274885  0.2103003275367001  1.0000
  O   O39       1.0  0.19420187785399884  0.5736508408967964  0.21029981379415824  1.0000
  O   O40       1.0  0.6942037123698555  0.9263477673405304  0.789699484905192  1.0000
