data_image0
_chemical_formula_structural       Hg4H12C16Br8N8
_chemical_formula_sum              "Hg4 H12 C16 Br8 N8"
_cell_length_a       4.15248753304045
_cell_length_b       9.394973809865144
_cell_length_c       19.50146251005353
_cell_angle_alpha    89.99973658822216
_cell_angle_beta     90.00000452401007
_cell_angle_gamma    100.57169122459906

_space_group_name_H-M_alt    "P 1"
_space_group_IT_number       1

loop_
  _space_group_symop_operation_xyz
  'x, y, z'

loop_
  _atom_site_type_symbol
  _atom_site_label
  _atom_site_symmetry_multiplicity
  _atom_site_fract_x
  _atom_site_fract_y
  _atom_site_fract_z
  _atom_site_occupancy
  Hg  Hg1       1.0  0.7570154148952782  0.7288512594914495  0.8667603668319118  1.0000
  Hg  Hg2       1.0  0.7429704315302318  0.7711417738293561  0.36676551087101933  1.0000
  Hg  Hg3       1.0  0.24289143326630122  0.2711403200685467  0.13323381801925652  1.0000
  Hg  Hg4       1.0  0.2570704292499357  0.22885842201682036  0.6332353401439051  1.0000
  H   H1        1.0  0.10520828095258143  0.8609694012066527  0.024453615800681  1.0000
  H   H2        1.0  0.39482785820573707  0.6390189200344025  0.5244517637728594  1.0000
  H   H3        1.0  0.8947660777470788  0.13901180908215588  0.9755487735783607  1.0000
  H   H4        1.0  0.6052261491864996  0.3609942041440847  0.47554601053590073  1.0000
  H   H5        1.0  0.6195830592396092  0.6027437956826985  0.19111220098640305  1.0000
  H   H6        1.0  0.8803963117085517  0.8972662530749815  0.6911102810422065  1.0000
  H   H7        1.0  0.3803813669571454  0.39724728300744516  0.8088896755990194  1.0000
  H   H8        1.0  0.1196107853319575  0.10275488736112239  0.30888903160137465  1.0000
  H   H9        1.0  0.006970103709576683  0.8303556567458655  0.15240097217087376  1.0000
  H   H10       1.0  0.49305828532108364  0.6696423314162843  0.6523995740970678  1.0000
  H   H11       1.0  0.9930067338872846  0.1696309664318036  0.8476003916381177  1.0000
  H   H12       1.0  0.5069774411375576  0.3303676911129543  0.3475971746501473  1.0000
  C   C1        1.0  0.587925195728829  0.5535545752439218  0.02502471121819381  1.0000
  C   C2        1.0  0.9120583311177909  0.9464483900235406  0.525023196902467  1.0000
  C   C3        1.0  0.41203534404277775  0.4464332765788725  0.9749781909347632  1.0000
  C   C4        1.0  0.08797557183554261  0.0535681696895836  0.4749761157475947  1.0000
  C   C5        1.0  0.939632193727647  0.7675143823025152  0.045587049249761015  1.0000
  C   C6        1.0  0.5603832386688836  0.7324794063232218  0.5455859796058535  1.0000
  C   C7        1.0  0.06033595927267035  0.23246905574379884  0.9544153401264739  1.0000
  C   C8        1.0  0.43966166815803115  0.2675348839014688  0.4544123074831959  1.0000
  C   C9        1.0  0.6772021897210436  0.6250903717397733  0.13721006765287314  1.0000
  C   C10       1.0  0.8227793048827293  0.8749136719775236  0.6372087048442765  1.0000
  C   C11       1.0  0.3227669548384426  0.37489523146258824  0.8627918089389297  1.0000
  C   C12       1.0  0.17723879602850454  0.12510519896508754  0.3627906078024027  1.0000
  C   C13       1.0  0.8878680616758176  0.750137137782275  0.11583154136143042  1.0000
  C   C14       1.0  0.6121498744238849  0.7498570190530244  0.615829925147999  1.0000
  C   C15       1.0  0.112108696108109  0.2498440516360034  0.8841713607998117  1.0000
  C   C16       1.0  0.38787923035949495  0.2501595823986237  0.38416887471971967  1.0000
  Br  Br1       1.0  0.4283488551788253  0.9214796905882849  0.9030856150040307  1.0000
  Br  Br2       1.0  0.0716704448531685  0.578514802666042  0.40308502056125667  1.0000
  Br  Br3       1.0  0.5715478210467637  0.07850545610501307  0.096910620982058  1.0000
  Br  Br4       1.0  0.9284518082905322  0.4215053360885719  0.5969178815635986  1.0000
  Br  Br5       1.0  0.0016752325919497824  0.6167988542314689  0.7664838728556377  1.0000
  Br  Br6       1.0  0.49837799935350086  0.8832010466804616  0.26648161220603583  1.0000
  Br  Br7       1.0  0.998309041686511  0.3832040075950474  0.23351800371757048  1.0000
  Br  Br8       1.0  0.5016786634759073  0.11679683794888258  0.7335166749020061  1.0000
  N   N1        1.0  0.7888086382314443  0.6702945780091127  9.825472170630003e-05  1.0000
  N   N2        1.0  0.7112055601375785  0.8296964119839882  0.5000969821334209  1.0000
  N   N3        1.0  0.2111509099881346  0.3296911086702892  0.9999025963054111  1.0000
  N   N4        1.0  0.28883546026845863  0.17031465138095567  0.49990079217699473  1.0000
  N   N5        1.0  0.5315221646139109  0.5266422043208152  0.09187408381251323  1.0000
  N   N6        1.0  0.9684628932799483  0.9733589975141539  0.5918735403526797  1.0000
  N   N7        1.0  0.46843498451854504  0.47334350322405067  0.9081272799965138  1.0000
  N   N8        1.0  0.0315566151563829  0.0266576874018796  0.4081267978606321  1.0000
