data_image0
_chemical_formula_structural       Zn16H16C96S16N8O68F8
_chemical_formula_sum              "Zn16 H16 C96 S16 N8 O68 F8"
_cell_length_a       19.643266971935898
_cell_length_b       19.647925398647686
_cell_length_c       33.35409609128549
_cell_angle_alpha    79.04884682277131
_cell_angle_beta     79.0629931135957
_cell_angle_gamma    63.79955564650843

_space_group_name_H-M_alt    "P 1"
_space_group_IT_number       1

loop_
  _space_group_symop_operation_xyz
  'x, y, z'

loop_
  _atom_site_type_symbol
  _atom_site_label
  _atom_site_symmetry_multiplicity
  _atom_site_fract_x
  _atom_site_fract_y
  _atom_site_fract_z
  _atom_site_occupancy
  Zn  Zn1       1.0  0.05489462974394142  0.4017026363057781  0.4771883687147422  1.0000
  Zn  Zn2       1.0  0.987071318448486  0.48310139172147637  0.5600398386491747  1.0000
  Zn  Zn3       1.0  0.05725161296712861  0.5636293758912885  0.4818485965849533  1.0000
  Zn  Zn4       1.0  0.8999715554831696  0.554458699258568  0.4791131127727297  1.0000
  Zn  Zn5       1.0  0.6948547338108284  0.3493479832376707  0.27169475279012534  1.0000
  Zn  Zn6       1.0  0.6885073770339504  0.19106598033260974  0.2657460706808408  1.0000
  Zn  Zn7       1.0  0.7711430586668584  0.2648237398819263  0.1895720774722918  1.0000
  Zn  Zn8       1.0  0.8478930227520395  0.194152067313695  0.2728593854861288  1.0000
  Zn  Zn9       1.0  0.2676279000338369  0.765799338390245  0.6886150085844776  1.0000
  Zn  Zn10      1.0  0.3502445653594394  0.695580992598025  0.7703837632953991  1.0000
  Zn  Zn11      1.0  0.19451800688392504  0.848717240092796  0.7704604632330571  1.0000
  Zn  Zn12      1.0  0.19212765446451394  0.6871050544819894  0.765956672107933  1.0000
  Zn  Zn13      1.0  0.5610039355202616  0.06033229229389298  0.9828797345488666  1.0000
  Zn  Zn14      1.0  0.4019095389257288  0.05389854206628543  0.9770982672736679  1.0000
  Zn  Zn15      1.0  0.5578153011051299  0.9000274976236682  0.9780473937481134  1.0000
  Zn  Zn16      1.0  0.4841541997163077  0.9819731984746551  0.05955656820999881  1.0000
  H   H1        1.0  0.7470836173430728  0.45343415730207676  0.350115588566389  1.0000
  H   H2        1.0  0.0005488192497580012  0.29924724099560507  0.3995465054785399  1.0000
  H   H3        1.0  0.20516776462407904  0.6977795946855636  0.5982974693461571  1.0000
  H   H4        1.0  0.04835477072869312  0.551529058315843  0.6489999815124888  1.0000
  H   H5        1.0  0.4628572425121719  0.24018242036775214  0.3419962950938356  1.0000
  H   H6        1.0  0.4831064671967553  0.7015810337727969  0.5997249976950273  1.0000
  H   H7        1.0  0.20463148490555483  0.9791981990904329  0.5999565301782894  1.0000
  H   H8        1.0  0.9518781802914731  0.9631785353888348  0.3417061640364096  1.0000
  H   H9        1.0  0.64968043415481  0.15292674854680402  0.048223547198887204  1.0000
  H   H10       1.0  0.596493380792282  0.10510535899245355  0.1997068278962004  1.0000
  H   H11       1.0  0.5439069281573623  0.7689073219985469  0.14839950601401605  1.0000
  H   H12       1.0  0.16068118278674604  0.14315958385895308  0.041030995824961294  1.0000
  H   H13       1.0  0.2995869652624563  0.9980618029695308  0.9007770994785886  1.0000
  H   H14       1.0  0.4506223766861979  0.7444357608237623  0.8511269752430906  1.0000
  H   H15       1.0  0.2981852323828704  0.28327612895735393  0.903122460462029  1.0000
  H   H16       1.0  0.7875452039094882  0.01211527975856812  0.9058968501954254  1.0000
  C   C1        1.0  0.0644790259391925  0.3171981098066609  0.5592496963190713  1.0000
  C   C2        1.0  0.07003722517907111  0.5715059790922297  0.5667890147002126  1.0000
  C   C3        1.0  0.18017503491606132  0.44205593534384485  0.4375630283437175  1.0000
  C   C4        1.0  0.935058310538004  0.6828523079633156  0.43844740097030416  1.0000
  C   C5        1.0  0.9281767997486271  0.4313293406274211  0.431972229204817  1.0000
  C   C6        1.0  0.8211513091233088  0.5601786479911511  0.561980687489708  1.0000
  C   C7        1.0  0.5670770696051477  0.31015792470240905  0.312832758075352  1.0000
  C   C8        1.0  0.6781701713068672  0.18758402207654248  0.17911468108919584  1.0000
  C   C9        1.0  0.6935627524927527  0.43119507545801383  0.18906041020939315  1.0000
  C   C10       1.0  0.9357173510923859  0.18498515718423672  0.19120496430753778  1.0000
  C   C11       1.0  0.8173244588791919  0.3186995697305904  0.3201126860400266  1.0000
  C   C12       1.0  0.8122110713916016  0.06339972672050466  0.3079043046011449  1.0000
  C   C13       1.0  0.4348658068213426  0.6913165824525294  0.6868918538643741  1.0000
  C   C14       1.0  0.3183450356749945  0.8185938184702974  0.8187423093155958  1.0000
  C   C15       1.0  0.18719167668155023  0.9333598570052856  0.6869304884581526  1.0000
  C   C16       1.0  0.06752909809376462  0.8103201085951142  0.8086264362729237  1.0000
  C   C17       1.0  0.1867118315804177  0.6746003178358106  0.6804571979899592  1.0000
  C   C18       1.0  0.3106460210261518  0.569689205544023  0.8122914561154104  1.0000
  C   C19       1.0  0.43739862519812084  0.1840418380453812  0.9381162718197942  1.0000
  C   C20       1.0  0.4331407284893914  0.9259381812555602  0.9315285802566109  1.0000
  C   C21       1.0  0.6853754930568385  0.9401925288720817  0.9378228050612306  1.0000
  C   C22       1.0  0.5629102817838288  0.8150748171641806  0.06154918578842944  1.0000
  C   C23       1.0  0.5686720303383909  0.06950088498334142  0.0690191331722616  1.0000
  C   C24       1.0  0.3159669671057587  0.06250502064110457  0.06005477266875661  1.0000
  C   C25       1.0  0.898837443861247  0.4044892121680873  0.40271411181514344  1.0000
  C   C26       1.0  0.8476245634207802  0.34691077696513145  0.3481621074613344  1.0000
  C   C27       1.0  0.8274210980143337  0.4469530242029265  0.3879275110375318  1.0000
  C   C28       1.0  0.9194279908314585  0.3048126503495752  0.36258486436148724  1.0000
  C   C29       1.0  0.8024711363379567  0.41909518888684966  0.36120360795922574  1.0000
  C   C30       1.0  0.9445833287832887  0.3329357516645289  0.38905421067592977  1.0000
  C   C31       1.0  0.1000054875114955  0.5994337768169871  0.5951705064977232  1.0000
  C   C32       1.0  0.15589926696239334  0.6475541382734349  0.6520442859069604  1.0000
  C   C33       1.0  0.14433876652038444  0.6413209458473831  0.5818314124088318  1.0000
  C   C34       1.0  0.11111376832833743  0.6061335333652523  0.6653727846949805  1.0000
  C   C35       1.0  0.17141615136687702  0.6650306672136638  0.6095126861763447  1.0000
  C   C36       1.0  0.08347043145846561  0.5828947362979167  0.6377138143629751  1.0000
  C   C37       1.0  0.3059631637028418  0.4550757309857332  0.40297887433435153  1.0000
  C   C38       1.0  0.446425424127277  0.29694185889152885  0.3499975978032595  1.0000
  C   C39       1.0  0.25837226030739663  0.4173406934270359  0.41537201820049324  1.0000
  C   C40       1.0  0.4919952956912113  0.33618940985466855  0.3379547336499584  1.0000
  C   C41       1.0  0.37808953544811175  0.34107941465205016  0.373366658059915  1.0000
  C   C42       1.0  0.3735579827382551  0.4126698461135306  0.3783975528326664  1.0000
  C   C43       1.0  0.7287428266651262  0.5806399875775411  0.630884534115161  1.0000
  C   C44       1.0  0.5270532468906454  0.6737936912091625  0.6203134229025551  1.0000
  C   C45       1.0  0.747058980610909  0.5881097682849656  0.5882914441874618  1.0000
  C   C46       1.0  0.5107522057118886  0.6654865548784913  0.6626844683678428  1.0000
  C   C47       1.0  0.6068680029866655  0.6417620376665951  0.6088463678359801  1.0000
  C   C48       1.0  0.648992061278534  0.6098289401114625  0.6428349455907991  1.0000
  C   C49       1.0  0.07131743279323641  0.22614723736228373  0.6279991721911671  1.0000
  C   C50       1.0  0.17406364012123285  0.02389916276942468  0.6199452178093665  1.0000
  C   C51       1.0  0.08303536590573661  0.2431363195445257  0.585482620823754  1.0000
  C   C52       1.0  0.16191546592331463  0.008919586632437396  0.6622737142342102  1.0000
  C   C53       1.0  0.14147541144632214  0.10343671366044299  0.6076651108045538  1.0000
  C   C54       1.0  0.10560321498170572  0.14679374265874398  0.6409866841595075  1.0000
  C   C55       1.0  0.8368741353607164  0.8039547507712114  0.3987431933640124  1.0000
  C   C56       1.0  0.9055117876777957  0.9452074979019829  0.347798135078591  1.0000
  C   C57       1.0  0.9062965901364352  0.7593549276926056  0.4144070020907265  1.0000
  C   C58       1.0  0.8358652324048919  0.9883362735746599  0.3328857242783414  1.0000
  C   C59       1.0  0.9058713899360528  0.8772836170402768  0.37132152432533155  1.0000
  C   C60       1.0  0.8365987585788518  0.8706127791625846  0.3735553861530719  1.0000
  C   C61       1.0  0.650470888628668  0.15867964957091385  0.1500057684091516  1.0000
  C   C62       1.0  0.5956270733372264  0.09947102150531623  0.09794902766174123  1.0000
  C   C63       1.0  0.6645625204327104  0.1711007953546115  0.10686509256287742  1.0000
  C   C64       1.0  0.5814322249395689  0.08720965970554317  0.1410865277213915  1.0000
  C   C65       1.0  0.6378519475315161  0.14231910609503015  0.08148629522391101  1.0000
  C   C66       1.0  0.608198007750737  0.11587402903494139  0.1664583075322241  1.0000
  C   C67       1.0  0.6754652044273186  0.5221152225532747  0.11972882697270391  1.0000
  C   C68       1.0  0.5752137337273666  0.7242835672290654  0.1284117277811134  1.0000
  C   C69       1.0  0.664987313074299  0.5047429960287815  0.16230649115264137  1.0000
  C   C70       1.0  0.587849343327818  0.7394694205658542  0.08611529645050095  1.0000
  C   C71       1.0  0.6085358825268089  0.6447033102854007  0.14057068548240179  1.0000
  C   C72       1.0  0.6450766441415894  0.6016834055000402  0.10715484474219042  1.0000
  C   C73       1.0  0.08520070926649483  0.11634146494198212  0.17901101595670346  1.0000
  C   C74       1.0  0.16988692502655314  0.12542602300072755  0.0731972149400946  1.0000
  C   C75       1.0  0.012033733656103602  0.15567081500683594  0.1670179431776404  1.0000
  C   C76       1.0  0.24174462966254856  0.08669272709715162  0.0860162623586405  1.0000
  C   C77       1.0  0.11295084925066592  0.13737033769476167  0.10741675954308498  1.0000
  C   C78       1.0  0.14310727818867267  0.10712305233799671  0.1453199057039427  1.0000
  C   C79       1.0  0.34580272539626133  0.8468852552696051  0.8482600486843523  1.0000
  C   C80       1.0  0.4048164164240404  0.8961973288440888  0.9031683536294394  1.0000
  C   C81       1.0  0.30431658337308687  0.9182869890801513  0.863188116647109  1.0000
  C   C82       1.0  0.4460092090127574  0.8244573441923606  0.8885582507202797  1.0000
  C   C83       1.0  0.33294993949078844  0.9423949532108865  0.88990367863245  1.0000
  C   C84       1.0  0.4173435168227613  0.8002966311689337  0.8618426653754483  1.0000
  C   C85       1.0  0.4040966902137414  0.4534758549433916  0.8569810862316416  1.0000
  C   C86       1.0  0.34307093130446026  0.30301393776391466  0.8988775494136902  1.0000
  C   C87       1.0  0.33560738448058214  0.4971050731390889  0.8401551431076512  1.0000
  C   C88       1.0  0.41227876106746925  0.2604072577031787  0.9143672821565119  1.0000
  C   C89       1.0  0.34077334099079354  0.37316717307207625  0.8774761391672358  1.0000
  C   C90       1.0  0.40822272340627563  0.38205944399131636  0.877454261858489  1.0000
  C   C91       1.0  0.9486346797994616  0.7921604730890905  0.8504406670973808  1.0000
  C   C92       1.0  0.80460991717181  0.954537012797651  0.8989434831751238  1.0000
  C   C93       1.0  0.9944017797145083  0.8313599848600222  0.8359104549141846  1.0000
  C   C94       1.0  0.7601730925450596  0.9143433590790764  0.9125086310803496  1.0000
  C   C95       1.0  0.872803671052907  0.9100355677278813  0.8756076776168911  1.0000
  C   C96       1.0  0.8784730214453377  0.8371526980864842  0.8722709158680287  1.0000
  S   S1        1.0  0.29813923877759413  0.32867137845545363  0.3978510568437272  1.0000
  S   S2        1.0  0.4524162550049696  0.42648498806202156  0.35427987936700595  1.0000
  S   S3        1.0  0.6661627110153036  0.6332964647319909  0.5630468106942104  1.0000
  S   S4        1.0  0.5912331444479975  0.6183397789651438  0.6887933045496766  1.0000
  S   S5        1.0  0.13404199256194005  0.16131285388124889  0.5613798832138671  1.0000
  S   S6        1.0  0.11227904974808918  0.09039822942698811  0.687375931799167  1.0000
  S   S7        1.0  0.9702872403850266  0.8005422414175314  0.39917178753371724  1.0000
  S   S8        1.0  0.7712341235438773  0.9468303708579954  0.346515551004117  1.0000
  S   S9        1.0  0.6151427940123072  0.5864306368005286  0.1866779364240756  1.0000
  S   S10       1.0  0.6402215155715538  0.6583688641672866  0.0609338595697935  1.0000
  S   S11       1.0  0.014513445991909206  0.1789816104129685  0.1142049360328343  1.0000
  S   S12       1.0  0.24104158780999543  0.0654584456481686  0.1392357449301826  1.0000
  S   S13       1.0  0.2751422984567924  0.4515046576297265  0.8510452737343499  1.0000
  S   S14       1.0  0.47492199469989776  0.30434206146643555  0.9029813347698125  1.0000
  S   S15       1.0  0.9522670655689964  0.9226176873300388  0.8503847016264316  1.0000
  S   S16       1.0  0.7997639553518994  0.823514753031624  0.8968177445401152  1.0000
  N   N1        1.0  0.2949299585827348  0.5274647937824993  0.4146601723168786  1.0000
  N   N2        1.0  0.7812915336511637  0.5522243089955122  0.6619740174001407  1.0000
  N   N3        1.0  0.0254196213386493  0.279959155360757  0.6577085891892622  1.0000
  N   N4        1.0  0.7677440761133739  0.7910118604376281  0.40819827034331974  1.0000
  N   N5        1.0  0.7087179374084657  0.4684346012853738  0.0891288482613675  1.0000
  N   N6        1.0  0.10501534131698521  0.08143498162139912  0.22026717427715434  1.0000
  N   N7        1.0  0.46554696229232234  0.4758408877840735  0.857330518870853  1.0000
  N   N8        1.0  0.9684448732850871  0.7122098418550916  0.847683037268041  1.0000
  O   O1        1.0  0.00042249933632380144  0.49993469516962813  0.4994270865880139  1.0000
  O   O2        1.0  0.06533238103057222  0.3153136295605776  0.5209620043437226  1.0000
  O   O3        1.0  0.02202813749025271  0.5439503878005357  0.5836573592049844  1.0000
  O   O4        1.0  0.14083190358905281  0.5130273551338932  0.4394927586430483  1.0000
  O   O5        1.0  0.052007680630126216  0.3747483409829186  0.5763348563468824  1.0000
  O   O6        1.0  0.15887670643588342  0.3882149234588326  0.4516615671557034  1.0000
  O   O7        1.0  0.0948413488280764  0.5766470784947799  0.5287132163600957  1.0000
  O   O8        1.0  0.9931863553292005  0.6663408462222765  0.4566536039736988  1.0000
  O   O9        1.0  0.880391358678594  0.487915625257081  0.4504492850582764  1.0000
  O   O10       1.0  0.9023097643653699  0.640052439332237  0.43785080640655855  1.0000
  O   O11       1.0  0.9991920896183616  0.39405070881774423  0.43617755149147547  1.0000
  O   O12       1.0  0.8785306135535933  0.5070057236862126  0.5776607836112718  1.0000
  O   O13       1.0  0.819066613971117  0.5916885870666205  0.5245838676011303  1.0000
  O   O14       1.0  0.7497315922251603  0.250287084234671  0.24999759370368224  1.0000
  O   O15       1.0  0.6003512640268839  0.35503913187050534  0.30688264439042  1.0000
  O   O16       1.0  0.6643819087635309  0.16668787841290103  0.21729117882981802  1.0000
  O   O17       1.0  0.7476084226386065  0.3739797747096602  0.17363148989778668  1.0000
  O   O18       1.0  0.5917988391088685  0.24572837471332318  0.2994170188210745  1.0000
  O   O19       1.0  0.6618682296073218  0.4332024829102822  0.22637505184039947  1.0000
  O   O20       1.0  0.712653564644512  0.22997414603511865  0.16381333077332266  1.0000
  O   O21       1.0  0.8796553323074651  0.20466466768636576  0.17068800720682725  1.0000
  O   O22       1.0  0.8524850608569212  0.24845270114739293  0.3149787749789894  1.0000
  O   O23       1.0  0.9318360335982165  0.1905709298127647  0.22895130141085926  1.0000
  O   O24       1.0  0.7577348707263811  0.36788664242332914  0.30398492390699516  1.0000
  O   O25       1.0  0.7441216256569946  0.0933234158163927  0.29817690125869234  1.0000
  O   O26       1.0  0.861300553387146  0.09166544807516885  0.2985555229232589  1.0000
  O   O27       1.0  0.2507503626301713  0.7496497447302345  0.7488586482646227  1.0000
  O   O28       1.0  0.3767674696426085  0.721203538576873  0.6670629758086832  1.0000
  O   O29       1.0  0.3591298698293741  0.7495141372570729  0.8114765867186761  1.0000
  O   O30       1.0  0.16724069237963593  0.9334018650407571  0.7257575877165081  1.0000
  O   O31       1.0  0.43461852878498786  0.6813622832504296  0.7259490589831401  1.0000
  O   O32       1.0  0.22615482382777696  0.8753759998170736  0.6674852608761627  1.0000
  O   O33       1.0  0.257794091674981  0.8652324756669714  0.8031535142085389  1.0000
  O   O34       1.0  0.10227807759281402  0.8526321095762768  0.8076932630781997  1.0000
  O   O35       1.0  0.18245267655591857  0.6485591141499752  0.718370121148304  1.0000
  O   O36       1.0  0.0880688189551435  0.7551095072648693  0.7879013577778196  1.0000
  O   O37       1.0  0.21535618237108173  0.7218289414376498  0.663805202039967  1.0000
  O   O38       1.0  0.36149306940384923  0.5915778352637274  0.7937043150277249  1.0000
  O   O39       1.0  0.23915227589596819  0.6023081366561767  0.8084518358775554  1.0000
  O   O40       1.0  0.5007097909322413  0.9997310246976522  0.9992318497859571  1.0000
  O   O41       1.0  0.5044387313423114  0.15601745154565808  0.9491115246100108  1.0000
  O   O42       1.0  0.3892526886764359  0.9931443315178681  0.9409378075510162  1.0000
  O   O43       1.0  0.6536005648703096  0.8938978829702434  0.9448907053502679  1.0000
  O   O44       1.0  0.3905739628451884  0.15301119839345736  0.9455697283897919  1.0000
  O   O45       1.0  0.6593571381454951  0.005489391962406375  0.9504935642469334  1.0000
  O   O46       1.0  0.4978160061288934  0.8826681690229277  0.9438056430785124  1.0000
  O   O47       1.0  0.5836203210032738  0.8152910990984095  0.022809145673647925  1.0000
  O   O48       1.0  0.5346934469198176  0.026841269730176958  0.08468584026343247  1.0000
  O   O49       1.0  0.5231104978860303  0.8730192649015859  0.08097349785756344  1.0000
  O   O50       1.0  0.582674913724283  0.08939508114561079  0.03072728817135578  1.0000
  O   O51       1.0  0.3150076005698993  0.07635655342556899  0.0211617351926492  1.0000
  O   O52       1.0  0.37476211196750603  0.0290991687338504  0.0794672349309025  1.0000
  O   O53       1.0  0.3264072032491612  0.5635471223135725  0.3894306565494148  1.0000
  O   O54       1.0  0.2592924405242202  0.5465794480352174  0.44833031316353805  1.0000
  O   O55       1.0  0.7578580740709384  0.5257996221627507  0.6958908338857199  1.0000
  O   O56       1.0  0.8421336349217869  0.5590073770459156  0.6537047012613045  1.0000
  O   O57       1.0  0.04533015264050991  0.2602399001478801  0.6929477338171993  1.0000
  O   O58       1.0  0.9696749147635091  0.33816354353699285  0.6469625067723328  1.0000
  O   O59       1.0  0.7229254690976248  0.8202824195720099  0.38147870811955187  1.0000
  O   O60       1.0  0.7562734123247667  0.7558646580641689  0.4417047402458891  1.0000
  O   O61       1.0  0.7399415280996068  0.49051589244911764  0.05645872166074643  1.0000
  O   O62       1.0  0.7013552740836816  0.40790389551398937  0.09641152466511467  1.0000
  O   O63       1.0  0.16784352464244995  0.07467148062934825  0.2274616354037704  1.0000
  O   O64       1.0  0.06147578371352582  0.0582509593892624  0.2442745619362228  1.0000
  O   O65       1.0  0.530102472722554  0.4220500522936418  0.8596593495181395  1.0000
  O   O66       1.0  0.45014937758888623  0.5440018563866857  0.8571607207446945  1.0000
  O   O67       1.0  0.9134252671406033  0.6969249583100845  0.8473336571074624  1.0000
  O   O68       1.0  0.035889251240824614  0.665465063171183  0.8478227757975674  1.0000
  F   F1        1.0  0.7807452312823885  0.5174105992532462  0.39872900563712926  1.0000
  F   F2        1.0  0.9674111546949932  0.23547499523362372  0.3506767374759433  1.0000
  F   F3        1.0  0.16140475214112376  0.6610700557946743  0.5413422143449792  1.0000
  F   F4        1.0  0.09238404606043103  0.5882754999381844  0.7058616521697658  1.0000
  F   F5        1.0  0.7052936897667763  0.2112341588739852  0.0884144080031248  1.0000
  F   F6        1.0  0.5406794692468112  0.04698680001511947  0.15967194348473157  1.0000
  F   F7        1.0  0.23416657739203825  0.9663488846109373  0.8522664518296353  1.0000
  F   F8        1.0  0.5156280858637247  0.7761770943011467  0.8999039529848715  1.0000
