data_image0
_chemical_formula_structural       Tl2H8C14N6O2
_chemical_formula_sum              "Tl2 H8 C14 N6 O2"
_cell_length_a       3.9771416312938244
_cell_length_b       9.248145819914049
_cell_length_c       12.042026099919923
_cell_angle_alpha    69.13470779410503
_cell_angle_beta     87.77585279850085
_cell_angle_gamma    81.05189141928231

_space_group_name_H-M_alt    "P 1"
_space_group_IT_number       1

loop_
  _space_group_symop_operation_xyz
  'x, y, z'

loop_
  _atom_site_type_symbol
  _atom_site_label
  _atom_site_symmetry_multiplicity
  _atom_site_fract_x
  _atom_site_fract_y
  _atom_site_fract_z
  _atom_site_occupancy
  Tl  Tl1       1.0  0.16715602773191324  0.9380376516780301  0.35953669109154157  1.0000
  Tl  Tl2       1.0  0.8328453626553483  0.061959606504807106  0.640465289523334  1.0000
  H   H1        1.0  0.24644149222247347  0.5693621555320688  0.0557399842437505  1.0000
  H   H2        1.0  0.7535729175114554  0.43063407498181755  0.9442662490065954  1.0000
  H   H3        1.0  0.9487400861716608  0.840163104629802  0.9624177090578668  1.0000
  H   H4        1.0  0.05128932979474851  0.1598331746953079  0.03758331135902179  1.0000
  H   H5        1.0  0.5999588178746862  0.9692006279039094  0.09175491474504575  1.0000
  H   H6        1.0  0.400072166585737  0.030805001511374993  0.9082393102923659  1.0000
  H   H7        1.0  0.8162570061571802  0.5696563755042873  0.3911663620858191  1.0000
  H   H8        1.0  0.18371708552573557  0.4303464701412309  0.6088278024528718  1.0000
  C   C1        1.0  0.23182737812678053  0.3864370591321631  0.2919881330366038  1.0000
  C   C2        1.0  0.7681614364548041  0.6135600766021767  0.7080115718099335  1.0000
  C   C3        1.0  0.4394238325271332  0.3061407604954312  0.2266624158902104  1.0000
  C   C4        1.0  0.5605496483556821  0.6938505165975  0.7733491175584674  1.0000
  C   C5        1.0  0.058364490328180876  0.5460200859873011  0.2322576570208454  1.0000
  C   C6        1.0  0.941631002073116  0.45397944593843687  0.7677412799963576  1.0000
  C   C7        1.0  0.08956370910907206  0.6254695087727669  0.10978009416719203  1.0000
  C   C8        1.0  0.9104376812781894  0.37452774941006334  0.8902218864476835  1.0000
  C   C9        1.0  0.9228912109944146  0.7781059325653389  0.05719531942573753  1.0000
  C   C10       1.0  0.07713611083796935  0.22189624044878536  0.9428074012987935  1.0000
  C   C11       1.0  0.7284335745533997  0.8484322749729499  0.12805066347119262  1.0000
  C   C12       1.0  0.2715761340898339  0.15156971843604336  0.8719482091980593  1.0000
  C   C13       1.0  0.8506560110961986  0.626427014228689  0.2959362859513703  1.0000
  C   C14       1.0  0.14934323219807072  0.37357607631380313  0.7040624301239828  1.0000
  N   N1        1.0  0.19180575090528157  0.3140001263330561  0.4078092250559705  1.0000
  N   N2        1.0  0.8081826276315169  0.6860052625681804  0.5921914949309722  1.0000
  N   N3        1.0  0.617117832894067  0.23405155901396305  0.17865897120184118  1.0000
  N   N4        1.0  0.38286843784659663  0.7659384246494909  0.8213353005446106  1.0000
  N   N5        1.0  0.6920814008721976  0.7733569009398168  0.24533727104487468  1.0000
  N   N6        1.0  0.3079128138651015  0.22664614266759028  0.7546607002180535  1.0000
  O   O1        1.0  0.33766199622623816  0.1678548084877391  0.45479490890595287  1.0000
  O   O2        1.0  0.6623246800888438  0.8321481698278247  0.5452023588755919  1.0000
