data_image0
_chemical_formula_structural       H32Pb2C54N8O8
_chemical_formula_sum              "H32 Pb2 C54 N8 O8"
_cell_length_a       9.371547941124229
_cell_length_b       10.676991137836035
_cell_length_c       13.081301939365815
_cell_angle_alpha    92.16715136525525
_cell_angle_beta     107.83646717278775
_cell_angle_gamma    104.60687096584554

_space_group_name_H-M_alt    "P 1"
_space_group_IT_number       1

loop_
  _space_group_symop_operation_xyz
  'x, y, z'

loop_
  _atom_site_type_symbol
  _atom_site_label
  _atom_site_symmetry_multiplicity
  _atom_site_fract_x
  _atom_site_fract_y
  _atom_site_fract_z
  _atom_site_occupancy
  H   H1        1.0  0.4996849161846697  0.8700782218870909  0.15413544486549569  1.0000
  H   H2        1.0  0.5002793493785304  0.12994180303825686  0.8458048435214066  1.0000
  H   H3        1.0  0.33138519013393625  0.6680170537220675  0.1939617092052401  1.0000
  H   H4        1.0  0.6686095976320772  0.3319849665753551  0.8060362094652193  1.0000
  H   H5        1.0  0.11722395256603592  0.6893013800376266  0.2668099909365651  1.0000
  H   H6        1.0  0.8828020020484216  0.310710303293007  0.7331827244858219  1.0000
  H   H7        1.0  0.4205774753672671  0.4339406479319763  0.2182081411789909  1.0000
  H   H8        1.0  0.5794079086342592  0.5660788743858377  0.7818008163789544  1.0000
  H   H9        1.0  0.21245549261448823  0.48530203972409686  0.2841413331266551  1.0000
  H   H10       1.0  0.7875743135334545  0.5147114487248245  0.7159088584336927  1.0000
  H   H11       1.0  0.024845171273348374  0.30307433145967616  0.3288240361633754  1.0000
  H   H12       1.0  0.9751998922447952  0.6969183399303346  0.6712322604537774  1.0000
  H   H13       1.0  0.7130465604562133  0.643717966922921  0.3377459443836486  1.0000
  H   H14       1.0  0.28696061524090766  0.356261237863407  0.6622612047218653  1.0000
  H   H15       1.0  0.5142607144200753  0.5358396095976161  0.4183504834749243  1.0000
  H   H16       1.0  0.48572277608449355  0.46416553962011875  0.5816421295207732  1.0000
  H   H17       1.0  0.40763934720371947  0.6697029112918642  0.5211081697923204  1.0000
  H   H18       1.0  0.5923479283383485  0.33026790404866796  0.4788844501145065  1.0000
  H   H19       1.0  0.5022068528696481  0.9105314371606213  0.5418288639716025  1.0000
  H   H20       1.0  0.49780487671153395  0.0894617622922027  0.45816229782609946  1.0000
  H   H21       1.0  0.7030921035567701  0.019960405517892407  0.4627710173312209  1.0000
  H   H22       1.0  0.29693571748158126  0.980026259497521  0.5372477180465438  1.0000
  H   H23       1.0  0.8054725762780277  0.8455297392838542  0.061679487983688774  1.0000
  H   H24       1.0  0.19448692644989757  0.1544565259539326  0.938336249092302  1.0000
  H   H25       1.0  0.008263733334963799  0.23499840052338067  0.0097642847137251  1.0000
  H   H26       1.0  0.9916963035161499  0.7649802152763597  0.99024127850209  1.0000
  H   H27       1.0  0.9175165369037614  0.589434523466842  0.3259031609134269  1.0000
  H   H28       1.0  0.08249983477066535  0.4106032570523367  0.6741124144263466  1.0000
  H   H29       1.0  0.8727964170803801  0.27084993806496976  0.5173492675026736  1.0000
  H   H30       1.0  0.12721094726568072  0.729148644378668  0.4826695051848375  1.0000
  H   H31       1.0  0.8417066511963396  0.09776143023341889  0.3469414888913107  1.0000
  H   H32       1.0  0.15830116714466413  0.9022493685997688  0.6530534673695244  1.0000
  Pb  Pb1       1.0  0.5275115581326659  0.18013959338154  0.11845328372118048  1.0000
  Pb  Pb2       1.0  0.4724745039497548  0.8198243077078119  0.8815425886989703  1.0000
  C   C1        1.0  0.4054499932591327  0.8743784321861058  0.18537402114485957  1.0000
  C   C2        1.0  0.5945258600559027  0.1256324230529984  0.8145797706883329  1.0000
  C   C3        1.0  0.31082213198047265  0.7620152422880506  0.20814288276934426  1.0000
  C   C4        1.0  0.6892175800946276  0.23799997661213715  0.79186437159332  1.0000
  C   C5        1.0  0.194049002083311  0.7739021847438822  0.2483699495892679  1.0000
  C   C6        1.0  0.8059189202214225  0.22609635604974435  0.751564785025785  1.0000
  C   C7        1.0  0.172102601636098  0.8979249603397645  0.2648812214490164  1.0000
  C   C8        1.0  0.827914687647734  0.10208083118558871  0.7351155106220874  1.0000
  C   C9        1.0  0.27204490274935006  0.0072457929761923995  0.23902081896464714  1.0000
  C   C10       1.0  0.7279906605772978  0.9927760061265827  0.7610026775628711  1.0000
  C   C11       1.0  0.251217944362935  0.1369097412139055  0.2523617155259643  1.0000
  C   C12       1.0  0.7487403746717687  0.8630897002406142  0.7475809685830654  1.0000
  C   C13       1.0  0.33526130111565067  0.3574717085003697  0.23846249849884768  1.0000
  C   C14       1.0  0.6647676213851454  0.6425429606469351  0.7615776200932559  1.0000
  C   C15       1.0  0.21944910733028414  0.38548063028118656  0.275062166464366  1.0000
  C   C16       1.0  0.7805052204183055  0.6145223488034047  0.7249020071565795  1.0000
  C   C17       1.0  0.11604348812057444  0.28461169258165586  0.3004965573499376  1.0000
  C   C18       1.0  0.8839887137600613  0.7153932041398008  0.6995407529488418  1.0000
  C   C19       1.0  0.1293054970310834  0.15686024259752426  0.2896413093352095  1.0000
  C   C20       1.0  0.8706889710781808  0.8431380112928578  0.7103487248996316  1.0000
  C   C21       1.0  0.029808417177377994  0.04473520156349759  0.3122589713160124  1.0000
  C   C22       1.0  0.9701789248421875  0.9552552133299342  0.6877337875598569  1.0000
  C   C23       1.0  0.05055459841192092  0.9199772004720116  0.3016933164988131  1.0000
  C   C24       1.0  0.9494490474379447  0.08002484838123539  0.698299595604098  1.0000
  C   C25       1.0  0.8505325640051568  0.8976790351864993  0.3551202701763074  1.0000
  C   C26       1.0  0.1495048596116176  0.10232210372965508  0.6449065051076701  1.0000
  C   C27       1.0  0.7227298720852244  0.8390911172266513  0.39510183889943556  1.0000
  C   C28       1.0  0.2773113053093894  0.16089546488166206  0.6049158945743542  1.0000
  C   C29       1.0  0.6668528661062325  0.7021447375851934  0.3825625652005868  1.0000
  C   C30       1.0  0.33313148701462575  0.29784113924686295  0.6174125346112476  1.0000
  C   C31       1.0  0.554602297909824  0.6419394865420712  0.4276240044474092  1.0000
  C   C32       1.0  0.4453665467548759  0.35805345625241347  0.5723466068982646  1.0000
  C   C33       1.0  0.49445875245292825  0.7165277460894827  0.4847624362816988  1.0000
  C   C34       1.0  0.5055469939164183  0.2834701699714444  0.5152406721755085  1.0000
  C   C35       1.0  0.547190598891454  0.8524263737518962  0.49580068072715733  1.0000
  C   C36       1.0  0.4527995555538665  0.1475661431449922  0.5041835932844165  1.0000
  C   C37       1.0  0.6602024230257796  0.9137746993133858  0.4513412965603862  1.0000
  C   C38       1.0  0.33979356260196164  0.0862188902596586  0.5486358489148415  1.0000
  C   C39       1.0  0.7807267406804214  0.09308214693220407  0.0760805799578392  1.0000
  C   C40       1.0  0.21925984932759224  0.9069289298681938  0.92390837004573  1.0000
  C   C41       1.0  0.8950301622693856  0.044579388719789406  0.038051285722985946  1.0000
  C   C42       1.0  0.1049237494869928  0.9554057917935381  0.9619211672293916  1.0000
  C   C43       1.0  0.8900242964583925  0.9120419028435409  0.033148095470501494  1.0000
  C   C44       1.0  0.10993810556659869  0.0879407934577543  0.9668482134911401  1.0000
  C   C45       1.0  0.006201001709790402  0.13242990581839106  0.005089031974271996  1.0000
  C   C46       1.0  0.9938136394452357  0.8675592781620409  0.9949568492358124  1.0000
  C   C47       1.0  0.7538022545125286  0.3402727971829903  0.3139350916423496  1.0000
  C   C48       1.0  0.24618543361830797  0.6597339527952286  0.6860745381625791  1.0000
  C   C49       1.0  0.8812543446962593  0.42104103806284604  0.41083385805700356  1.0000
  C   C50       1.0  0.11878795113269548  0.5789498743083357  0.5891621353837664  1.0000
  C   C51       1.0  0.954949748361521  0.5500516775835677  0.4020523638453568  1.0000
  C   C52       1.0  0.04510432385895773  0.44994117303738795  0.5979400914947917  1.0000
  C   C53       1.0  0.9276016101234743  0.37133293901624137  0.509597992097447  1.0000
  C   C54       1.0  0.07239722595124223  0.6286737098211503  0.4904124616760371  1.0000
  N   N1        1.0  0.35020178611379993  0.2373870225751844  0.22769698507309502  1.0000
  N   N2        1.0  0.6498095599811649  0.7626305164334184  0.7723028461331155  1.0000
  N   N3        1.0  0.3864783175510454  0.9926419059531711  0.2000410974587439  1.0000
  N   N4        1.0  0.6134973762906597  0.007367648522894403  0.7999294225854356  1.0000
  N   N5        1.0  0.939059500206227  0.8302331517613979  0.3282589458117613  1.0000
  N   N6        1.0  0.06096158901218729  0.16976075570265436  0.671742638123675  1.0000
  N   N7        1.0  0.9020306333017415  0.028873839311010802  0.3465740560838809  1.0000
  N   N8        1.0  0.09797212688999213  0.971125046905058  0.6534307586088345  1.0000
  O   O1        1.0  0.6655421338327797  0.007692289022727999  0.08980648093470472  1.0000
  O   O2        1.0  0.33447854002120175  0.992318912328912  0.9102133855744866  1.0000
  O   O3        1.0  0.799690579685361  0.21491136775872374  0.09114914417335022  1.0000
  O   O4        1.0  0.20032836015423772  0.7850950309771887  0.9088663146915081  1.0000
  O   O5        1.0  0.685574907226517  0.3986058725667831  0.23993038857965843  1.0000
  O   O6        1.0  0.3143770099107783  0.6013997878719621  0.7600991516074416  1.0000
  O   O7        1.0  0.7187078723270444  0.2145229567124787  0.3087995934904342  1.0000
  O   O8        1.0  0.28127753952145435  0.7854866548810973  0.6912150368894671  1.0000
