data_image0
_chemical_formula_structural       Mn4H16C28N4O20
_chemical_formula_sum              "Mn4 H16 C28 N4 O20"
_cell_length_a       5.342658098883797
_cell_length_b       11.258496590840021
_cell_length_c       12.95193419737968
_cell_angle_alpha    104.21038392605804
_cell_angle_beta     89.99309771527534
_cell_angle_gamma    89.99981637884002

_space_group_name_H-M_alt    "P 1"
_space_group_IT_number       1

loop_
  _space_group_symop_operation_xyz
  'x, y, z'

loop_
  _atom_site_type_symbol
  _atom_site_label
  _atom_site_symmetry_multiplicity
  _atom_site_fract_x
  _atom_site_fract_y
  _atom_site_fract_z
  _atom_site_occupancy
  Mn  Mn1       1.0  0.7356550504176126  0.0759964903758856  0.09047846655405321  1.0000
  Mn  Mn2       1.0  0.23549992812099418  0.42393449968842833  0.4095010529106631  1.0000
  Mn  Mn3       1.0  0.26428128541220264  0.9240516471479338  0.9094865776256071  1.0000
  Mn  Mn4       1.0  0.7643952070936565  0.5760236033947947  0.5905875075787179  1.0000
  H   H1        1.0  0.2623303359025329  0.1656436958426681  0.029179635346039793  1.0000
  H   H2        1.0  0.7624833137980573  0.33437925279459796  0.4708351698152811  1.0000
  H   H3        1.0  0.7376116126754937  0.8343649945490197  0.9708055111434676  1.0000
  H   H4        1.0  0.23765515936862155  0.665650476232443  0.5291761072691656  1.0000
  H   H5        1.0  0.4856194387190698  0.1557565528947649  0.9368708550570659  1.0000
  H   H6        1.0  0.9860572227063144  0.3443034715326831  0.5631802929694771  1.0000
  H   H7        1.0  0.5143636874624065  0.844247549983443  0.06311716693899426  1.0000
  H   H8        1.0  0.014330192644138196  0.6556630089654334  0.4368343946807157  1.0000
  H   H9        1.0  0.2526486055866144  0.884726485763501  0.3556517671117163  1.0000
  H   H10       1.0  0.7525103429337391  0.6152642260415746  0.14431961635923327  1.0000
  H   H11       1.0  0.7472727507778317  0.11528034589598948  0.6443484224979626  1.0000
  H   H12       1.0  0.24742224867519266  0.3847325569018025  0.8556606588122618  1.0000
  H   H13       1.0  0.6518289377238347  0.13226355938361684  0.49873733893962685  1.0000
  H   H14       1.0  0.1519430715679846  0.3677607882428974  0.0012001930366167866  1.0000
  H   H15       1.0  0.3481055364056971  0.867744309919381  0.5011912691521375  1.0000
  H   H16       1.0  0.848023195738463  0.6322826403902296  0.998839504762586  1.0000
  C   C1        1.0  0.0202619242000424  0.9605412565116751  0.2553121641107623  1.0000
  C   C2        1.0  0.5201695376567342  0.5394856685828061  0.244709776545605  1.0000
  C   C3        1.0  0.979739920772289  0.039482113906864  0.7446645504789374  1.0000
  C   C4        1.0  0.479879092742877  0.46051288504051496  0.7553079372991717  1.0000
  C   C5        1.0  0.0930007105496955  0.9441769134136705  0.3540856900143651  1.0000
  C   C6        1.0  0.5929032893192527  0.555829027875916  0.1459129694588341  1.0000
  C   C7        1.0  0.9069917718866731  0.055863848806524195  0.6459047938531768  1.0000
  C   C8        1.0  0.407027423942985  0.444186959862087  0.8540930452352385  1.0000
  C   C9        1.0  0.9632611024236367  0.0054199161298314  0.446311389688546  1.0000
  C   C10       1.0  0.46325521822855353  0.49454983138069497  0.053692454239033766  1.0000
  C   C11       1.0  0.036766943273001104  0.9945832551446973  0.553685696879576  1.0000
  C   C12       1.0  0.5367241584499425  0.505460643510169  0.9463216419091509  1.0000
  C   C13       1.0  0.7625924865049996  0.0803161144605866  0.4324255215666214  1.0000
  C   C14       1.0  0.2626741316148369  0.41963172789318287  0.06755926368593627  1.0000
  C   C15       1.0  0.237370057294136  0.9196339397442371  0.5675447258913948  1.0000
  C   C16       1.0  0.7373071111436005  0.5804245505661072  0.9324700658585741  1.0000
  C   C17       1.0  0.7027657283240101  0.09189241963550643  0.3308686653902839  1.0000
  C   C18       1.0  0.20290124698779272  0.40803628218385773  0.1691204349984332  1.0000
  C   C19       1.0  0.2971200739705822  0.908040206972423  0.6691086524981316  1.0000
  C   C20       1.0  0.7971324065672787  0.5919915901536115  0.8309043425098324  1.0000
  C   C21       1.0  0.166919565853334  0.9091016951278308  0.1549170501545092  1.0000
  C   C22       1.0  0.6668696228189148  0.5909199104585382  0.34507697179367364  1.0000
  C   C23       1.0  0.8330616928552314  0.0909161945861712  0.8450484514839331  1.0000
  C   C24       1.0  0.3332651098375692  0.4090621603066253  0.6549317993919176  1.0000
  C   C25       1.0  0.509713731346885  0.1810981640047515  0.3111619899977073  1.0000
  C   C26       1.0  0.0098907258743495  0.3188838283928704  0.188847163143457  1.0000
  C   C27       1.0  0.49018516526101763  0.8188655787968101  0.6888436232511523  1.0000
  C   C28       1.0  0.9901710064119271  0.681139481125136  0.8111658256931947  1.0000
  N   N1        1.0  0.8261796402934111  0.031732696273486696  0.24380035658572305  1.0000
  N   N2        1.0  0.32621657896651607  0.46818206119045414  0.25619815316933625  1.0000
  N   N3        1.0  0.17372675151117525  0.9682347781135832  0.7561666809194635  1.0000
  N   N4        1.0  0.6738900727917637  0.531779798327051  0.7438379368423967  1.0000
  O   O1        1.0  0.3410160222200033  0.8337899911790317  0.15693822456757536  1.0000
  O   O2        1.0  0.8410043299074629  0.6661936680854481  0.34302637797007657  1.0000
  O   O3        1.0  0.6589390398330934  0.1661958633909393  0.8430003288502234  1.0000
  O   O4        1.0  0.1591060683022789  0.3337966396694583  0.6569895656637073  1.0000
  O   O5        1.0  0.40455015112554804  0.1173140500785053  0.9929381775926203  1.0000
  O   O6        1.0  0.9046717951990358  0.38268528571182253  0.5071258838578814  1.0000
  O   O7        1.0  0.5953337807065323  0.8826891906607627  0.007017233000439657  1.0000
  O   O8        1.0  0.0953318881566787  0.6173635024373069  0.49299680470011953  1.0000
  O   O9        1.0  0.10456696670241435  0.9519570944165778  0.07577652249370453  1.0000
  O   O10       1.0  0.6045951294760599  0.5479913170103857  0.4241871147852266  1.0000
  O   O11       1.0  0.8953731129042523  0.04805986963674509  0.9241941856217581  1.0000
  O   O12       1.0  0.3955471005816236  0.451942236704717  0.5757849942843549  1.0000
  O   O13       1.0  0.4378264843772683  0.260575401965653  0.3943629978740262  1.0000
  O   O14       1.0  0.9381438386216272  0.23935093412005407  0.1056367858825027  1.0000
  O   O15       1.0  0.5619956754626401  0.7393727835717312  0.6056276966518865  1.0000
  O   O16       1.0  0.061906663327022195  0.7606494520232873  0.8943813211728014  1.0000
  O   O17       1.0  0.44322502812246967  0.1722799110794426  0.2163947355176745  1.0000
  O   O18       1.0  0.9432475492577054  0.32776746585581407  0.2836162228971304  1.0000
  O   O19       1.0  0.5568310940751998  0.8277241818547553  0.7835994601350222  1.0000
  O   O20       1.0  0.056847874355177894  0.6722604303744859  0.7163946614247864  1.0000
