data_image0
_chemical_formula_structural       Al4H16C52I4O20
_chemical_formula_sum              "Al4 H16 C52 I4 O20"
_cell_length_a       6.653342182037934
_cell_length_b       19.729747229701598
_cell_length_c       21.333569187252174
_cell_angle_alpha    93.2413007645196
_cell_angle_beta     90.00009360613434
_cell_angle_gamma    90.00020538093807

_space_group_name_H-M_alt    "P 1"
_space_group_IT_number       1

loop_
  _space_group_symop_operation_xyz
  'x, y, z'

loop_
  _atom_site_type_symbol
  _atom_site_label
  _atom_site_symmetry_multiplicity
  _atom_site_fract_x
  _atom_site_fract_y
  _atom_site_fract_z
  _atom_site_occupancy
  Al  Al1       1.0  0.24570633488558966  0.7515603590387414  0.7491225058206085  1.0000
  Al  Al2       1.0  0.7542934874531966  0.2484381755282287  0.25087712251339417  1.0000
  Al  Al3       1.0  0.7457076521827588  0.7484388928919686  0.7508769715085963  1.0000
  Al  Al4       1.0  0.2542936731640566  0.2515601233498117  0.24912219044367842  1.0000
  H   H1        1.0  0.2665126374043751  0.34660743660391097  0.0829929286746705  1.0000
  H   H2        1.0  0.7334931969598983  0.6533942415468985  0.9170085962226794  1.0000
  H   H3        1.0  0.7665374165141258  0.1533801300642494  0.4169950760046604  1.0000
  H   H4        1.0  0.2334639088308421  0.8466194692661234  0.5830054975071023  1.0000
  H   H5        1.0  0.5631343837839111  0.5344880355407896  0.09789940751144852  1.0000
  H   H6        1.0  0.436865438557426  0.4655110060536529  0.9021002239251463  1.0000
  H   H7        1.0  0.06309210422004702  0.9655257498102542  0.4021156680411552  1.0000
  H   H8        1.0  0.9369077181223701  0.0344738241653815  0.5978844359836588  1.0000
  H   H9        1.0  0.5665078057701081  0.6107603561826381  0.010875421391624202  1.0000
  H   H10       1.0  0.4334965255901508  0.38924132196714123  0.9891261035044042  1.0000
  H   H11       1.0  0.06645815224556628  0.8892603040526836  0.4891448647403396  1.0000
  H   H12       1.0  0.9335446761023293  0.11073876289754032  0.5108552361845186  1.0000
  H   H13       1.0  0.4873302662134762  0.6644577512732184  0.7658498184965269  1.0000
  H   H14       1.0  0.5126695561289409  0.33554182270241734  0.23415028552829403  1.0000
  H   H15       1.0  0.9873310741453237  0.835540768333793  0.7341491369765266  1.0000
  H   H16       1.0  0.012668748196013302  0.16445827326065654  0.26585049446006803  1.0000
  C   C1        1.0  0.4965638388432794  0.8349712714125845  0.8371674909357125  1.0000
  C   C2        1.0  0.5034389895086306  0.1650282772114195  0.16283214360610293  1.0000
  C   C3        1.0  0.9965604028199665  0.665028781978002  0.6628314900184409  1.0000
  C   C4        1.0  0.0034409225268560995  0.33497023426377853  0.337167671933834  1.0000
  C   C5        1.0  0.49969515457995317  0.833551632390467  0.6707313987108565  1.0000
  C   C6        1.0  0.5003031647559054  0.1664474345566518  0.32926870221005095  1.0000
  C   C7        1.0  0.9996936078087016  0.6664500985143177  0.8292704139525358  1.0000
  C   C8        1.0  0.00030621453518619996  0.33354945010761844  0.17072922058664372  1.0000
  C   C9        1.0  0.1489012757870896  0.3845387448305503  0.0789291524710904  1.0000
  C   C10       1.0  0.8511030555720893  0.6154624009380428  0.9210718998367117  1.0000
  C   C11       1.0  0.648916626048468  0.1154520064245119  0.4210642985901601  1.0000
  C   C12       1.0  0.35108169328700717  0.8845476182574927  0.5789367444046081  1.0000
  C   C13       1.0  0.9944686495619024  0.38701275166521043  0.12349247067383834  1.0000
  C   C14       1.0  0.0055326757870801995  0.6129873293389423  0.876507636454882  1.0000
  C   C15       1.0  0.4944710786118662  0.11298324110787661  0.3765053696122395  1.0000
  C   C16       1.0  0.5055302467316309  0.8870163835761957  0.6234956733851575  1.0000
  C   C17       1.0  0.8437236216247044  0.4368903187321038  0.1203690895783254  1.0000
  C   C18       1.0  0.15627319470713988  0.5631087482139776  0.8796310113412676  1.0000
  C   C19       1.0  0.34371350153410424  0.06311079044120052  0.3796332124764491  1.0000
  C   C20       1.0  0.6562863208039149  0.9368888595955415  0.620368300005275  1.0000
  C   C21       1.0  0.8402686111580948  0.4820552416622307  0.07104051108881751  1.0000
  C   C22       1.0  0.15973271418834403  0.5179443323144426  0.928959592937311  1.0000
  C   C23       1.0  0.3402561965462993  0.0179474852531811  0.4289636721611388  1.0000
  C   C24       1.0  0.6597436257921031  0.9820516070486819  0.5710368982467245  1.0000
  C   C25       1.0  0.9984524018423642  0.47753329927194704  0.02508148064521271  1.0000
  C   C26       1.0  0.0015504265117201003  0.5224673141144294  0.9749190990730486  1.0000
  C   C27       1.0  0.49845024159855456  0.0224648031500863  0.47491778748356966  1.0000
  C   C28       1.0  0.5015495807413117  0.9775342637980703  0.5250823134386593  1.0000
  C   C29       1.0  0.15456197813499267  0.42858636424062274  0.0298598553410159  1.0000
  C   C30       1.0  0.8454423532256499  0.5714147561742635  0.9701407274811518  1.0000
  C   C31       1.0  0.654576549937353  0.07140642291213338  0.4701336180473491  1.0000
  C   C32       1.0  0.345424775408695  0.9285937087994255  0.52986742805264  1.0000
  C   C33       1.0  0.6857330194296695  0.5317484062095732  0.06401445392948801  1.0000
  C   C34       1.0  0.31426830591784244  0.4682517001482793  0.9359861226848668  1.0000
  C   C35       1.0  0.185705567295031  0.9682607056912932  0.4359956441614088  1.0000
  C   C36       1.0  0.8142942550448353  0.0317383612568634  0.5640044567608129  1.0000
  C   C37       1.0  0.687627182734616  0.5741209347223234  0.015688178779051  1.0000
  C   C38       1.0  0.3123741426180048  0.42588018569050234  0.9843124040404877  1.0000
  C   C39       1.0  0.1875974711106636  0.9258923881251703  0.4843247643629313  1.0000
  C   C40       1.0  0.8124023512313698  0.07410774358535831  0.5156762817357432  1.0000
  C   C41       1.0  0.0028082354985628005  0.3851843617617092  0.38895861790152264  1.0000
  C   C42       1.0  0.9971885808376796  0.6148146291232665  0.6110400745611673  1.0000
  C   C43       1.0  0.5028076501593616  0.11481364181644692  0.11104119342854801  1.0000
  C   C44       1.0  0.49719367519510627  0.8851868955077791  0.8889579778314955  1.0000
  C   C45       1.0  0.0020658287986706  0.42931976862954  0.43182465551934285  1.0000
  C   C46       1.0  0.9979294845342608  0.5706803123704773  0.5681754516041126  1.0000
  C   C47       1.0  0.5020680949085374  0.07067978036528902  0.06817563330594112  1.0000
  C   C48       1.0  0.49793323044082893  0.9293197429039777  0.9318235317489186  1.0000
  C   C49       1.0  0.0007192225782687999  0.477667933463529  0.4785715518625509  1.0000
  C   C50       1.0  0.9992730847495678  0.5223320968270073  0.5214276162869994  1.0000
  C   C51       1.0  0.5007228209484396  0.02233204464585011  0.021427329250357702  1.0000
  C   C52       1.0  0.4992830134166013  0.9776685180351805  0.9785723114992638  1.0000
  I   I1        1.0  0.6330654190736099  0.4537134330921546  0.19425482659930543  1.0000
  I   I2        1.0  0.3669223792312907  0.5462834789692793  0.8057429144738536  1.0000
  I   I3        1.0  0.1330421041004612  0.04628654965830491  0.3057503865688247  1.0000
  I   I4        1.0  0.866957718243043  0.9537135566985172  0.6942501900442156  1.0000
  O   O1        1.0  0.6662398440636537  0.8101987090122621  0.6887526719252721  1.0000
  O   O2        1.0  0.3337599782762197  0.1898003579358871  0.31124742899694985  1.0000
  O   O3        1.0  0.1662374806401488  0.6898014729903679  0.811247141867668  1.0000
  O   O4        1.0  0.8337623417011886  0.3101975686040817  0.18875248956892685  1.0000
  O   O5        1.0  0.32473589720615337  0.8176358271131081  0.8154729986195268  1.0000
  O   O6        1.0  0.6752639251337131  0.1823632398350483  0.18452710230269537  1.0000
  O   O7        1.0  0.8247354948746873  0.6823625702019314  0.6845275499326109  1.0000
  O   O8        1.0  0.17526432747066417  0.31763695306629813  0.3154716151209343  1.0000
  O   O9        1.0  0.32679542829362873  0.8142356024833789  0.6881139144778531  1.0000
  O   O10       1.0  0.6732058970502521  0.18576346446580771  0.3118861864456904  1.0000
  O   O11       1.0  0.8267926917874178  0.6857654088621885  0.8118880616503575  1.0000
  O   O12       1.0  0.1732056275524556  0.31423413975871023  0.18811157288750743  1.0000
  O   O13       1.0  0.16800693628167102  0.6859996477684548  0.6820171953259404  1.0000
  O   O14       1.0  0.8319913830575062  0.3139988107363649  0.31798102454984445  1.0000
  O   O15       1.0  0.6680084598653125  0.8139994972594451  0.8179821458755044  1.0000
  O   O16       1.0  0.3319928654785683  0.18599956968974143  0.18201795504803903  1.0000
  O   O17       1.0  0.49404296524300406  0.7097567273648124  0.7498731631553998  1.0000
  O   O18       1.0  0.5059553540968763  0.29024282125608647  0.25012647138245825  1.0000
  O   O19       1.0  0.9940432069617983  0.790242333858693  0.7501262766659026  1.0000
  O   O20       1.0  0.005955112376994998  0.20975668238101972  0.24987288528373605  1.0000
