data_image0
_chemical_formula_structural       Zn2H28C40N8O10
_chemical_formula_sum              "Zn2 H28 C40 N8 O10"
_cell_length_a       9.50970069462026
_cell_length_b       10.17758066258357
_cell_length_c       10.303932073144114
_cell_angle_alpha    87.1192228712472
_cell_angle_beta     87.49426395431244
_cell_angle_gamma    63.203890616692135

_space_group_name_H-M_alt    "P 1"
_space_group_IT_number       1

loop_
  _space_group_symop_operation_xyz
  'x, y, z'

loop_
  _atom_site_type_symbol
  _atom_site_label
  _atom_site_symmetry_multiplicity
  _atom_site_fract_x
  _atom_site_fract_y
  _atom_site_fract_z
  _atom_site_occupancy
  Zn  Zn1       1.0  0.054847196933963  0.3247768370562484  0.37696558649712847  1.0000
  Zn  Zn2       1.0  0.9451502626186182  0.6752209618087832  0.6230340073966047  1.0000
  H   H1        1.0  0.9124599882566214  0.5583792989351932  0.1533015755086922  1.0000
  H   H2        1.0  0.087542289105592  0.4416239266153282  0.8466966247482618  1.0000
  H   H3        1.0  0.4438607722639533  0.6139114098356514  0.08591607882664931  1.0000
  H   H4        1.0  0.5561436352167205  0.3860873916751899  0.9140774156212216  1.0000
  H   H5        1.0  0.4919010840118857  0.4135295515857891  0.2554099228142874  1.0000
  H   H6        1.0  0.5081017759541666  0.5864725502126689  0.7445824901456604  1.0000
  H   H7        1.0  0.7516609457718672  0.29822561452938606  0.36889924516558636  1.0000
  H   H8        1.0  0.24833654333665586  0.7017743723846054  0.6310992701262919  1.0000
  H   H9        1.0  0.19035565100762136  0.07632251971079282  0.5829472811799974  1.0000
  H   H10       1.0  0.8096455179963872  0.9236785361588457  0.4170539731289865  1.0000
  H   H11       1.0  0.6297876064645109  0.888327525955752  0.8239591951060491  1.0000
  H   H12       1.0  0.3702151776380589  0.11167680124354719  0.1760418462935931  1.0000
  H   H13       1.0  0.0873392049683092  0.8527246123180063  0.40549964883989287  1.0000
  H   H14       1.0  0.9126613961135702  0.1472731650594454  0.594502755040729  1.0000
  H   H15       1.0  0.17452716136170934  0.9918492507650355  0.021378741953981303  1.0000
  H   H16       1.0  0.8254787113679285  0.008144081085163202  0.9786217661044319  1.0000
  H   H17       1.0  0.1461401901854274  0.5828201030933116  0.07956812022724341  1.0000
  H   H18       1.0  0.853859861988319  0.41717658757610815  0.9204353253273113  1.0000
  H   H19       1.0  0.35291871566339245  0.363008480865993  0.41793385075060036  1.0000
  H   H20       1.0  0.6470787839870766  0.6369915023128101  0.5820636938371209  1.0000
  H   H21       1.0  0.5905146419573981  0.09261014303121579  0.7500018764325773  1.0000
  H   H22       1.0  0.40948446865186144  0.9073975099863106  0.24999912226702037  1.0000
  H   H23       1.0  0.5723851894683065  0.2785675869395305  0.5770393225336292  1.0000
  H   H24       1.0  0.42760864723079095  0.7214357183223187  0.42295720864988334  1.0000
  H   H25       1.0  0.7625292342602491  0.7342174628507011  0.982677792160473  1.0000
  H   H26       1.0  0.23747300300407664  0.2657835783860421  0.0173224574024928  1.0000
  H   H27       1.0  0.18122593222441455  0.7700458962464084  0.9303634694013994  1.0000
  H   H28       1.0  0.8187783318088365  0.22994855904800462  0.0696399478834167  1.0000
  C   C1        1.0  0.8148804372739776  0.5313143191033874  0.17369503658846946  1.0000
  C   C2        1.0  0.18512339814479628  0.4686856024243297  0.8263032744522504  1.0000
  C   C3        1.0  0.6745291442947091  0.6023407973155344  0.10510898483877182  1.0000
  C   C4        1.0  0.32547732591299894  0.3976580010758255  0.8948892950461556  1.0000
  C   C5        1.0  0.5545847250891498  0.5606480439584941  0.1369586753652783  1.0000
  C   C6        1.0  0.44541968032163487  0.43935295680688574  0.8630366525931948  1.0000
  C   C7        1.0  0.580669812116362  0.4513440407948012  0.2321996121399721  1.0000
  C   C8        1.0  0.41933349340828147  0.5486569858090391  0.7677996326769829  1.0000
  C   C9        1.0  0.7242648732955529  0.3865867322295884  0.295559867830697  1.0000
  C   C10       1.0  0.275736306250394  0.6134143199048694  0.7044404157741299  1.0000
  C   C11       1.0  0.1084668417811302  0.586658542053101  0.3393398910782324  1.0000
  C   C12       1.0  0.891532682568375  0.4133370544379106  0.6606626547419481  1.0000
  C   C13       1.0  0.1275244513260319  0.9373046688747098  0.21850441763481138  1.0000
  C   C14       1.0  0.8724766881220347  0.06269419894596952  0.7814979152760344  1.0000
  C   C15       1.0  0.2765301097929225  0.11923690181055237  0.5844568671486527  1.0000
  C   C16       1.0  0.7234705504008476  0.8807652516648334  0.4155433795282518  1.0000
  C   C17       1.0  0.3945706524868484  0.065147946697337  0.6773902144782724  1.0000
  C   C18       1.0  0.6054284221643018  0.9348531234973552  0.322609166506119  1.0000
  C   C19       1.0  0.10973099633981337  0.8325160961768249  0.3018971133083923  1.0000
  C   C20       1.0  0.8902643541781927  0.16748611925750376  0.6981052449861167  1.0000
  C   C21       1.0  0.15693041186305118  0.9119883237344126  0.08543558199475848  1.0000
  C   C22       1.0  0.8430728134658237  0.08800833424187  0.9145677614342205  1.0000
  C   C23       1.0  0.11329808746833686  0.07699229992175563  0.27063312523350197  1.0000
  C   C24       1.0  0.886697822499748  0.9230109984854168  0.7293672206829172  1.0000
  C   C25       1.0  0.14129034814815364  0.6828252388475704  0.1170097659846405  1.0000
  C   C26       1.0  0.8587060305322894  0.3171747776400764  0.8829936368698698  1.0000
  C   C27       1.0  0.36900945547672154  0.2784123031504038  0.49260763103961125  1.0000
  C   C28       1.0  0.630986994927426  0.7215898864454644  0.5073908103964229  1.0000
  C   C29       1.0  0.5010523600303074  0.12533279582883236  0.6764434398839541  1.0000
  C   C30       1.0  0.49894881951564696  0.8746682563056253  0.32355684372087273  1.0000
  C   C31       1.0  0.39294547040013583  0.9502979188731828  0.7736344576632845  1.0000
  C   C32       1.0  0.6070504226238285  0.049700988495303  0.22636416264023043  1.0000
  C   C33       1.0  0.4898652285103963  0.2312230136957325  0.5809573294257788  1.0000
  C   C34       1.0  0.5101322605981339  0.7687769732182658  0.41904118586609235  1.0000
  C   C35       1.0  0.6605319310768466  0.712242730837154  0.0036349518040310813  1.0000
  C   C36       1.0  0.3394708571654945  0.2877571978530895  0.9963624225743929  1.0000
  C   C37       1.0  0.11986076836618056  0.7033116973332625  0.2515537507698227  1.0000
  C   C38       1.0  0.8801382345612512  0.2966871997532081  0.7484505916330448  1.0000
  C   C39       1.0  0.16034609153958734  0.7862880950551554  0.0343035751785266  1.0000
  C   C40       1.0  0.8396555672606709  0.2137096714245885  0.9656987946602342  1.0000
  N   N1        1.0  0.839008780802928  0.4269591480897077  0.2669990946478791  1.0000
  N   N2        1.0  0.1609923797290237  0.5730397122605879  0.7330012968546528  1.0000
  N   N3        1.0  0.2626540997971035  0.2248459991598252  0.495297470265335  1.0000
  N   N4        1.0  0.7373428699592353  0.7751550890951009  0.5047010080986212  1.0000
  N   N5        1.0  0.5265692460665008  0.8790249354991603  0.846512265827812  1.0000
  N   N6        1.0  0.47342933031634266  0.1209772285660904  0.1534851368203434  1.0000
  N   N7        1.0  0.5310715882418935  0.7791525970977132  0.9401549913185576  1.0000
  N   N8        1.0  0.4689301528240221  0.22084733875505694  0.05984144639757011  1.0000
  O   O1        1.0  0.09117701422575668  0.6048367611995005  0.4606155672325443  1.0000
  O   O2        1.0  0.9088240956663755  0.39515991857220456  0.5393878442801494  1.0000
  O   O3        1.0  0.12328542655598085  0.4699897962572523  0.2852443164170495  1.0000
  O   O4        1.0  0.8767214828081511  0.5300035321656152  0.714758099007817  1.0000
  O   O5        1.0  0.04283085880540229  0.11943617269844961  0.3799918298821582  1.0000
  O   O6        1.0  0.957166051839053  0.8805605394585426  0.620008805685508  1.0000
  O   O7        1.0  0.1707511723238895  0.15239525628527423  0.2046550271378038  1.0000
  O   O8        1.0  0.8292405237148017  0.8476124767514363  0.7953471805589629  1.0000
  O   O9        1.0  0.27816953382667037  0.9240593019059559  0.7852605359605536  1.0000
  O   O10       1.0  0.7218295048663632  0.07593518546590158  0.2147372273086319  1.0000
