data_image0
_chemical_formula_structural       H28Pb2C36N8Cl4
_chemical_formula_sum              "H28 Pb2 C36 N8 Cl4"
_cell_length_a       4.097681042009369
_cell_length_b       13.904229367058955
_cell_length_c       15.85427029711638
_cell_angle_alpha    104.12345823940787
_cell_angle_beta     90.00022995741452
_cell_angle_gamma    90.000026688739

_space_group_name_H-M_alt    "P 1"
_space_group_IT_number       1

loop_
  _space_group_symop_operation_xyz
  'x, y, z'

loop_
  _atom_site_type_symbol
  _atom_site_label
  _atom_site_symmetry_multiplicity
  _atom_site_fract_x
  _atom_site_fract_y
  _atom_site_fract_z
  _atom_site_occupancy
  H   H1        1.0  0.7454528112679385  0.4703859463995742  0.19919668618101846  1.0000
  H   H2        1.0  0.745448376341095  0.0296143325125371  0.30080205630238055  1.0000
  H   H3        1.0  0.2545506106460421  0.5296148985844837  0.8008004684362364  1.0000
  H   H4        1.0  0.2545574860069308  0.9703864857158065  0.6991988769913748  1.0000
  H   H5        1.0  0.8436187465885612  0.6515876168275694  0.2654874272742802  1.0000
  H   H6        1.0  0.8436210998423236  0.8484134111198853  0.234513311705328  1.0000
  H   H7        1.0  0.1563773541376818  0.3484139474678045  0.7345130387312864  1.0000
  H   H8        1.0  0.1563798817042823  0.15158665657872922  0.7654887186475039  1.0000
  H   H9        1.0  0.28956317800771103  0.6186029938906328  0.48849654435573353  1.0000
  H   H10       1.0  0.2895718760855672  0.8813948293873323  0.01150102759454095  1.0000
  H   H11       1.0  0.7104304822930061  0.38139412966375374  0.5115016871109148  1.0000
  H   H12       1.0  0.7104315458559327  0.1186052472305974  0.9884997432013024  1.0000
  H   H13       1.0  0.20832137265339412  0.43911965502491773  0.41219502651331663  1.0000
  H   H14       1.0  0.20832099516855615  0.0608781551345601  0.08780261994749591  1.0000
  H   H15       1.0  0.7916820492727936  0.5608782056821724  0.5878039972345733  1.0000
  H   H16       1.0  0.7916799863615226  0.939121184332322  0.9121973585712555  1.0000
  H   H17       1.0  0.48573035848692575  0.7771469516124937  0.48941204754738993  1.0000
  H   H18       1.0  0.48572903309686677  0.7228531811175217  0.010586863910752767  1.0000
  H   H19       1.0  0.5142706230450004  0.22285312946425512  0.510588093467888  1.0000
  H   H20       1.0  0.5142768292364792  0.2771476504889634  0.9894121800454414  1.0000
  H   H21       1.0  0.21519590659252694  0.9277574946444318  0.3520567475270014  1.0000
  H   H22       1.0  0.21519404177267626  0.572243230083025  0.14794579860438264  1.0000
  H   H23       1.0  0.7848001941416669  0.07224331912232168  0.6479448155404128  1.0000
  H   H24       1.0  0.784806939754347  0.42775685545310443  0.8520537126317083  1.0000
  H   H25       1.0  0.6480058163238526  0.8989790182594816  0.5734346953790636  1.0000
  H   H26       1.0  0.6480156508304589  0.6010210614989757  0.9265647708165619  1.0000
  H   H27       1.0  0.35198540360586605  0.10102179104678301  0.4265674974647666  1.0000
  H   H28       1.0  0.35198533069167576  0.3989790284965338  0.07343411064034203  1.0000
  Pb  Pb1       1.0  0.4118399525757894  0.25000042782171755  0.2500002081790598  1.0000
  Pb  Pb2       1.0  0.5881634693559193  0.7499996577149661  0.7499993030584094  1.0000
  C   C1        1.0  0.6468487849626071  0.5066112551674635  0.26305630166383054  1.0000
  C   C2        1.0  0.6468489620433149  0.9933882046612938  0.23694325961461987  1.0000
  C   C3        1.0  0.35314487537363703  0.4933902957492222  0.7369460536779117  1.0000
  C   C4        1.0  0.3531495790790302  0.006611880874281404  0.7630562516200854  1.0000
  C   C5        1.0  0.703805755952466  0.6065748400641482  0.3000997175789948  1.0000
  C   C6        1.0  0.7038076412041789  0.893425387240356  0.1999000707255264  1.0000
  C   C7        1.0  0.2961903447652006  0.39342524547087276  0.6998997936543321  1.0000
  C   C8        1.0  0.2961957807489526  0.10657542206867991  0.8001021221252174  1.0000
  C   C9        1.0  0.5781402383351165  0.6487958822745058  0.38344515239641214  1.0000
  C   C10       1.0  0.5781505230699864  0.8512042745861236  0.11655638287949441  1.0000
  C   C11       1.0  0.4218509816160251  0.3512056508041112  0.6165597220606928  1.0000
  C   C12       1.0  0.4218504584533562  0.148794327730279  0.8834428033635435  1.0000
  C   C13       1.0  0.39397536882884043  0.587900559675596  0.4242588223610967  1.0000
  C   C14       1.0  0.39397291187267314  0.9120980570850961  0.07573840059248486  1.0000
  C   C15       1.0  0.6060304934793947  0.4120980649387961  0.5757372149887701  1.0000
  C   C16       1.0  0.6060329504851439  0.08790275222449398  0.9242637922596375  1.0000
  C   C17       1.0  0.3492862745192938  0.48877924628801855  0.3822883165977942  1.0000
  C   C18       1.0  0.3492887250111423  0.011219356119290999  0.11771154140284783  1.0000
  C   C19       1.0  0.6507147070358955  0.5112223001709495  0.6177146685272777  1.0000
  C   C20       1.0  0.6507122565152557  0.9887785001278646  0.8822881121228435  1.0000
  C   C21       1.0  0.6358953031859899  0.7515237947757853  0.4306956417672083  1.0000
  C   C22       1.0  0.6359022522071458  0.7484749140110338  0.06930437438814613  1.0000
  C   C23       1.0  0.3640861551139453  0.24847256486906844  0.5693055760919279  1.0000
  C   C24       1.0  0.36409872932173226  0.2515259131349623  0.9306952993444711  1.0000
  C   C25       1.0  0.9179527077753421  0.9017642662321776  0.45576380689691126  1.0000
  C   C26       1.0  0.9179468302479066  0.5982353211692201  0.044235431742194534  1.0000
  C   C27       1.0  0.0820433929618929  0.09823580146532859  0.5442382234531565  1.0000
  C   C28       1.0  0.08205659165933811  0.4017647866643514  0.9557609305993466  1.0000
  C   C29       1.0  0.12004017706374981  0.9607918034565371  0.41687480205272465  1.0000
  C   C30       1.0  0.12005433538377021  0.5392074215986541  0.08312353261425907  1.0000
  C   C31       1.0  0.8799559236790132  0.03921048907056961  0.5831277157869297  1.0000
  C   C32       1.0  0.8799515269360967  0.46079193570685106  0.9168739267905153  1.0000
  C   C33       1.0  0.8010799794603474  0.9426237747570241  0.5406905699831059  1.0000
  C   C34       1.0  0.8010926954361467  0.5573749002156703  0.9593074850858943  1.0000
  C   C35       1.0  0.19891612128731856  0.0573785133107023  0.4593125776357283  1.0000
  C   C36       1.0  0.19891560727677424  0.44262372439927583  0.04068855226535822  1.0000
  N   N1        1.0  0.47439541447737105  0.4481708229140153  0.3032315161233613  1.0000
  N   N2        1.0  0.4743893962782053  0.0518293284448461  0.19676754904776325  1.0000
  N   N3        1.0  0.5256104478406557  0.5518277927816229  0.6967657807848796  1.0000
  N   N4        1.0  0.5256140256767665  0.9481722224740565  0.803234806299507  1.0000
  N   N5        1.0  0.8535548457496065  0.8057126951011497  0.40583275066197905  1.0000
  N   N6        1.0  0.8535620968011061  0.6942883507377643  0.09416611023980441  1.0000
  N   N7        1.0  0.1464388145670625  0.19428887365305064  0.5941670855630152  1.0000
  N   N8        1.0  0.14644620595159813  0.3057124674911336  0.9058348230553294  1.0000
  Cl  Cl1       1.0  0.8982306722080794  0.24680219775012094  0.3768228388622888  1.0000
  Cl  Cl2       1.0  0.8982262644362609  0.253201103603331  0.12317861603226282  1.0000
  Cl  Cl3       1.0  0.10177519013384283  0.7532001126167174  0.6231771598661455  1.0000
  Cl  Cl4       1.0  0.1017795979056615  0.7468012067635001  0.8768213826961716  1.0000
