data_image0
_chemical_formula_structural       Cd4H32C64O32
_chemical_formula_sum              "Cd4 H32 C64 O32"
_cell_length_a       9.004885999000567
_cell_length_b       10.021006213002646
_cell_length_c       16.075546472004888
_cell_angle_alpha    90.00008186582347
_cell_angle_beta     90.00003700604641
_cell_angle_gamma    89.9999853631437

_space_group_name_H-M_alt    "P 1"
_space_group_IT_number       1

loop_
  _space_group_symop_operation_xyz
  'x, y, z'

loop_
  _atom_site_type_symbol
  _atom_site_label
  _atom_site_symmetry_multiplicity
  _atom_site_fract_x
  _atom_site_fract_y
  _atom_site_fract_z
  _atom_site_occupancy
  Cd  Cd1       1.0  0.045795592309097785  0.749999676669688  0.9999999402787054  1.0000
  Cd  Cd2       1.0  0.45420921547000853  0.2500003655916245  0.5000006165617562  1.0000
  Cd  Cd3       1.0  0.9542041597144856  0.2500007340677969  2.8864055680000004e-07  1.0000
  Cd  Cd4       1.0  0.5457938680782632  0.7500000451454838  0.4999996123581242  1.0000
  H   H1        1.0  0.7370143598821173  0.4933068749634586  0.18317049069821684  1.0000
  H   H2        1.0  0.7629858193257845  0.9933057171116034  0.3168302493110248  1.0000
  H   H3        1.0  0.7370147851254385  0.006693791703987999  0.8168289812626099  1.0000
  H   H4        1.0  0.7629872050448867  0.5066933257316463  0.6831709222524225  1.0000
  H   H5        1.0  0.262984281632967  0.5066905420613849  0.8168284940938335  1.0000
  H   H6        1.0  0.23701393269779905  0.006694693625881601  0.6831699796082376  1.0000
  H   H7        1.0  0.2629849668977115  0.9933096127448449  0.183171247657981  1.0000
  H   H8        1.0  0.23701254697932939  0.4933050891989908  0.3168299287287867  1.0000
  H   H9        1.0  0.47875009822680425  0.847965950688014  0.2272897853149303  1.0000
  H   H10       1.0  0.021249678243378894  0.34796536696259045  0.27271001735051215  1.0000
  H   H11       1.0  0.4787504323691891  0.6520341548976774  0.772710036566082  1.0000
  H   H12       1.0  0.021249961402048698  0.15203446508373733  0.7272910549838087  1.0000
  H   H13       1.0  0.5212529853204159  0.15203446004695564  0.7727085774164522  1.0000
  H   H14       1.0  0.9787467422552324  0.6520370395828439  0.7272902115690202  1.0000
  H   H15       1.0  0.521250430162965  0.34796625584039736  0.22729081441622162  1.0000
  H   H16       1.0  0.978746459097273  0.847962951942783  0.2727091739334995  1.0000
  H   H17       1.0  0.4944936809143528  0.9035340485949778  0.0766939994133082  1.0000
  H   H18       1.0  0.0055083006765599  0.4035328153603928  0.42330647486320333  1.0000
  H   H19       1.0  0.4944930894884505  0.5964680492069546  0.9233058283151366  1.0000
  H   H20       1.0  0.005508430686454299  0.0964670202768829  0.5766945916251915  1.0000
  H   H21       1.0  0.5055116236493261  0.0964663621397435  0.9233043633184792  1.0000
  H   H22       1.0  0.9944914513482104  0.5964665974754482  0.5766956202441094  1.0000
  H   H23       1.0  0.5055111045689528  0.40353335943594704  0.0766962667938955  1.0000
  H   H24       1.0  0.9944902108284805  0.9035313946517435  0.4233043931673067  1.0000
  H   H25       1.0  0.6263434447225433  0.4832402636038893  0.383530061871113  1.0000
  H   H26       1.0  0.8736545163486085  0.9832416154766364  0.1164712912256221  1.0000
  H   H27       1.0  0.6263436421826467  0.016759430406807503  0.6164699910520497  1.0000
  H   H28       1.0  0.8736539030754003  0.5167584000248411  0.8835299214370808  1.0000
  H   H29       1.0  0.37365741780843814  0.5167561555154948  0.6164676787952319  1.0000
  H   H30       1.0  0.12634301465941888  0.016759793167018703  0.8835308038821666  1.0000
  H   H31       1.0  0.3736583308583619  0.9832439740446192  0.3835327261202933  1.0000
  H   H32       1.0  0.1263425174225858  0.4832410128071132  0.1164684412926107  1.0000
  C   C1        1.0  0.6970537542044539  0.6168781805725203  0.0764394855261514  1.0000
  C   C2        1.0  0.8029476431958  0.11687588216535265  0.42356154089740283  1.0000
  C   C3        1.0  0.6970530810615329  0.8831238710213402  0.9235604174272967  1.0000
  C   C4        1.0  0.8029488014243853  0.38312377155892824  0.5764391996745176  1.0000
  C   C5        1.0  0.3029459978192079  0.38311923645291307  0.9235601213289399  1.0000
  C   C6        1.0  0.1970521088277835  0.8831245285721321  0.5764386880218524  1.0000
  C   C7        1.0  0.3029488919778699  0.1168785355227513  0.07643918943043101  1.0000
  C   C8        1.0  0.1970509505993405  0.6168756412747739  0.42356102924429717  1.0000
  C   C9        1.0  0.6838742944261823  0.5838795960028804  0.16046522776210995  1.0000
  C   C10       1.0  0.8161260019056513  0.0838771022047595  0.3395357692374788  1.0000
  C   C11       1.0  0.6838757385410188  0.9161214606934606  0.8395346702968142  1.0000
  C   C12       1.0  0.8161261345052322  0.4161225485133855  0.6604649762283261  1.0000
  C   C13       1.0  0.31612545759733723  0.41611881892633557  0.8395343790934291  1.0000
  C   C14       1.0  0.18387152910147359  0.9161233085329815  0.6604644596813715  1.0000
  C   C15       1.0  0.31612623449888116  0.0838799479475583  0.1604655586233079  1.0000
  C   C16       1.0  0.18387139650203468  0.5838768643205726  0.3395352526900766  1.0000
  C   C17       1.0  0.6062520089870275  0.6671008511436299  0.2150413111489087  1.0000
  C   C18       1.0  0.8937482635368992  0.1671012083913794  0.2849585159317485  1.0000
  C   C19       1.0  0.6062534156470816  0.832899225356158  0.7849585580828631  1.0000
  C   C20       1.0  0.8937484812070121  0.33289742671504285  0.7150416362974781  1.0000
  C   C21       1.0  0.3937477430364922  0.3328975637855862  0.7849582957066306  1.0000
  C   C22       1.0  0.1062481569603761  0.8329031939594813  0.715039846800174  1.0000
  C   C23       1.0  0.39374744688458196  0.16710218328498883  0.2150416708370457  1.0000
  C   C24       1.0  0.10624904980132037  0.6670969966007192  0.2849592146815283  1.0000
  C   C25       1.0  0.5401445308273408  0.783972321049234  0.18457457954720985  1.0000
  C   C26       1.0  0.9598545977561841  0.28397173507072193  0.31542659586865807  1.0000
  C   C27       1.0  0.5401460051194034  0.7160277705310065  0.8154252651341451  1.0000
  C   C28       1.0  0.9598548146591879  0.21602788286070046  0.6845748250366839  1.0000
  C   C29       1.0  0.45985744221207614  0.2160250959745227  0.8154237831826237  1.0000
  C   C30       1.0  0.04014071223539159  0.716029673573189  0.6845754992387257  1.0000
  C   C31       1.0  0.4598559679210439  0.2839746360152162  0.18457620791208743  1.0000
  C   C32       1.0  0.040140495331066  0.7839705320683026  0.31542415975519594  1.0000
  C   C33       1.0  0.5509897025163895  0.815559869948679  0.1005587892540731  1.0000
  C   C34       1.0  0.9490127485554535  0.31555848090108907  0.3994417922647315  1.0000
  C   C35       1.0  0.5509901696441019  0.6844412170614476  0.8994410594551285  1.0000
  C   C36       1.0  0.9490117696790887  0.18444014159993571  0.6005596246135879  1.0000
  C   C37       1.0  0.4490133810311789  0.18444054078700134  0.8994401955401372  1.0000
  C   C38       1.0  0.05098700346798778  0.6844429277401788  0.6005584366549712  1.0000
  C   C39       1.0  0.4490129139046528  0.31555819577258865  0.10055979152713951  1.0000
  C   C40       1.0  0.050986871837181987  0.8155562775232638  0.3994412263665197  1.0000
  C   C41       1.0  0.6295159410150644  0.7335520647552515  0.0451541188809372  1.0000
  C   C42       1.0  0.870485423008489  0.2335488246676078  0.45484638951335654  1.0000
  C   C43       1.0  0.6295164468747741  0.7664500022452216  0.9548457589911123  1.0000
  C   C44       1.0  0.8704832479710375  0.2664508136495982  0.5451537540767148  1.0000
  C   C45       1.0  0.37048492151660634  0.2664493438858955  0.9548461100389718  1.0000
  C   C46       1.0  0.12951321850735545  0.7664505881669328  0.545154461468087  1.0000
  C   C47       1.0  0.3704866366732914  0.23354941058738635  0.045153847865485396  1.0000
  C   C48       1.0  0.12951428303608736  0.7335495970881426  0.4548464748421353  1.0000
  C   C49       1.0  0.7885051997766296  0.5277523278225756  0.0224282351282383  1.0000
  C   C50       1.0  0.7114973336276121  0.027746182324257497  0.4775714676977501  1.0000
  C   C51       1.0  0.7885056722738709  0.9722487050054273  0.9775717017874258  1.0000
  C   C52       1.0  0.7114972952247952  0.4722524943580525  0.522429238911478  1.0000
  C   C53       1.0  0.211501215293481  0.47226305146945446  0.9775707496732622  1.0000
  C   C54       1.0  0.28850130788737965  0.9722592179329794  0.5224293832863653  1.0000
  C   C55       1.0  0.21150185330994725  0.027735739271371115  0.022429149188994305  1.0000
  C   C56       1.0  0.2885013462906371  0.5277449226675017  0.4775703679434074  1.0000
  C   C57       1.0  0.5917466056945813  0.6315416516265983  0.3043135299408562  1.0000
  C   C58       1.0  0.9082492349706398  0.13154080326879838  0.19568937574571527  1.0000
  C   C59       1.0  0.5917490124824808  0.8684574302782624  0.6956863339037583  1.0000
  C   C60       1.0  0.908246211147606  0.36846182014515  0.8043107818699368  1.0000
  C   C61       1.0  0.4082542568357964  0.36844678425896404  0.6956811004077609  1.0000
  C   C62       1.0  0.09174274350061037  0.8684496284395851  0.8043176958588277  1.0000
  C   C63       1.0  0.40825407106736117  0.131553957406858  0.3043194935865188  1.0000
  C   C64       1.0  0.09174465680424498  0.6315505654301888  0.1956819822989999  1.0000
  O   O1        1.0  0.8737872019495043  0.5831849598243012  0.9679625395655693  1.0000
  O   O2        1.0  0.626215876848235  0.08318180530558553  0.5320380542157892  1.0000
  O   O3        1.0  0.8737877394490424  0.9168150556460617  0.032038051083795  1.0000
  O   O4        1.0  0.6262157931648601  0.41681689083117146  0.4679626207223323  1.0000
  O   O5        1.0  0.12621143956747008  0.41681145930031943  0.03203955554020871  1.0000
  O   O6        1.0  0.3737894277162254  0.9168156117184981  0.4679609305774974  1.0000
  O   O7        1.0  0.12621090206484098  0.0831883488007605  0.9679603116480849  1.0000
  O   O8        1.0  0.37378951140048133  0.583186513619161  0.5320394743877941  1.0000
  O   O9        1.0  0.7777066416066774  0.40337960143361345  0.0332184795960799  1.0000
  O   O10       1.0  0.7222935633255855  0.9033768003834125  0.4667803140389424  1.0000
  O   O11       1.0  0.7777072094468807  0.09662105595250381  0.9667822516023961  1.0000
  O   O12       1.0  0.7222936444910601  0.5966232496457949  0.5332202203499321  1.0000
  O   O13       1.0  0.22229644194386106  0.5966098323633134  0.966782993444575  1.0000
  O   O14       1.0  0.27770952022199685  0.09661862083193991  0.5332174266273739  1.0000
  O   O15       1.0  0.22229698460748884  0.9033893338208757  0.0332167331964683  1.0000
  O   O16       1.0  0.27770832854951516  0.40338314851697993  0.46678249682374684  1.0000
  O   O17       1.0  0.6408588593021775  0.5107044993681384  0.3219732269878435  1.0000
  O   O18       1.0  0.859138126436761  0.010707613392419504  0.1780270827031316  1.0000
  O   O19       1.0  0.6408589906828721  0.9892935734289879  0.6780260330319621  1.0000
  O   O20       1.0  0.8591384193982631  0.48929302541683484  0.8219730566737837  1.0000
  O   O21       1.0  0.35914089272022653  0.48929191975065567  0.6780238916154674  1.0000
  O   O22       1.0  0.14085829406310782  0.9892957910596463  0.8219756344681812  1.0000
  O   O23       1.0  0.3591418718498431  0.0107078352142977  0.3219760620764518  1.0000
  O   O24       1.0  0.1408580010993177  0.5107043916061258  0.17802406192934944  1.0000
  O   O25       1.0  0.5355115971125314  0.7098881406487366  0.3556542663248621  1.0000
  O   O26       1.0  0.9644853316456901  0.20989314933167688  0.14434497684632672  1.0000
  O   O27       1.0  0.5355139686831761  0.790109956181418  0.6443461986980594  1.0000
  O   O28       1.0  0.9644823878712854  0.29010646754232283  0.855655201652482  1.0000
  O   O29       1.0  0.4644792708470503  0.2901092763812656  0.6443484508427488  1.0000
  O   O30       1.0  0.0355188624075069  0.7901132488230118  0.8556508976365862  1.0000
  O   O31       1.0  0.464480230798216  0.2098904545545679  0.35565216403166033  1.0000
  O   O32       1.0  0.0355206956797858  0.7098889536801494  0.1443487596421775  1.0000
