data_image0
_chemical_formula_structural       Cu2H20C28N12O8
_chemical_formula_sum              "Cu2 H20 C28 N12 O8"
_cell_length_a       9.4014699139258
_cell_length_b       9.405324618376133
_cell_length_c       9.405318923894995
_cell_angle_alpha    81.84666580916941
_cell_angle_beta     75.99921603609987
_cell_angle_gamma    75.9989563158248

_space_group_name_H-M_alt    "P 1"
_space_group_IT_number       1

loop_
  _space_group_symop_operation_xyz
  'x, y, z'

loop_
  _atom_site_type_symbol
  _atom_site_label
  _atom_site_symmetry_multiplicity
  _atom_site_fract_x
  _atom_site_fract_y
  _atom_site_fract_z
  _atom_site_occupancy
  Cu  Cu1       1.0  0.7381498584787921  0.9614885600121142  0.7017533062852266  1.0000
  Cu  Cu2       1.0  0.23814908244530394  0.7017614155725199  0.9614842978157441  1.0000
  H   H1        1.0  0.3887461132612983  0.026981734796585503  0.6170991447266376  1.0000
  H   H2        1.0  0.8887463935972308  0.6171009063057086  0.02698166360983123  1.0000
  H   H3        1.0  0.6105108901993505  0.48616269051757416  0.7847560660380143  1.0000
  H   H4        1.0  0.1105044693320494  0.7847494680250835  0.4861672154550476  1.0000
  H   H5        1.0  0.8739153013565544  0.8853305819151841  0.17461182827949537  1.0000
  H   H6        1.0  0.37391692642510344  0.17461564206455188  0.8853309527634394  1.0000
  H   H7        1.0  0.08993641331934302  0.2982524301524663  0.25261455868378146  1.0000
  H   H8        1.0  0.5899463340033719  0.25261207395064394  0.2982498428021288  1.0000
  H   H9        1.0  0.586270803499666  0.9373173635864801  0.0800901817521336  1.0000
  H   H10       1.0  0.08627220973843211  0.08008968784336191  0.9373058512974667  1.0000
  H   H11       1.0  0.9784043584114172  0.09838579991721022  0.41120063665427875  1.0000
  H   H12       1.0  0.4784024363773299  0.411204896430938  0.09838875993668951  1.0000
  H   H13       1.0  0.8085077520665042  0.627604160490371  0.5381905542347666  1.0000
  H   H14       1.0  0.30851598293998717  0.5381837231585395  0.6276062652660103  1.0000
  H   H15       1.0  0.21490474038641597  0.0398724820086613  0.45252104977566904  1.0000
  H   H16       1.0  0.714907244863568  0.45252266932396873  0.039866714018970115  1.0000
  H   H17       1.0  0.3100123891678949  0.995413418249349  0.1891676506271409  1.0000
  H   H18       1.0  0.8100119644102364  0.18916758894933142  0.9954028054056536  1.0000
  H   H19       1.0  0.0033061263287165986  0.5567214026209727  0.3115819995998876  1.0000
  H   H20       1.0  0.5033182230999955  0.31157870609256827  0.5567224966361408  1.0000
  C   C1        1.0  0.431137904243471  0.005101775483673501  0.5023843112153444  1.0000
  C   C2        1.0  0.9311362916680823  0.5023839325929131  0.005098364199277234  1.0000
  C   C3        1.0  0.44007767680035664  0.8983281134905357  0.8710699659997446  1.0000
  C   C4        1.0  0.9400665246342754  0.8710725028647701  0.8983250978914159  1.0000
  C   C5        1.0  0.5534740523438161  0.7529531200257792  0.8272846996791615  1.0000
  C   C6        1.0  0.05346237150033776  0.827285270799848  0.7529562815530185  1.0000
  C   C7        1.0  0.003143312097144212  0.3244194658882265  0.3510776261232138  1.0000
  C   C8        1.0  0.5031504275042735  0.3510766591681361  0.32442030281968204  1.0000
  C   C9        1.0  0.5423124817727542  0.9530883649494728  0.19610555587869535  1.0000
  C   C10       1.0  0.04231707189622111  0.1961058078929412  0.9530736524489001  1.0000
  C   C11       1.0  0.8320697376866735  0.25292741560621573  0.5637055808587093  1.0000
  C   C12       1.0  0.3320680892398826  0.5637070572235103  0.2529338421110054  1.0000
  C   C13       1.0  0.9434843110344959  0.21219050788121052  0.43822380301615027  1.0000
  C   C14       1.0  0.44348241696383184  0.4382240089227238  0.21219371292890102  1.0000
  C   C15       1.0  0.8451200952505791  0.5144839183288283  0.5094125972981871  1.0000
  C   C16       1.0  0.3451256628007044  0.5094111707811351  0.5144861745594937  1.0000
  C   C17       1.0  0.7848729911413204  0.40103961104760094  0.5981949462820993  1.0000
  C   C18       1.0  0.28486916081833163  0.5981947113256753  0.40104424202342415  1.0000
  C   C19       1.0  0.6392159522431913  0.9430708489350009  0.291103237930365  1.0000
  C   C20       1.0  0.13922025547791614  0.2911049684365565  0.9430605017023481  1.0000
  C   C21       1.0  0.33558393516519663  0.012886626266521302  0.4088184622369298  1.0000
  C   C22       1.0  0.8355854690300647  0.40881392824346113  0.012888201770252346  1.0000
  C   C23       1.0  0.3899379319981265  0.9880276433983327  0.2582005179798372  1.0000
  C   C24       1.0  0.8899391856551379  0.2581999810092555  0.9880183376362552  1.0000
  C   C25       1.0  0.9543069982181579  0.4727360747571794  0.3855593837852356  1.0000
  C   C26       1.0  0.45431159834442525  0.3855537686326683  0.47273697568540035  1.0000
  C   C27       1.0  0.5858873486555893  0.9692658055054862  0.4412360661152734  1.0000
  C   C28       1.0  0.08588635279801343  0.44123369938601803  0.9692601718294541  1.0000
  N   N1        1.0  0.8333951475506539  0.9185834363783054  0.39594506445995853  1.0000
  N   N2        1.0  0.33339780655024503  0.39594526300413696  0.9185816709267982  1.0000
  N   N3        1.0  0.6562370419830046  0.2614165852454633  0.7676118564548702  1.0000
  N   N4        1.0  0.15623388089917975  0.7676141790325274  0.2614244491742995  1.0000
  N   N5        1.0  0.7111446042901906  0.9531335285455216  0.49881867933293483  1.0000
  N   N6        1.0  0.21114460921603506  0.4988149472380741  0.953129598069637  1.0000
  N   N7        1.0  0.6766967591810416  0.3977023655495273  0.7243770587503207  1.0000
  N   N8        1.0  0.1766962041578212  0.7243761519627797  0.3977078856209886  1.0000
  N   N9        1.0  0.7488129454215767  0.1731810972648304  0.6722607690719757  1.0000
  N   N10       1.0  0.24880729096116755  0.6722636482821327  0.1731911521464085  1.0000
  N   N11       1.0  0.7921296057429289  0.9123023089717605  0.2713535829810498  1.0000
  N   N12       1.0  0.29213253392798333  0.2713569734548286  0.9122959730742083  1.0000
  O   O1        1.0  0.5064900115612688  0.6353739532999257  0.8642716914547108  1.0000
  O   O2        1.0  0.006470777232749524  0.8642580576100799  0.6353857186208743  1.0000
  O   O3        1.0  0.48795423141604033  0.015935278750561103  0.8371527276940187  1.0000
  O   O4        1.0  0.9879536192481312  0.8371508122707922  0.01593673134219403  1.0000
  O   O5        1.0  0.3067153277973559  0.8925100997789813  0.9379080743543469  1.0000
  O   O6        1.0  0.806709724143886  0.9379109940145227  0.8925169320123346  1.0000
  O   O7        1.0  0.6858758953940552  0.7607336029526337  0.7574252979906293  1.0000
  O   O8        1.0  0.18587315409929067  0.7574292030872272  0.7607379793760104  1.0000
