data_image0
_chemical_formula_structural       Zn2H48C56N8O12
_chemical_formula_sum              "Zn2 H48 C56 N8 O12"
_cell_length_a       10.718921702011569
_cell_length_b       11.458323024964269
_cell_length_c       11.98779033085619
_cell_angle_alpha    88.1076754637638
_cell_angle_beta     84.44174002911367
_cell_angle_gamma    73.86164685089018

_space_group_name_H-M_alt    "P 1"
_space_group_IT_number       1

loop_
  _space_group_symop_operation_xyz
  'x, y, z'

loop_
  _atom_site_type_symbol
  _atom_site_label
  _atom_site_symmetry_multiplicity
  _atom_site_fract_x
  _atom_site_fract_y
  _atom_site_fract_z
  _atom_site_occupancy
  Zn  Zn1       1.0  0.5697843657422297  0.06650266753988629  0.7503229513289683  1.0000
  Zn  Zn2       1.0  0.4302191748332123  0.9334937629431223  0.24968176169823417  1.0000
  H   H1        1.0  0.8658000591257319  0.2167065468035076  0.2630831291439365  1.0000
  H   H2        1.0  0.13420661511393933  0.7832881304814875  0.7368938840877493  1.0000
  H   H3        1.0  0.973436919348103  0.18358086403429752  0.372408749136504  1.0000
  H   H4        1.0  0.026550942588748738  0.8164209022636655  0.6275793725793833  1.0000
  H   H5        1.0  0.02588797077280703  0.23177525473843727  0.23756480348504996  1.0000
  H   H6        1.0  0.9741112502528678  0.7682282763990431  0.7624316620200561  1.0000
  H   H7        1.0  0.8284201363375132  0.6302072257152389  0.3528607965728341  1.0000
  H   H8        1.0  0.17158318746112391  0.3697881943875601  0.6471281075684061  1.0000
  H   H9        1.0  0.7411724710837005  0.8189445668420916  0.4633992976466318  1.0000
  H   H10       1.0  0.25884083689173554  0.1810543433057532  0.5365888182288857  1.0000
  H   H11       1.0  0.7618733514062441  0.6077163416623251  0.7689338671496131  1.0000
  H   H12       1.0  0.23813066814585693  0.3922800363990859  0.23104995563197414  1.0000
  H   H13       1.0  0.8559724334783994  0.419863715973392  0.6591080607148357  1.0000
  H   H14       1.0  0.14402198531808352  0.5801357108402811  0.34087717211008345  1.0000
  H   H15       1.0  0.5816601621164423  0.6410338296147347  0.03785888179253764  1.0000
  H   H16       1.0  0.4183352559953946  0.35897500641159047  0.9621360264341237  1.0000
  H   H17       1.0  0.6554605601338254  0.5572087126382784  0.15356216695293062  1.0000
  H   H18       1.0  0.3445425189585691  0.4427997312739366  0.8464322238108297  1.0000
  H   H19       1.0  0.5324027447033686  0.512493770509643  0.08818979945758802  1.0000
  H   H20       1.0  0.46759791539745527  0.4875108017277369  0.9118090401581116  1.0000
  H   H21       1.0  0.8719961652293475  0.3281904248006882  0.8207738549503958  1.0000
  H   H22       1.0  0.12800583815129585  0.671815199020905  0.17923153682501444  1.0000
  H   H23       1.0  0.08828153513982073  0.20828324896330488  0.7287371136618007  1.0000
  H   H24       1.0  0.9117225772244382  0.7917216034176563  0.2712706575892626  1.0000
  H   H25       1.0  0.27088543597394477  0.239397577993266  0.025671602328863213  1.0000
  H   H26       1.0  0.7291171539929733  0.7606034690792428  0.9743413883657795  1.0000
  H   H27       1.0  0.060095797099705785  0.36583603751258664  0.11297637113062822  1.0000
  H   H28       1.0  0.9399049613606325  0.6341648810208866  0.8870367496003768  1.0000
  H   H29       1.0  0.5365672351948662  0.13980607752598934  0.5073079386976859  1.0000
  H   H30       1.0  0.4634357178955851  0.8601866098212341  0.4927010931451009  1.0000
  H   H31       1.0  0.4909428528672279  0.32957736610760696  0.39543727018566704  1.0000
  H   H32       1.0  0.5090607350365913  0.6704116088235139  0.6045626456973282  1.0000
  H   H33       1.0  0.5565560117920683  0.5124021198347748  0.6868638332908007  1.0000
  H   H34       1.0  0.4434367414833672  0.4876009677066619  0.31313559417103687  1.0000
  H   H35       1.0  0.6024525501735595  0.3162748337311784  0.7836631159750952  1.0000
  H   H36       1.0  0.3975432571466727  0.6837349938035687  0.2163400806491111  1.0000
  H   H37       1.0  0.8495152215127747  0.04425774434625403  0.7017160380442107  1.0000
  H   H38       1.0  0.15048022965685695  0.9557297710512958  0.29829449300281413  1.0000
  H   H39       1.0  0.0485868625743251  0.0011726399862795026  0.8026337545582152  1.0000
  H   H40       1.0  0.9514045566713989  0.9988285253473564  0.19737332879345365  1.0000
  H   H41       1.0  0.7960441676472031  0.042662387197992827  0.11245359885583645  1.0000
  H   H42       1.0  0.20395354459284937  0.9573494645576301  0.8875569178372021  1.0000
  H   H43       1.0  0.6087123457492679  0.0845646141481637  0.9977140077403494  1.0000
  H   H44       1.0  0.3912821658593871  0.9154432869850594  0.0022951735540389126  1.0000
  H   H45       1.0  0.9311006848687315  0.32874780051091085  0.4918823608550441  1.0000
  H   H46       1.0  0.06888598616210832  0.6712445775430352  0.5081044415573431  1.0000
  H   H47       1.0  0.8431178085495221  0.43981771339944936  0.11264916030243204  1.0000
  H   H48       1.0  0.15687357906399774  0.5601862287239215  0.8873553431539989  1.0000
  C   C1        1.0  0.9426308699875462  0.2437196260928829  0.30116227071181373  1.0000
  C   C2        1.0  0.05736661186398345  0.7562790893559425  0.6988236053509242  1.0000
  C   C3        1.0  0.8914391920822453  0.37625815031461946  0.3321743285108454  1.0000
  C   C4        1.0  0.10855516923704299  0.6237412827896522  0.6678134111435483  1.0000
  C   C5        1.0  0.8464244444740388  0.5126839621480244  0.4987149108393184  1.0000
  C   C6        1.0  0.15357476962584118  0.48731021565887295  0.5012684718065686  1.0000
  C   C7        1.0  0.8166899388857872  0.6258573863694394  0.44374835407676744  1.0000
  C   C8        1.0  0.18330761637896842  0.3741432247612195  0.5562449720911574  1.0000
  C   C9        1.0  0.7681905675208683  0.7316341622945615  0.506857167533667  1.0000
  C   C10       1.0  0.2318211988981602  0.26836094464169946  0.493137003395269  1.0000
  C   C11       1.0  0.7465072893478181  0.7265482245214301  0.6240577499860012  1.0000
  C   C12       1.0  0.2535014523343051  0.2734475895859489  0.3759341064854667  1.0000
  C   C13       1.0  0.7803510756179008  0.6131571077386937  0.678225486804685  1.0000
  C   C14       1.0  0.21965177565014926  0.3868345566471376  0.32176272249319043  1.0000
  C   C15       1.0  0.8310265956631258  0.5076546977308424  0.616271968267128  1.0000
  C   C16       1.0  0.16896889794639242  0.49233922928856094  0.38371418128095064  1.0000
  C   C17       1.0  0.6790387857507981  0.8378996526599635  0.6913646737594378  1.0000
  C   C18       1.0  0.3209689060645715  0.16209611185594502  0.3086330969989818  1.0000
  C   C19       1.0  0.6169021997475924  0.5495240995047084  0.07359997218415511  1.0000
  C   C20       1.0  0.3830980937667973  0.45048415579267254  0.9263962848537943  1.0000
  C   C21       1.0  0.717370676602442  0.4721412142628553  0.9899337080416547  1.0000
  C   C22       1.0  0.28263837186460705  0.5278611470292844  0.010062112646721704  1.0000
  C   C23       1.0  0.9518594032249438  0.3536995467975359  0.9728720200548441  1.0000
  C   C24       1.0  0.04814786130376096  0.6463018111382509  0.027136467499786907  1.0000
  C   C25       1.0  0.9602670323558371  0.3097019729920306  0.8635104267080821  1.0000
  C   C26       1.0  0.03973586093310643  0.6903009445999473  0.13649998677385614  1.0000
  C   C27       1.0  0.08021978697888704  0.2429375744866604  0.813543134477101  1.0000
  C   C28       1.0  0.9197804356864482  0.7570651419093082  0.18646413162007755  1.0000
  C   C29       1.0  0.1935024049882658  0.21696056721545884  0.8698503232075726  1.0000
  C   C30       1.0  0.8065001048794898  0.7830358115792182  0.13015946849675694  1.0000
  C   C31       1.0  0.18466731847629347  0.26039109078147504  0.9793451583745993  1.0000
  C   C32       1.0  0.8153326200260833  0.7396097529981633  0.020663849325458703  1.0000
  C   C33       1.0  0.06590108637471563  0.3285564830382341  0.029487927041429905  1.0000
  C   C34       1.0  0.9340997104037496  0.6714444313015094  0.9705235224699253  1.0000
  C   C35       1.0  0.31994517066604544  0.1452277579951797  0.8125164985919328  1.0000
  C   C36       1.0  0.6800575601002593  0.8547760469952906  0.18748639171906234  1.0000
  C   C37       1.0  0.5413044504381616  0.22478792604874806  0.5427845255192737  1.0000
  C   C38       1.0  0.4586990709782129  0.775208506531129  0.4572210231177537  1.0000
  C   C39       1.0  0.5158218070954845  0.33221360104037956  0.4809725159644955  1.0000
  C   C40       1.0  0.4841807094581939  0.6677855503503027  0.5190330246249533  1.0000
  C   C41       1.0  0.5166907474522021  0.44129166213354415  0.5306996717255998  1.0000
  C   C42       1.0  0.4833087826827054  0.5587081922345265  0.4693018831867378  1.0000
  C   C43       1.0  0.5501227291539834  0.4338089856717033  0.6416857238871431  1.0000
  C   C44       1.0  0.44987003659459646  0.566191327176867  0.3583171190797502  1.0000
  C   C45       1.0  0.5763313316826171  0.3228613931469866  0.6975272331723377  1.0000
  C   C46       1.0  0.4236700334217717  0.6771432664254178  0.3024807331332511  1.0000
  C   C47       1.0  0.843244322032163  0.0434437148029403  0.7932017272021881  1.0000
  C   C48       1.0  0.15675472888622716  0.9565496112521503  0.206803383981665  1.0000
  C   C49       1.0  0.9538996817539597  0.017980110483570427  0.8504623789790957  1.0000
  C   C50       1.0  0.04609952589985509  0.9820178754618994  0.1495425887557715  1.0000
  C   C51       1.0  0.9418547194905003  0.015203672812610649  0.9681494755336005  1.0000
  C   C52       1.0  0.05814735384048228  0.9847991700255249  0.03185682491739782  1.0000
  C   C53       1.0  0.8147510405895274  0.042510711428903405  0.02163827954257871  1.0000
  C   C54       1.0  0.18524971208360339  0.9574957543934417  0.97836717456849  1.0000
  C   C55       1.0  0.708280477668076  0.0667774878921676  0.958399821158878  1.0000
  C   C56       1.0  0.2917194483611567  0.9332261305803371  0.04160577103612443  1.0000
  N   N1        1.0  0.8919486891349422  0.4009008577759659  0.44265712467706936  1.0000
  N   N2        1.0  0.1080347406220525  0.5990977978034806  0.5573288883659943  1.0000
  N   N3        1.0  0.8361269131403615  0.4215249027907149  0.030093145793408427  1.0000
  N   N4        1.0  0.1638700874102028  0.5784840890338855  0.9699124953246214  1.0000
  N   N5        1.0  0.5700561941436746  0.2200107221080074  0.64997744208641  1.0000
  N   N6        1.0  0.4299441785711552  0.7799938815823356  0.35003393167665564  1.0000
  N   N7        1.0  0.7223951528267563  0.06639342612731983  0.8457485523865672  1.0000
  N   N8        1.0  0.27760474389458517  0.9336027451807497  0.15425558510352746  1.0000
  O   O1        1.0  0.8500280997570329  0.45636555374782967  0.26183048689447475  1.0000
  O   O2        1.0  0.1499474965878065  0.5436335128175074  0.7381635640999136  1.0000
  O   O3        1.0  0.6481058585103553  0.8299496205505861  0.7943585449991134  1.0000
  O   O4        1.0  0.35187239717068036  0.1700272973300017  0.20563094682601965  1.0000
  O   O5        1.0  0.65328891682595  0.9406526862744471  0.6363822174969729  1.0000
  O   O6        1.0  0.3467435963634671  0.0593513837687425  0.36362695369559367  1.0000
  O   O7        1.0  0.69316773683547  0.45755612007223323  0.8926706361783802  1.0000
  O   O8        1.0  0.3068385428883288  0.5424562744623744  0.10732508998403033  1.0000
  O   O9        1.0  0.42358701350190137  0.1331602334128519  0.8651966141064449  1.0000
  O   O10       1.0  0.5764186212597052  0.8668484242765547  0.13480593770102442  1.0000
  O   O11       1.0  0.32501137338834246  0.10045147952921245  0.7170909336694109  1.0000
  O   O12       1.0  0.6749886733825008  0.899546579073231  0.2829173114865712  1.0000
