data_image0
_chemical_formula_structural       Ce2H40C42N8O18
_chemical_formula_sum              "Ce2 H40 C42 N8 O18"
_cell_length_a       10.030314391634624
_cell_length_b       11.535758991956131
_cell_length_c       13.67054491819468
_cell_angle_alpha    67.09772136335755
_cell_angle_beta     86.0581671986348
_cell_angle_gamma    75.25022767750924

_space_group_name_H-M_alt    "P 1"
_space_group_IT_number       1

loop_
  _space_group_symop_operation_xyz
  'x, y, z'

loop_
  _atom_site_type_symbol
  _atom_site_label
  _atom_site_symmetry_multiplicity
  _atom_site_fract_x
  _atom_site_fract_y
  _atom_site_fract_z
  _atom_site_occupancy
  Ce  Ce1       1.0  0.2340786129447068  0.5279936840468267  0.5014225685444487  1.0000
  Ce  Ce2       1.0  0.7640524707720788  0.4715842246700744  0.4993846814029297  1.0000
  H   H1        1.0  0.9479575224909097  0.7175858752030351  0.42047083534648516  1.0000
  H   H2        1.0  0.024663424812295973  0.7784681962250771  0.4795726433651666  1.0000
  H   H3        1.0  0.4173265443912229  0.2793420295400679  0.5107213862157494  1.0000
  H   H4        1.0  0.4982077216462316  0.38161962920181486  0.4364069357484226  1.0000
  H   H5        1.0  0.7062319388452992  0.1668647215300751  0.8401122395667431  1.0000
  H   H6        1.0  0.2923000317931539  0.4131341710801807  0.7906941577912934  1.0000
  H   H7        1.0  0.2593503776440542  0.3035953724528611  0.9858158440619604  1.0000
  H   H8        1.0  0.5398401361131845  0.9938166917571039  0.18217077365549983  1.0000
  H   H9        1.0  0.9591286771820793  0.7594038784627486  0.24349971041748833  1.0000
  H   H10       1.0  0.006921337506845859  0.8848198576142962  0.0557585838727377  1.0000
  H   H11       1.0  0.9009225842510703  0.45406759783325157  0.16436680521123043  1.0000
  H   H12       1.0  0.24236313619763195  0.583260587354033  0.22661311369151346  1.0000
  H   H13       1.0  0.310970533874297  0.6204277779269133  0.03934220277028542  1.0000
  H   H14       1.0  0.2176347014801935  0.6511694640909695  0.7018079262767857  1.0000
  H   H15       1.0  0.3697085279491432  0.8953217653858588  0.5094126105580513  1.0000
  H   H16       1.0  0.4871916581901274  0.8714930249365481  0.6122424911382466  1.0000
  H   H17       1.0  0.3301029135897765  0.9937672175456456  0.5876458473418538  1.0000
  H   H18       1.0  0.2133934337634004  0.8914465947654833  0.7677248422767634  1.0000
  H   H19       1.0  0.386977308097329  0.7993613434654208  0.8043185914946989  1.0000
  H   H20       1.0  0.2516346182643403  0.7178389902328135  0.8219559869413757  1.0000
  H   H21       1.0  0.05193237553381642  0.2819607946379961  0.5799034909253679  1.0000
  H   H22       1.0  0.9733481333585772  0.22018823422885703  0.5228056904512215  1.0000
  H   H23       1.0  0.5842964216012448  0.721003689506773  0.4897636571254084  1.0000
  H   H24       1.0  0.5022284938646068  0.6194550710415143  0.5634794955119418  1.0000
  H   H25       1.0  0.2938489237421963  0.8340283421693826  0.16012321892674214  1.0000
  H   H26       1.0  0.7065910185780953  0.5854581247092128  0.20981751727526188  1.0000
  H   H27       1.0  0.7396601772698758  0.6940243972874001  0.014515626195674293  1.0000
  H   H28       1.0  0.4607227153602125  0.005829553477525506  0.8181962230042432  1.0000
  H   H29       1.0  0.0415148957775457  0.2404669520636489  0.7562730295272146  1.0000
  H   H30       1.0  0.9932011480073014  0.11506414272998458  0.943843464663452  1.0000
  H   H31       1.0  0.09888980219192689  0.5461194741189885  0.8351380353528626  1.0000
  H   H32       1.0  0.7566666126759858  0.41779107575391816  0.7729075651651839  1.0000
  H   H33       1.0  0.6884810043339299  0.3803552813963051  0.9601912769414866  1.0000
  H   H34       1.0  0.7843734303105093  0.3482669583919531  0.29765895950527727  1.0000
  H   H35       1.0  0.6312968452492099  0.10508024470488658  0.490374879404918  1.0000
  H   H36       1.0  0.5125326465896762  0.1303378448855099  0.3879065843581558  1.0000
  H   H37       1.0  0.6687985538937299  0.007185540290400602  0.41162514439078995  1.0000
  H   H38       1.0  0.785972483084919  0.1087003099623374  0.23182429005120042  1.0000
  H   H39       1.0  0.6124784325879276  0.20116511927778902  0.1955314568714499  1.0000
  H   H40       1.0  0.748265993386859  0.2823053393281896  0.17736904438069703  1.0000
  C   C1        1.0  0.5283347638753284  0.3691888672287291  0.6857776143225892  1.0000
  C   C2        1.0  0.5767243371670716  0.1412807217505545  0.9765853219704042  1.0000
  C   C3        1.0  0.6058438333837374  0.2000105028217192  0.8691485945726143  1.0000
  C   C4        1.0  0.5032598966679842  0.30030896752004577  0.8008640712109881  1.0000
  C   C5        1.0  0.3754187524937933  0.3376521675843307  0.8424371977421857  1.0000
  C   C6        1.0  0.3571210615358851  0.2752728064410945  0.950701356446672  1.0000
  C   C7        1.0  0.708108918522001  0.7950224663637258  0.3397697021775059  1.0000
  C   C8        1.0  0.6804805255660114  0.0326676532894155  0.0527793956375291  1.0000
  C   C9        1.0  0.6444423837829164  0.9668246353792185  0.1570128630497223  1.0000
  C   C10       1.0  0.7445407336216476  0.8669520241418525  0.22764648582177216  1.0000
  C   C11       1.0  0.8773104800899747  0.8355277456043312  0.19115292171411366  1.0000
  C   C12       1.0  0.9035385061736461  0.9056520551606936  0.08587480580073502  1.0000
  C   C13       1.0  0.01615242674026967  0.49378648477806314  0.3203573037922425  1.0000
  C   C14       1.0  0.038189285923188335  0.5133727897906368  0.03727368820596407  1.0000
  C   C15       1.0  0.992849980009424  0.4903588626715774  0.14055880624470518  1.0000
  C   C16       1.0  0.0657110167002628  0.5149786606878237  0.2106239178933862  1.0000
  C   C17       1.0  0.1832204119614076  0.5619777980397772  0.17459542536325753  1.0000
  C   C18       1.0  0.22036651108674477  0.5827772520629892  0.06995506192888717  1.0000
  C   C19       1.0  0.26697915723857346  0.7176429090661571  0.6375781465094192  1.0000
  C   C20       1.0  0.37775547808465143  0.8966032080115482  0.5884191847406796  1.0000
  C   C21       1.0  0.28920578037639183  0.8024690958554929  0.7705480525381603  1.0000
  C   C22       1.0  0.4708464806709856  0.631207641488821  0.31460824444786795  1.0000
  C   C23       1.0  0.4231867884475378  0.8583515097114824  0.023620456144456733  1.0000
  C   C24       1.0  0.3940155994940185  0.8002085298227541  0.13111503809345493  1.0000
  C   C25       1.0  0.4962123275088572  0.6995699846564278  0.19940712444158493  1.0000
  C   C26       1.0  0.6237929335921565  0.6612803772915256  0.15797853363529415  1.0000
  C   C27       1.0  0.6421966994232946  0.7231661953405818  0.04962687169525275  1.0000
  C   C28       1.0  0.29310124647919616  0.20464886922161443  0.6604359196282488  1.0000
  C   C29       1.0  0.31967637610521393  0.9670561103161788  0.9473113605890549  1.0000
  C   C30       1.0  0.35601850333178214  0.03281405290056941  0.8431737743915593  1.0000
  C   C31       1.0  0.2561102681249778  0.1327270791359538  0.772411394532064  1.0000
  C   C32       1.0  0.1232261996289168  0.16426713747664934  0.8086835998512713  1.0000
  C   C33       1.0  0.09668213913707291  0.0941729274914778  0.9139030380854578  1.0000
  C   C34       1.0  0.9835635308592713  0.5062569753930717  0.6793946568580865  1.0000
  C   C35       1.0  0.96156958912497  0.487018085903081  0.9622048463858945  1.0000
  C   C36       1.0  0.006872347117912622  0.5099765688573042  0.8589821228230151  1.0000
  C   C37       1.0  0.9338309101197526  0.48562152459204805  0.7887621305279425  1.0000
  C   C38       1.0  0.816106826035977  0.4387933459699553  0.8249289959670351  1.0000
  C   C39       1.0  0.7791496748250069  0.41790014846093015  0.9295749980789196  1.0000
  C   C40       1.0  0.7347033474918521  0.2821822093636754  0.3619162495153249  1.0000
  C   C41       1.0  0.6222340915058026  0.10431653814828222  0.4112984059239224  1.0000
  C   C42       1.0  0.7105409531753252  0.19787136436914207  0.2289998156907771  1.0000
  N   N1        1.0  0.4545549435470875  0.1796075821067689  0.01704965310833727  1.0000
  N   N2        1.0  0.8084784573101444  0.0023495259875261007  0.017610999457552613  1.0000
  N   N3        1.0  0.15086947298678413  0.5599265979085571  0.0018015885283019944  1.0000
  N   N4        1.0  0.30965316792075015  0.8022544500248399  0.6639830975357769  1.0000
  N   N5        1.0  0.5450715014373202  0.8190995219620092  0.9832409677870189  1.0000
  N   N6        1.0  0.19158433428521698  0.9974379020890041  0.982292009203647  1.0000
  N   N7        1.0  0.8487508768197429  0.4406156859996457  0.99781547361237  1.0000
  N   N8        1.0  0.6907279757492972  0.19822613334942218  0.33558033284533206  1.0000
  O   O1        1.0  0.4248084866826076  0.44857630254626457  0.6257930730491879  1.0000
  O   O2        1.0  0.650850605975485  0.3499412725887865  0.6537160955242529  1.0000
  O   O3        1.0  0.7995972503025754  0.6919859029211608  0.3969988612479725  1.0000
  O   O4        1.0  0.5930369031747633  0.83601676709263  0.3729979869029166  1.0000
  O   O5        1.0  0.08892659570994255  0.5105343072260382  0.38434482691959454  1.0000
  O   O6        1.0  0.9024876230378641  0.4615239725970993  0.34478037854530186  1.0000
  O   O7        1.0  0.27909922795078773  0.7113068965136263  0.5473058322094104  1.0000
  O   O8        1.0  0.03863076133357174  0.7335384589981543  0.431194304016387  1.0000
  O   O9        1.0  0.4070822561204185  0.3632136528726022  0.446120831200993  1.0000
  O   O10       1.0  0.5746813526713481  0.5521993033660451  0.37462910406378575  1.0000
  O   O11       1.0  0.34856610576191127  0.6502118142976984  0.34652572035302154  1.0000
  O   O12       1.0  0.20153426507900465  0.3074441572889697  0.6028787272415741  1.0000
  O   O13       1.0  0.4085535539754376  0.164006663566056  0.6276009271355748  1.0000
  O   O14       1.0  0.911708120117588  0.48859192277363656  0.6153506421792728  1.0000
  O   O15       1.0  0.09736908093465502  0.5388439346744888  0.6548194092708358  1.0000
  O   O16       1.0  0.7235148681014465  0.2883358758420229  0.4523090516973483  1.0000
  O   O17       1.0  0.9608414282657949  0.2662399088734873  0.5702916933944167  1.0000
  O   O18       1.0  0.5937785994754209  0.6370617789720611  0.5542727294782283  1.0000
