data_image0
_chemical_formula_structural       Cd2P4H40C28S8N4O8
_chemical_formula_sum              "Cd2 P4 H40 C28 S8 N4 O8"
_cell_length_a       10.274798833925582
_cell_length_b       10.70863761745683
_cell_length_c       12.551824799899675
_cell_angle_alpha    77.89272531379055
_cell_angle_beta     66.77183481704441
_cell_angle_gamma    63.45152293983289

_space_group_name_H-M_alt    "P 1"
_space_group_IT_number       1

loop_
  _space_group_symop_operation_xyz
  'x, y, z'

loop_
  _atom_site_type_symbol
  _atom_site_label
  _atom_site_symmetry_multiplicity
  _atom_site_fract_x
  _atom_site_fract_y
  _atom_site_fract_z
  _atom_site_occupancy
  Cd  Cd1       1.0  0.680805585654589  0.765771847379284  0.7555161837861136  1.0000
  Cd  Cd2       1.0  0.31919254216219173  0.2342285188954207  0.24448447213127622  1.0000
  P   P1        1.0  0.681618910972162  0.0679177571574172  0.7192369278569544  1.0000
  P   P2        1.0  0.3183827520258261  0.9320794824174001  0.280763131254389  1.0000
  P   P3        1.0  0.9730736174100085  0.489213235949741  0.7728540088455562  1.0000
  P   P4        1.0  0.02692709867505985  0.5107860929808864  0.22714600172174934  1.0000
  H   H1        1.0  0.435601761375338  0.8472507883738558  0.6255324982163089  1.0000
  H   H2        1.0  0.5643969503909005  0.15275062624566257  0.3744677986180137  1.0000
  H   H3        1.0  0.3521625164624283  0.7459837984246603  0.5189665971214906  1.0000
  H   H4        1.0  0.6478346644414401  0.2540186572058474  0.48103401025186804  1.0000
  H   H5        1.0  0.7090671790505354  0.3437618244473271  0.5654899910032753  1.0000
  H   H6        1.0  0.29093201369040844  0.6562385712951981  0.43450872985149414  1.0000
  H   H7        1.0  0.7743162350769596  0.4627050050257607  0.6715652934947798  1.0000
  H   H8        1.0  0.22568401506989488  0.5372953943836762  0.32843309254893444  1.0000
  H   H9        1.0  0.3853678527573194  0.05976756936471618  0.7989275882775289  1.0000
  H   H10       1.0  0.6146313211880067  0.9402327618755353  0.20107513320617443  1.0000
  H   H11       1.0  0.10128695503237135  0.16611859328527598  0.8890910808592383  1.0000
  H   H12       1.0  0.8987128983188982  0.8338848277206667  0.1109140986894559  1.0000
  H   H13       1.0  0.12822839419677473  0.7546083088389538  0.038182997619784845  1.0000
  H   H14       1.0  0.871768779188841  0.24539412099063898  0.961819210005146  1.0000
  H   H15       1.0  0.40903881782151075  0.6660212749435245  0.93609567838687  1.0000
  H   H16       1.0  0.5909582488302404  0.3339790747638176  0.0639061124673574  1.0000
  H   H17       1.0  0.0458431220158388  0.08893560681278961  0.6011457779577682  1.0000
  H   H18       1.0  0.9541555897503997  0.9110658078067287  0.398854518876554  1.0000
  H   H19       1.0  0.007570675593441989  0.9428104951209516  0.5970892662481121  1.0000
  H   H20       1.0  0.9924285171475021  0.057189900621580095  0.40290945460665745  1.0000
  H   H21       1.0  0.9887700833208373  0.9898859662840707  0.7331715485727555  1.0000
  H   H22       1.0  0.0112306327642315  0.0101133626465568  0.2668284619945567  1.0000
  H   H23       1.0  0.38311003698813545  0.3823883710092347  0.8481376118876371  1.0000
  H   H24       1.0  0.6168910345421497  0.617607794419861  0.15186440655835298  1.0000
  H   H25       1.0  0.5809351324516285  0.31982649535776625  0.8400806274108562  1.0000
  H   H26       1.0  0.41907053918400544  0.6801665728392693  0.15991885916646  1.0000
  H   H27       1.0  0.4647457201056824  0.22467824866131283  0.9269947933770696  1.0000
  H   H28       1.0  0.5352584206675817  0.7753158605467192  0.0730050037392758  1.0000
  H   H29       1.0  0.16290994862661282  0.5709807915336  0.9112183164610386  1.0000
  H   H30       1.0  0.837089354607322  0.4290216972316401  0.08878002103864444  1.0000
  H   H31       1.0  0.9613300595575469  0.6571883121494508  0.9292919154387532  1.0000
  H   H32       1.0  0.03866912942427088  0.34281207069262365  0.07070760554179861  1.0000
  H   H33       1.0  0.10233160403696215  0.6716604036417381  0.7911198658037932  1.0000
  H   H34       1.0  0.8976681726534326  0.3283410404455934  0.20887849596790176  1.0000
  H   H35       1.0  0.20945563510155554  0.16476618855759986  0.6379643991919721  1.0000
  H   H36       1.0  0.7905450809835128  0.8352331403730207  0.3620356113753332  1.0000
  H   H37       1.0  0.2825376116690919  0.27743671909157536  0.6605755540261598  1.0000
  H   H38       1.0  0.7174626347186361  0.7225636674174041  0.339423632143344  1.0000
  H   H39       1.0  0.17374964666650786  0.33285515449130537  0.5635540553958834  1.0000
  H   H40       1.0  0.8262495385561834  0.6671452154503114  0.4364462657104583  1.0000
  C   C1        1.0  0.4913992376223035  0.7351835805831115  0.6119340368179423  1.0000
  C   C2        1.0  0.5085988939536036  0.2648167985920508  0.38806581897365794  1.0000
  C   C3        1.0  0.4452045029729987  0.6770335682446315  0.5518353748446856  1.0000
  C   C4        1.0  0.554789975410472  0.322967818806795  0.44816706135962653  1.0000
  C   C5        1.0  0.5217926822569086  0.5331256386115584  0.5324423298246685  1.0000
  C   C6        1.0  0.47820661345878074  0.4668768243527666  0.4675576079265867  1.0000
  C   C7        1.0  0.6429058917949889  0.4553962304941164  0.5763740790215337  1.0000
  C   C8        1.0  0.3570938811362794  0.5446052006927645  0.4236250828759509  1.0000
  C   C9        1.0  0.6809029120932237  0.5213833662781012  0.6365072552243518  1.0000
  C   C10       1.0  0.31909733805363055  0.4786170331313356  0.36349113081936224  1.0000
  C   C11       1.0  0.32308010051333713  0.9957782785418773  0.852163727057139  1.0000
  C   C12       1.0  0.6769195544066946  0.004221033821380599  0.1478374184470041  1.0000
  C   C13       1.0  0.1630536520859138  0.0548431735443984  0.9039466339942738  1.0000
  C   C14       1.0  0.8369440977309068  0.9451602788290925  0.0960568147991624  1.0000
  C   C15       1.0  0.08527969201234238  0.9705109987895495  0.972126609815959  1.0000
  C   C16       1.0  0.9147185387791837  0.029491434706955002  0.02787526299791657  1.0000
  C   C17       1.0  0.17707696987573482  0.8280562564511982  0.985046989219292  1.0000
  C   C18       1.0  0.8229212684340437  0.1719462028462146  0.014953283343011497  1.0000
  C   C19       1.0  0.33648389536697476  0.7770113016642455  0.9287083718706272  1.0000
  C   C20       1.0  0.6635126978283238  0.22299009272099116  0.07129339471158151  1.0000
  C   C21       1.0  0.9745858229071233  0.0302614427966361  0.6486496458559046  1.0000
  C   C22       1.0  0.025415954342974965  0.9697379027013538  0.35134922977456995  1.0000
  C   C23       1.0  0.4885179025463486  0.2895880383646983  0.8475108662593557  1.0000
  C   C24       1.0  0.5114848216166692  0.7104092177774887  0.15248805791515  1.0000
  C   C25       1.0  0.07826930898073665  0.6030372005195163  0.8678890664433683  1.0000
  C   C26       1.0  0.9217304639505314  0.3969642306673578  0.13211009545412367  1.0000
  C   C27       1.0  0.18720273400023768  0.27351540796870205  0.6439896417483837  1.0000
  C   C28       1.0  0.8127985660342816  0.7264849693067319  0.3560100097358614  1.0000
  S   S1        1.0  0.7044831009685809  0.9470146753871589  0.860317900256895  1.0000
  S   S2        1.0  0.2955196194353107  0.05298256785457771  0.1396818240434001  1.0000
  S   S3        1.0  0.6666410293990808  0.9856528833721541  0.598081411724742  1.0000
  S   S4        1.0  0.3333601639015669  0.0143454137810224  0.4019178229887928  1.0000
  S   S5        1.0  0.7607485778158888  0.5294006142023664  0.890067492524999  1.0000
  S   S6        1.0  0.23925213826917266  0.47059871472826137  0.10993251804231359  1.0000
  S   S7        1.0  0.9843790806387887  0.6204767889628259  0.6349221603748277  1.0000
  S   S8        1.0  0.01562116574893928  0.3795235975461538  0.365077025794676  1.0000
  N   N1        1.0  0.6066415614216043  0.6589984025744967  0.6545320598149615  1.0000
  N   N2        1.0  0.3933586887252503  0.34100199683494026  0.3454663262287596  1.0000
  N   N3        1.0  0.4092251557351431  0.8587521187553622  0.8627971847147506  1.0000
  N   N4        1.0  0.5907740219693024  0.14124822538533982  0.13720473664316304  1.0000
  O   O1        1.0  0.8158210377715849  0.12747240039534094  0.6654569648029635  1.0000
  O   O2        1.0  0.18418120917584688  0.8725258875242901  0.3345427352253125  1.0000
  O   O3        1.0  0.5312861126780746  0.214064759871448  0.7473739023163477  1.0000
  O   O4        1.0  0.46871332125596854  0.7859303664463867  0.2526280098979683  1.0000
  O   O5        1.0  0.09206876831219554  0.4755404341174838  0.8335380129926975  1.0000
  O   O6        1.0  0.9079314743164062  0.524459939491038  0.1664619733025957  1.0000
  O   O7        1.0  0.04251623049639616  0.3288401393068412  0.7399540492136297  1.0000
  O   O8        1.0  0.9574866004004934  0.6711591969576033  0.26004529173157914  1.0000
