data_image0
_chemical_formula_structural       AlH9C21NCl3O6
_chemical_formula_sum              "Al1 H9 C21 N1 Cl3 O6"
_cell_length_a       4.114941426133464
_cell_length_b       13.481957764825403
_cell_length_c       13.4821102873892
_cell_angle_alpha    119.99869710831545
_cell_angle_beta     89.99920438221613
_cell_angle_gamma    90.00075187190593

_space_group_name_H-M_alt    "P 1"
_space_group_IT_number       1

loop_
  _space_group_symop_operation_xyz
  'x, y, z'

loop_
  _atom_site_type_symbol
  _atom_site_label
  _atom_site_symmetry_multiplicity
  _atom_site_fract_x
  _atom_site_fract_y
  _atom_site_fract_z
  _atom_site_occupancy
  Al  Al1       1.0  0.024004911764173204  0.4999989652742086  0.49999512733128165  1.0000
  H   H1        1.0  0.2251163485000163  0.8117900736506414  0.7835418780931818  1.0000
  H   H2        1.0  0.20790380820535861  0.02268933421248691  0.8939232994084775  1.0000
  H   H3        1.0  0.7665641812498837  0.0346766608987537  0.6293974125819375  1.0000
  H   H4        1.0  0.7665702983432326  0.09472178907299186  0.9653335409884746  1.0000
  H   H5        1.0  0.22510265570516452  0.47173709560071597  0.1881905489590991  1.0000
  H   H6        1.0  0.2078729187228632  0.3712182060522764  0.9773000115779807  1.0000
  H   H7        1.0  0.7665604315183074  0.37060733257809625  0.9052814496989967  1.0000
  H   H8        1.0  0.22511416042942056  0.21645360321593907  0.5282599615180317  1.0000
  H   H9        1.0  0.20788460621045604  0.10607576829924176  0.6287824974972693  1.0000
  C   C1        1.0  0.5217586351550879  0.4057488370772404  0.32537345569544845  1.0000
  C   C2        1.0  0.5217360713721036  0.419621467796901  0.5942419915654611  1.0000
  C   C3        1.0  0.5217612109081244  0.6746154530676451  0.5803657037640377  1.0000
  C   C4        1.0  0.34722677359967963  0.8610652493506663  0.7505081430628168  1.0000
  C   C5        1.0  0.33490456354525844  0.9800032137006838  0.8123174443930807  1.0000
  C   C6        1.0  0.487891507394707  0.04516458071604025  0.7707041760333411  1.0000
  C   C7        1.0  0.6477361939424073  0.9873169068305216  0.6648067555503018  1.0000
  C   C8        1.0  0.6516014267340468  0.8682282805714436  0.6024716809305914  1.0000
  C   C9        1.0  0.5073103139538446  0.8029634526005864  0.6448727734760951  1.0000
  C   C10       1.0  0.6477332349100777  0.1774848823479829  0.012684606958636368  1.0000
  C   C11       1.0  0.6515958141812205  0.23424124740609636  0.13177142553735163  1.0000
  C   C12       1.0  0.5073175848206404  0.34190063931326625  0.1970237213442019  1.0000
  C   C13       1.0  0.34719120765450384  0.3894293866822807  0.13892681292433906  1.0000
  C   C14       1.0  0.3349105145338598  0.3323045776087952  0.019988888402636445  1.0000
  C   C15       1.0  0.48788889067241575  0.2255349980001924  0.9548383015297901  1.0000
  C   C16       1.0  0.6477238242205418  0.3351931602249039  0.8225116135843322  1.0000
  C   C17       1.0  0.6516073562735871  0.39752909128484504  0.7657532288737912  1.0000
  C   C18       1.0  0.5073321410227366  0.35512052645621855  0.6580887780675654  1.0000
  C   C19       1.0  0.3472168735719309  0.24949460263881923  0.6105725700087277  1.0000
  C   C20       1.0  0.33490552099018334  0.18767492497072177  0.6676973447896658  1.0000
  C   C21       1.0  0.4878928922727398  0.22929763812375364  0.7744654397863541  1.0000
  N   N1        1.0  0.4802984411451306  0.16666471262798427  0.8333335401737828  1.0000
  Cl  Cl1       1.0  0.8367379808515099  0.8012919938145303  0.46941457635652023  1.0000
  Cl  Cl2       1.0  0.8367401878224643  0.16812703927598702  0.1987132971655825  1.0000
  Cl  Cl3       1.0  0.8367462423437645  0.5305829572117559  0.8318634086356268  1.0000
  O   O1        1.0  0.763454602137948  0.6292113089013116  0.6015787721467661  1.0000
  O   O2        1.0  0.7634368599707673  0.4723692333667132  0.37077861312842947  1.0000
  O   O3        1.0  0.7634343145351609  0.3984103638512623  0.5276242917910992  1.0000
  O   O4        1.0  0.29130629721631623  0.6212597798771071  0.5113478534543532  1.0000
  O   O5        1.0  0.29128919675184056  0.4886445223258987  0.6099084404691978  1.0000
  O   O6        1.0  0.29128484706518526  0.39008536459090243  0.3787315796811725  1.0000
