data_image0
_chemical_formula_structural       Ag4H48C44S12N8O20F12
_chemical_formula_sum              "Ag4 H48 C44 S12 N8 O20 F12"
_cell_length_a       12.055460417147065
_cell_length_b       12.721829170848208
_cell_length_c       12.897020503048234
_cell_angle_alpha    90.00011463461097
_cell_angle_beta     89.99968785526868
_cell_angle_gamma    118.46018385946633

_space_group_name_H-M_alt    "P 1"
_space_group_IT_number       1

loop_
  _space_group_symop_operation_xyz
  'x, y, z'

loop_
  _atom_site_type_symbol
  _atom_site_label
  _atom_site_symmetry_multiplicity
  _atom_site_fract_x
  _atom_site_fract_y
  _atom_site_fract_z
  _atom_site_occupancy
  Ag  Ag1       1.0  0.3028718124948356  0.9778880895484934  0.8877090972122302  1.0000
  Ag  Ag2       1.0  0.1971290499830616  0.022109038707782202  0.3877138742491936  1.0000
  Ag  Ag3       1.0  0.6971159170673218  0.022115056845571215  0.112293169702383  1.0000
  Ag  Ag4       1.0  0.8028785606562395  0.9778890022029929  0.6122868418638348  1.0000
  H   H1        1.0  0.18296342646551988  0.6604418597582368  0.8386039510622681  1.0000
  H   H2        1.0  0.31703841658122667  0.3395650925446391  0.3386064138817773  1.0000
  H   H3        1.0  0.8170379978655264  0.33955877703345294  0.1613967650691137  1.0000
  H   H4        1.0  0.6829652584879684  0.6604417930312895  0.6613943022500023  1.0000
  H   H5        1.0  0.11433109660157473  0.6900646007283484  0.948974608904571  1.0000
  H   H6        1.0  0.385668300189508  0.3099386913120343  0.44897511203041773  1.0000
  H   H7        1.0  0.8856691470584368  0.3099386894628894  0.0510261072324454  1.0000
  H   H8        1.0  0.6143331713027892  0.6900637239994155  0.5510248287297088  1.0000
  H   H9        1.0  0.9717917976428583  0.4831642625717196  0.8807362994163341  1.0000
  H   H10       1.0  0.5282088255936375  0.5168352368168956  0.3807374852604184  1.0000
  H   H11       1.0  0.028207910985997876  0.5168345765279201  0.119263641344773  1.0000
  H   H12       1.0  0.4717951015584206  0.48316542873440965  0.6192624554917145  1.0000
  H   H13       1.0  0.8999122565531794  0.5787331461059041  0.8732813667667327  1.0000
  H   H14       1.0  0.6000888535655022  0.4212672530136815  0.37328044657835585  1.0000
  H   H15       1.0  0.10008960849132359  0.42126838473844697  0.1267201247372896  1.0000
  H   H16       1.0  0.3999137985954207  0.5787325088979359  0.6267202695490255  1.0000
  H   H17       1.0  0.7787049707525926  0.5198130751892763  0.7349077979594085  1.0000
  H   H18       1.0  0.7212969961557008  0.4801874293072005  0.2349063743939723  1.0000
  H   H19       1.0  0.22129772856717994  0.4801884652418027  0.2650929181696071  1.0000
  H   H20       1.0  0.2787052152917725  0.5198114385517557  0.7650935663607753  1.0000
  H   H21       1.0  0.7926540096337649  0.385570704471043  0.7260621763912879  1.0000
  H   H22       1.0  0.7073463435032893  0.6144297875892875  0.22605953746798954  1.0000
  H   H23       1.0  0.2073457461419395  0.6144299131465872  0.2739416412358864  1.0000
  H   H24       1.0  0.2926571429329102  0.38556998390905767  0.7739404032843851  1.0000
  H   H25       1.0  0.8892575067395896  0.44930474035241735  0.5494072370765579  1.0000
  H   H26       1.0  0.6107460494735834  0.5506967994624362  0.0494065170851883  1.0000
  H   H27       1.0  0.11074519257778097  0.5506968000783703  0.4505942544253472  1.0000
  H   H28       1.0  0.3892574369650178  0.44930297203620745  0.950592648294311  1.0000
  H   H29       1.0  0.7302845081551368  0.4219462567855958  0.5587035618143048  1.0000
  H   H30       1.0  0.7697164405262954  0.5780534686718471  0.058700532651783995  1.0000
  H   H31       1.0  0.26971608189823126  0.5780543704190678  0.4412987050649733  1.0000
  H   H32       1.0  0.23028572376712492  0.4219436206682305  0.9412978573555648  1.0000
  H   H33       1.0  0.794487547010057  0.5799301687608819  0.40038559135400226  1.0000
  H   H34       1.0  0.7055116795782015  0.42006841202538686  0.9003848665285119  1.0000
  H   H35       1.0  0.20551480591155527  0.42007403465618165  0.5996151247785164  1.0000
  H   H36       1.0  0.29448670690067763  0.5799277449150964  0.09961584960623068  1.0000
  H   H37       1.0  0.9347240127651091  0.567522236654611  0.4121181633875395  1.0000
  H   H38       1.0  0.5652764633197408  0.43247901735514216  0.912118954869925  1.0000
  H   H39       1.0  0.06527657729306928  0.4324783905506424  0.5878825527459668  1.0000
  H   H40       1.0  0.43472452029544684  0.5675207253835951  0.08788176126170551  1.0000
  H   H41       1.0  0.9132194419992887  0.7989998297702458  0.43933325893672054  1.0000
  H   H42       1.0  0.5867733099536991  0.20099953871610413  0.9393358112640158  1.0000
  H   H43       1.0  0.0867820294906068  0.20100258554091976  0.5606674571962955  1.0000
  H   H44       1.0  0.41321800877319964  0.7989974259979108  0.06066878175400349  1.0000
  H   H45       1.0  0.9759939165187748  0.7582694251701201  0.3306707515991505  1.0000
  H   H46       1.0  0.5240036324673625  0.24172829548028577  0.8306713786679012  1.0000
  H   H47       1.0  0.02400500499125973  0.24173118286195472  0.6693307399114871  1.0000
  H   H48       1.0  0.4759947540091148  0.7582678614599063  0.1693301128397238  1.0000
  C   C1        1.0  0.09073118313823877  0.8288722799287529  0.6002074296688135  1.0000
  C   C2        1.0  0.4092606611321514  0.17112672116845576  0.1002075391338479  1.0000
  C   C3        1.0  0.9092768682265275  0.1711266550361614  0.39979018495242963  1.0000
  C   C4        1.0  0.5907282491202396  0.8288737718284268  0.8997885247920507  1.0000
  C   C5        1.0  0.1368146024455045  0.7866440934433073  0.6776972611893584  1.0000
  C   C6        1.0  0.36317455843217067  0.21335037837668847  0.17770001531499696  1.0000
  C   C7        1.0  0.8631905525412409  0.21335569722850786  0.3223011288130095  1.0000
  C   C8        1.0  0.6368125889423766  0.7866465384066074  0.8223007008492047  1.0000
  C   C9        1.0  0.10214180127658079  0.6705179398447857  0.8656189341480952  1.0000
  C   C10       1.0  0.3978573245237911  0.32948718460684034  0.3656201888260853  1.0000
  C   C11       1.0  0.8978579545111245  0.32948267777432966  0.134381006614646  1.0000
  C   C12       1.0  0.6021441941297568  0.6705170092243763  0.6343789765627861  1.0000
  C   C13       1.0  0.975935222854176  0.5628012751164351  0.8426926965509551  1.0000
  C   C14       1.0  0.5240652423883179  0.43719913771067836  0.3426929715135217  1.0000
  C   C15       1.0  0.024067035752139494  0.43719937126198977  0.1573072442054197  1.0000
  C   C16       1.0  0.4759374569338562  0.5628024027206991  0.6573069692426117  1.0000
  C   C17       1.0  0.833851761097691  0.47976130528039823  0.7006120995839352  1.0000
  C   C18       1.0  0.6661495367339045  0.5202374372277987  0.2006102612115441  1.0000
  C   C19       1.0  0.16614878179923664  0.520237543405088  0.2993893919208332  1.0000
  C   C20       1.0  0.3338531154294274  0.4797623246841099  0.799389679542962  1.0000
  C   C21       1.0  0.827954798966097  0.4824672299093465  0.5840076659453999  1.0000
  C   C22       1.0  0.6720467801442285  0.5175307073442924  0.0840065674907464  1.0000
  C   C23       1.0  0.17204657820369823  0.5175316283625763  0.4159938255572371  1.0000
  C   C24       1.0  0.32795582486024705  0.48246727604814793  0.9159933732621325  1.0000
  C   C25       1.0  0.886063550047723  0.6164495302785583  0.44119404365913795  1.0000
  C   C26       1.0  0.613935817414209  0.38354813496356854  0.9411944902541123  1.0000
  C   C27       1.0  0.1139374335650629  0.3835502124598876  0.5588074478453819  1.0000
  C   C28       1.0  0.38606428476926186  0.6164498196692566  0.0588062258780155  1.0000
  C   C29       1.0  0.9608344671352784  0.7479029458999878  0.414812694903155  1.0000
  C   C30       1.0  0.5391617265840765  0.2520947010867332  0.9148132649149828  1.0000
  C   C31       1.0  0.03916656363635707  0.2520985753579198  0.5851887966029921  1.0000
  C   C32       1.0  0.4608350385055078  0.7479032152000473  0.08518822659851108  1.0000
  C   C33       1.0  0.01745207277004826  0.8848099521325923  0.6240527142451883  1.0000
  C   C34       1.0  0.4825400645665285  0.11518992485807195  0.1240538899905133  1.0000
  C   C35       1.0  0.982552200789769  0.11518805043390765  0.3759441250118982  1.0000
  C   C36       1.0  0.517448452119247  0.8848114526041403  0.8759452754288047  1.0000
  C   C37       1.0  0.20939244590378076  0.7290919603498339  0.6540000730374445  1.0000
  C   C38       1.0  0.2905982310082039  0.2709069901946109  0.1540033112225032  1.0000
  C   C39       1.0  0.7906122683670986  0.2709069362690287  0.345998316965172  1.0000
  C   C40       1.0  0.7093920013869666  0.7290961849605396  0.8459943034484353  1.0000
  C   C41       1.0  0.040254715732267285  0.8852899539893289  0.1036184989432556  1.0000
  C   C42       1.0  0.459743781623132  0.11470912120454103  0.6036112221319384  1.0000
  C   C43       1.0  0.9597437179006576  0.11470798147003339  0.8963837679388789  1.0000
  C   C44       1.0  0.5402585241468361  0.8852933036939423  0.39638716788029876  1.0000
  S   S1        1.0  0.10962266300279569  0.8046660967358363  0.8084306444675348  1.0000
  S   S2        1.0  0.39037215765798555  0.19533635076200545  0.3084324488222023  1.0000
  S   S3        1.0  0.8903762113627921  0.19533273277854593  0.19156619480416032  1.0000
  S   S4        1.0  0.6096256303542661  0.8046686891908551  0.6915643904583746  1.0000
  S   S5        1.0  0.12126694546035581  0.8181721854595738  0.4678077687202062  1.0000
  S   S6        1.0  0.3787285097532731  0.18182838132056392  0.9678080162473393  1.0000
  S   S7        1.0  0.878737375258311  0.1818275956263947  0.5321890705385073  1.0000
  S   S8        1.0  0.6212650597333821  0.8181748321803399  0.03218959841510129  1.0000
  S   S9        1.0  0.153261029261003  0.8317023013085674  0.1458162760713009  1.0000
  S   S10       1.0  0.34674059104840893  0.16829855861358572  0.6458135589423435  1.0000
  S   S11       1.0  0.8467386793678601  0.16829653779107195  0.8541836646898132  1.0000
  S   S12       1.0  0.6532608332898352  0.8317020781789928  0.35418483107038407  1.0000
  N   N1        1.0  0.955604149687929  0.931375392798465  0.6381807588194164  1.0000
  N   N2        1.0  0.5443858077284034  0.06862148452375293  0.1381794294087229  1.0000
  N   N3        1.0  0.04440306740396952  0.06862353258000553  0.36181685580394424  1.0000
  N   N4        1.0  0.45559800256906874  0.931375393915559  0.8618166345266471  1.0000
  N   N5        1.0  0.27026565024689836  0.6813380002534758  0.6401741966295303  1.0000
  N   N6        1.0  0.22973781500240886  0.31866821869449086  0.1401770643941873  1.0000
  N   N7        1.0  0.7297385761444772  0.3186582237923688  0.3598257441174724  1.0000
  N   N8        1.0  0.7702638922793315  0.6813430892137192  0.8598244271198611  1.0000
  O   O1        1.0  0.9625623395601155  0.5452288018382634  0.7332278955913979  1.0000
  O   O2        1.0  0.5374409127382479  0.45477260757687094  0.2332265860473157  1.0000
  O   O3        1.0  0.0374399190389951  0.4547718445392733  0.26677437128363113  1.0000
  O   O4        1.0  0.4625634551320703  0.5452289520276851  0.7667725793316862  1.0000
  O   O5        1.0  0.8678323778205836  0.602404669869074  0.5503060995922198  1.0000
  O   O6        1.0  0.6321673478572549  0.397594158342642  0.050306519670677084  1.0000
  O   O7        1.0  0.13216777151933456  0.3975950632829282  0.44969539191441754  1.0000
  O   O8        1.0  0.3678327543238141  0.6024037962898917  0.949694971834333  1.0000
  O   O9        1.0  0.22010584818696086  0.9083766771938286  0.23372020474234734  1.0000
  O   O10       1.0  0.27989596778930087  0.0916205683335889  0.7337176782945037  1.0000
  O   O11       1.0  0.7798938132806441  0.09162038338604361  0.766280511390022  1.0000
  O   O12       1.0  0.7201037408467602  0.908378270766939  0.2662799363479492  1.0000
  O   O13       1.0  0.06980507984968656  0.7068076144645092  0.17083532330726564  1.0000
  O   O14       1.0  0.4301955512660812  0.2931932168174428  0.6708347516115722  1.0000
  O   O15       1.0  0.9301946287791695  0.29319122463513037  0.8291646174538485  1.0000
  O   O16       1.0  0.5698050387944918  0.706807410388102  0.32916518914905174  1.0000
  O   O17       1.0  0.23324238506180717  0.8520031139391764  0.0542608367824684  1.0000
  O   O18       1.0  0.2667594085795741  0.14799870017139946  0.5542608144887211  1.0000
  O   O19       1.0  0.7667573235646471  0.14799572516017181  0.9457398793515353  1.0000
  O   O20       1.0  0.7332428500315445  0.852001946207615  0.4457375755218891  1.0000
  F   F1        1.0  0.10101889698916723  0.004084641247267501  0.0808486520750051  1.0000
  F   F2        1.0  0.39897561716102836  0.9959161818755652  0.5808372164716218  1.0000
  F   F3        1.0  0.8989757588460209  0.9959123618145685  0.9191505133243254  1.0000
  F   F4        1.0  0.6010245321788901  0.004083551276444602  0.4191642750350155  1.0000
  F   F5        1.0  0.9768101557917105  0.8251406482708105  0.0174953807792946  1.0000
  F   F6        1.0  0.5231886395590664  0.17486263684974554  0.5174873513545606  1.0000
  F   F7        1.0  0.023184846427227523  0.17485369180327137  0.9825084368538413  1.0000
  F   F8        1.0  0.4768098412471106  0.8251370771308617  0.48251026329189267  1.0000
  F   F9        1.0  0.9542581945186159  0.8670835289136678  0.178855229334026  1.0000
  F   F10       1.0  0.5457431437470817  0.1329116731287669  0.6788415745379908  1.0000
  F   F11       1.0  0.045742301209855944  0.13291354125117044  0.8211493636606447  1.0000
  F   F12       1.0  0.454260877732274  0.8670925494626475  0.3211552647258599  1.0000
