data_image0
_chemical_formula_structural       U4H64C48O28
_chemical_formula_sum              "U4 H64 C48 O28"
_cell_length_a       6.6117478828709455
_cell_length_b       12.143215180731492
_cell_length_c       18.62903363327922
_cell_angle_alpha    77.88560836391991
_cell_angle_beta     80.3278807093547
_cell_angle_gamma    74.29755899272882

_space_group_name_H-M_alt    "P 1"
_space_group_IT_number       1

loop_
  _space_group_symop_operation_xyz
  'x, y, z'

loop_
  _atom_site_type_symbol
  _atom_site_label
  _atom_site_symmetry_multiplicity
  _atom_site_fract_x
  _atom_site_fract_y
  _atom_site_fract_z
  _atom_site_occupancy
  U   U1        1.0  0.673616022617054  0.2678815438572784  0.5463169437700799  1.0000
  U   U2        1.0  0.48613427845225543  0.23217240076473186  0.9530011798893054  1.0000
  U   U3        1.0  0.32641485715166163  0.7321264608865617  0.4536803074806952  1.0000
  U   U4        1.0  0.5138704307790789  0.7678052043486261  0.047000632668925804  1.0000
  H   H1        1.0  0.654243259252773  0.0503183369440521  0.48038186065995353  1.0000
  H   H2        1.0  0.18491548957678108  0.4484883542670914  0.019737159864874294  1.0000
  H   H3        1.0  0.34572220689925365  0.9496757708258556  0.5196284821101925  1.0000
  H   H4        1.0  0.8150957134953956  0.5515014106984566  0.9802452508759032  1.0000
  H   H5        1.0  0.49019904832054106  0.1621446805342188  0.4475586241427436  1.0000
  H   H6        1.0  0.1005992299408049  0.3362008048543785  0.04999681926310019  1.0000
  H   H7        1.0  0.5098102209250261  0.8378589814052687  0.5524380179945894  1.0000
  H   H8        1.0  0.8993978888181502  0.6638002514024919  0.9499980258169388  1.0000
  H   H9        1.0  0.7264746609711634  0.9895140522995048  0.7726839057856694  1.0000
  H   H10       1.0  0.48951281192822216  0.5106443073230409  0.7267667529898746  1.0000
  H   H11       1.0  0.2735155508599122  0.0104800554704028  0.22732016416421166  1.0000
  H   H12       1.0  0.5104802728630845  0.4893671716642912  0.2732355764669023  1.0000
  H   H13       1.0  0.7689323611531904  0.1167024443203957  0.7949678162239306  1.0000
  H   H14       1.0  0.6795552605210208  0.3828199410485169  0.705654863874976  1.0000
  H   H15       1.0  0.23105449504222283  0.8832890577669019  0.20503335884218635  1.0000
  H   H16       1.0  0.3204290805731703  0.6171828523301031  0.2943440975086205  1.0000
  H   H17       1.0  0.04292853820585677  0.09858339598887508  0.8800189004929067  1.0000
  H   H18       1.0  0.02025032399561173  0.3996066170038048  0.6222453477903187  1.0000
  H   H19       1.0  0.9570862973858921  0.9014055004158051  0.1199896085897336  1.0000
  H   H20       1.0  0.9797478843470271  0.6004013877400425  0.3777553261934655  1.0000
  H   H21       1.0  0.187213727340627  0.9592160434337558  0.9196412965725002  1.0000
  H   H22       1.0  0.06649729300027483  0.5386432355630504  0.5836309062247835  1.0000
  H   H23       1.0  0.8127979975527211  0.0407728529709246  0.08035954737424332  1.0000
  H   H24       1.0  0.9335039357411649  0.4613595578155696  0.41636810096544247  1.0000
  H   H25       1.0  0.4042613325477051  0.0529118597050839  0.8154478243769318  1.0000
  H   H26       1.0  0.2714502907072146  0.4430407404837027  0.6894219292351167  1.0000
  H   H27       1.0  0.5957370315331119  0.9470857223083087  0.18455540107917298  1.0000
  H   H28       1.0  0.7285559765740929  0.5569672642601375  0.310575304024688  1.0000
  H   H29       1.0  0.310552856549933  0.0910008595843834  0.6867345808791894  1.0000
  H   H30       1.0  0.08668093376801553  0.4064951732723116  0.8169899776297527  1.0000
  H   H31       1.0  0.6894348217453729  0.9090054080377213  0.31326835105925  1.0000
  H   H32       1.0  0.9133169066184761  0.5935128314715357  0.18300952490527322  1.0000
  H   H33       1.0  0.11673374475934414  0.1751183742654874  0.7437049646190204  1.0000
  H   H34       1.0  0.03187885162906701  0.322750271204896  0.7594675227526366  1.0000
  H   H35       1.0  0.8832448485790396  0.8248748649435527  0.2563035089674202  1.0000
  H   H36       1.0  0.9681251638850127  0.6772551278563341  0.24053032996967258  1.0000
  H   H37       1.0  0.003504477040337611  0.8709945786368181  0.6886550564855369  1.0000
  H   H38       1.0  0.5660853676490734  0.6291351184769809  0.8119983669172015  1.0000
  H   H39       1.0  0.9964880405536434  0.1290021348156998  0.3113509178936056  1.0000
  H   H40       1.0  0.4339209970552957  0.37086680634077135  0.18801138052744898  1.0000
  H   H41       1.0  0.24425103376219715  0.9116084849683332  0.6549630085566847  1.0000
  H   H42       1.0  0.8134308438581214  0.5870255503254711  0.8472913318477779  1.0000
  H   H43       1.0  0.7557338494608674  0.0883830171189572  0.3450386000768972  1.0000
  H   H44       1.0  0.18659860506711112  0.4129711631270538  0.1527090002204403  1.0000
  H   H45       1.0  0.29479731772684664  0.7469163153992469  0.7611554094424379  1.0000
  H   H46       1.0  0.8075476588903431  0.7513381587938994  0.7410137281193839  1.0000
  H   H47       1.0  0.7051990692318099  0.2530751866880436  0.23884701069472666  1.0000
  H   H48       1.0  0.19243806486715445  0.2486672402673378  0.2589885617154266  1.0000
  H   H49       1.0  0.9320964365220029  0.790625772675277  0.8283366927496374  1.0000
  H   H50       1.0  0.5544338134164378  0.7085007366324233  0.6723686752659147  1.0000
  H   H51       1.0  0.06791710556770177  0.20935791236417597  0.1716698452255869  1.0000
  H   H52       1.0  0.44555286144497347  0.2914977139418369  0.3276365208118505  1.0000
  H   H53       1.0  0.12786715681102157  0.7774809724524159  0.8873296419395517  1.0000
  H   H54       1.0  0.7949909994259701  0.7209724021802089  0.6144334195589136  1.0000
  H   H55       1.0  0.8721475260540287  0.2225166095609765  0.11266957997150939  1.0000
  H   H56       1.0  0.20498147111480614  0.2790382082462486  0.38557153345796985  1.0000
  H   H57       1.0  0.46825256025359646  0.8348459437435025  0.8361125900229283  1.0000
  H   H58       1.0  0.14188814167013658  0.6613622010373845  0.6679633486833794  1.0000
  H   H59       1.0  0.5317603719919999  0.1651490325872729  0.16388213198816706  1.0000
  H   H60       1.0  0.8580903471217239  0.3386484093890729  0.3320294284628247  1.0000
  H   H61       1.0  0.5147430619588252  0.8920111460342497  0.7403815831552761  1.0000
  H   H62       1.0  0.1491517773628889  0.6046104337212768  0.7639885833333651  1.0000
  H   H63       1.0  0.4852455407440459  0.1079925159052451  0.2596141738561784  1.0000
  H   H64       1.0  0.8508466277746435  0.39540712519215043  0.2360050505986848  1.0000
  C   C1        1.0  0.9059570115479973  0.1100683763871118  0.6539843618316894  1.0000
  C   C2        1.0  0.6684761110753856  0.3898439928129065  0.8469461331674779  1.0000
  C   C3        1.0  0.09404279049977068  0.8899292056262738  0.34601896506236324  1.0000
  C   C4        1.0  0.3315227029993721  0.6101622748091913  0.15305643882579292  1.0000
  C   C5        1.0  0.7751842633731487  0.9542157384989735  0.919716030975472  1.0000
  C   C6        1.0  0.6497641175376072  0.5450601632785563  0.5808304887076545  1.0000
  C   C7        1.0  0.22480506694240174  0.04577576358832399  0.0802795911607177  1.0000
  C   C8        1.0  0.35023820379899473  0.4549478414652839  0.41916761168705813  1.0000
  C   C9        1.0  0.019137692338745436  0.0329775191530146  0.7175487749216884  1.0000
  C   C10       1.0  0.7692043062470193  0.4662669267371484  0.7840882680140098  1.0000
  C   C11       1.0  0.9808591630484074  0.9670217999821205  0.28245191608156256  1.0000
  C   C12       1.0  0.2307925717244856  0.5337376037632069  0.21591258620454568  1.0000
  C   C13       1.0  0.8461978244503213  0.0281908801925184  0.7850278099075608  1.0000
  C   C14       1.0  0.6594956071316248  0.4713141339589697  0.7156276201600988  1.0000
  C   C15       1.0  0.15380097416355226  0.9717988847730368  0.21497778112581045  1.0000
  C   C16       1.0  0.3405004386050483  0.5286886594196432  0.2843750306299953  1.0000
  C   C17       1.0  0.9475424733421112  0.9541071683900881  0.8543035923738458  1.0000
  C   C18       1.0  0.7571688658237011  0.5446302256473743  0.6470060235527484  1.0000
  C   C19       1.0  0.05245916734804012  0.045882596575467  0.1456976171783495  1.0000
  C   C20       1.0  0.24282074442506033  0.45537169917037085  0.35299738727403  1.0000
  C   C21       1.0  0.11653805028412023  0.0098998568085236  0.8698786623556601  1.0000
  C   C22       1.0  0.9962679769809099  0.4880026625358269  0.6328183293001074  1.0000
  C   C23       1.0  0.8834638846239854  0.9900933824005094  0.1301280213296465  1.0000
  C   C24       1.0  0.0037337498968454774  0.5120018679645284  0.3671822942268932  1.0000
  C   C25       1.0  0.2873593369000603  0.012339644295380498  0.8031968431161118  1.0000
  C   C26       1.0  0.10259998891508113  0.4845892183125002  0.7005323878981997  1.0000
  C   C27       1.0  0.7126463430458687  0.9876535949136596  0.19680609553136458  1.0000
  C   C28       1.0  0.8973979067750552  0.5154161807487299  0.2994638876235598  1.0000
  C   C29       1.0  0.18861105308613485  0.0860083716974387  0.7346331230314077  1.0000
  C   C30       1.0  0.007534704382315939  0.4118272684598452  0.7684843786808031  1.0000
  C   C31       1.0  0.8113828300445722  0.9139892103159538  0.265371504565003  1.0000
  C   C32       1.0  0.9924662698521163  0.5881789991622597  0.2315139928255476  1.0000
  C   C33       1.0  0.12142668712052584  0.9090175678899186  0.7029219808029978  1.0000
  C   C34       1.0  0.7353787668075782  0.5901601865091806  0.7987590654246688  1.0000
  C   C35       1.0  0.8785668649231367  0.0909782770017316  0.2970793240024818  1.0000
  C   C36       1.0  0.26462174144465683  0.409843475430307  0.2012432588962056  1.0000
  C   C37       1.0  0.22241201295508278  0.835707556127609  0.7716003172521154  1.0000
  C   C38       1.0  0.8327571508450691  0.6625408381394351  0.730636060789351  1.0000
  C   C39       1.0  0.7775957885779121  0.1642865516422987  0.22840155704484028  1.0000
  C   C40       1.0  0.1672345697174864  0.3374671666044122  0.2693618645451251  1.0000
  C   C41       1.0  0.05279186133951457  0.8305882583534867  0.8388394261381291  1.0000
  C   C42       1.0  0.7249280769512868  0.6680813879360272  0.6626127345307324  1.0000
  C   C43       1.0  0.9472160888081902  0.1694067179772887  0.1611618173757492  1.0000
  C   C44       1.0  0.27505764680621075  0.3319240111252029  0.3373895553040711  1.0000
  C   C45       1.0  0.39163628274010154  0.8890007140550935  0.7881939311892054  1.0000
  C   C46       1.0  0.07080717766800176  0.6078684055486789  0.7155433646117756  1.0000
  C   C47       1.0  0.6083623447125176  0.1109986050800345  0.211803448343673  1.0000
  C   C48       1.0  0.9291856129053571  0.3921395991951613  0.2844534907118899  1.0000
  O   O1        1.0  0.8842169120354127  0.2205171824357564  0.644755235785496  1.0000
  O   O2        1.0  0.7462968532931739  0.2792414514900798  0.8560357276476437  1.0000
  O   O3        1.0  0.1157713832652762  0.7794821366993716  0.3552540153042115  1.0000
  O   O4        1.0  0.25370157626404916  0.7207561305233057  0.143952038283075  1.0000
  O   O5        1.0  0.8227664637679198  0.0699912406739216  0.6107935790334621  1.0000
  O   O6        1.0  0.5032079520319499  0.430196462322229  0.8895363973695465  1.0000
  O   O7        1.0  0.17725014392711091  0.9300132898264337  0.3892029395105467  1.0000
  O   O8        1.0  0.49679856841060405  0.5697950397650615  0.11047590154741727  1.0000
  O   O9        1.0  0.7230374089189482  0.8599360616262786  0.9493718814802533  1.0000
  O   O10       1.0  0.5290789941029386  0.6390992487899609  0.5521701766976221  1.0000
  O   O11       1.0  0.2769425802669759  0.1400606518262393  0.0506209523460228  1.0000
  O   O12       1.0  0.47095837645733246  0.3609070188321368  0.4478230875032096  1.0000
  O   O13       1.0  0.6872072216055259  0.0495418435253043  0.9432002044868211  1.0000
  O   O14       1.0  0.6836563569971548  0.4506389109838764  0.5558850559298704  1.0000
  O   O15       1.0  0.312799099841101  0.9504557384880812  0.05678582717407471  1.0000
  O   O16       1.0  0.3163560413813684  0.5493638823947364  0.4441181756722656  1.0000
  O   O17       1.0  0.549069684269874  0.11921866516389909  0.493008576718438  1.0000
  O   O18       1.0  0.16093409218871102  0.3806850184274139  0.005427401336575598  1.0000
  O   O19       1.0  0.45095830528019587  0.8807962880669109  0.5069907862139117  1.0000
  O   O20       1.0  0.8390846585394132  0.619317774951206  0.9945602414865604  1.0000
  O   O21       1.0  0.9082312431454231  0.251209517936978  0.47965727467880725  1.0000
  O   O22       1.0  0.6379347734480515  0.248314604553677  0.020779136278143498  1.0000
  O   O23       1.0  0.0917970138884386  0.7487976182460017  0.5203461602849728  1.0000
  O   O24       1.0  0.3620534160921668  0.7516630005596809  0.9792238019222097  1.0000
  O   O25       1.0  0.4374081095868976  0.2793378617467752  0.6115133870155773  1.0000
  O   O26       1.0  0.3256562629483641  0.2216897396117119  0.8867021021571659  1.0000
  O   O27       1.0  0.5626036789475108  0.720676222923167  0.3884780286224156  1.0000
  O   O28       1.0  0.6743448386243927  0.7783095795234232  0.11328972444578508  1.0000
