data_image0
_chemical_formula_structural       Zn2H40C44N4O8
_chemical_formula_sum              "Zn2 H40 C44 N4 O8"
_cell_length_a       7.778434641313344
_cell_length_b       10.915781505741169
_cell_length_c       12.915899053715798
_cell_angle_alpha    89.92429083769251
_cell_angle_beta     87.29595480982293
_cell_angle_gamma    73.5896512372803

_space_group_name_H-M_alt    "P 1"
_space_group_IT_number       1

loop_
  _space_group_symop_operation_xyz
  'x, y, z'

loop_
  _atom_site_type_symbol
  _atom_site_label
  _atom_site_symmetry_multiplicity
  _atom_site_fract_x
  _atom_site_fract_y
  _atom_site_fract_z
  _atom_site_occupancy
  Zn  Zn1       1.0  0.9950621803747949  0.8733429607125415  0.3140621967893297  1.0000
  Zn  Zn2       1.0  0.004934539832461795  0.1266605987184732  0.6859377429427911  1.0000
  H   H1        1.0  0.553505800578783  0.6949352081704918  0.4093933622434919  1.0000
  H   H2        1.0  0.4464947840653081  0.30506839490911375  0.5906049383817377  1.0000
  H   H3        1.0  0.5851928555423168  0.7298311635836756  0.2783766963346608  1.0000
  H   H4        1.0  0.4147992007933183  0.2701713484767652  0.7216202590382325  1.0000
  H   H5        1.0  0.6420428027696373  0.5490351266885297  0.14292185539389382  1.0000
  H   H6        1.0  0.3579623894336164  0.45096663594123493  0.8570786666981577  1.0000
  H   H7        1.0  0.8010434377260722  0.31699990709302744  0.109200543672948  1.0000
  H   H8        1.0  0.19895831911134104  0.6830008467057027  0.8908000622984461  1.0000
  H   H9        1.0  0.7940846232376656  0.24813962963597902  0.4355867114439249  1.0000
  H   H10       1.0  0.2059150597319288  0.7518630108473802  0.5644131621852395  1.0000
  H   H11       1.0  0.6439610576074486  0.4784848149768878  0.4707508233069078  1.0000
  H   H12       1.0  0.3560433403536222  0.5215188523141805  0.5292489364464502  1.0000
  H   H13       1.0  0.9616624451469917  0.6290946641559145  0.4107639611140641  1.0000
  H   H14       1.0  0.03834122766433263  0.3709137904761519  0.5892350246342559  1.0000
  H   H15       1.0  0.8180507839478398  0.5658600986554418  0.5738582462100369  1.0000
  H   H16       1.0  0.18195114422172046  0.43414349669726  0.426136151624938  1.0000
  H   H17       1.0  0.6434097655822485  0.9660933165216646  0.6599332577101295  1.0000
  H   H18       1.0  0.35658043628453123  0.033907290909134205  0.3400699419056752  1.0000
  H   H19       1.0  0.7884866472641008  0.0115818624870627  0.4950708193158206  1.0000
  H   H20       1.0  0.21150661720997727  0.9884236067776299  0.5049346145405949  1.0000
  H   H21       1.0  0.4901757578034776  0.7834205913248409  0.7347262101999095  1.0000
  H   H22       1.0  0.509825010294449  0.21657341395536633  0.265272893873103  1.0000
  H   H23       1.0  0.6325142907829002  0.6255071703988477  0.7250552395914415  1.0000
  H   H24       1.0  0.3674861504837492  0.3744877589380664  0.27493922323905917  1.0000
  H   H25       1.0  0.7240542823011181  0.8525947296475992  0.8287123361900584  1.0000
  H   H26       1.0  0.2759499031900816  0.14739738122107582  0.1712835974349431  1.0000
  H   H27       1.0  0.8684318380467317  0.6974828739011442  0.8174105678709154  1.0000
  H   H28       1.0  0.13157105503886865  0.302509224131569  0.1825861703092997  1.0000
  H   H29       1.0  0.4934453553659067  0.7632525858140369  0.9276801133838148  1.0000
  H   H30       1.0  0.5065559108954433  0.23674333696342842  0.0723174237952975  1.0000
  H   H31       1.0  0.6532272386441206  0.611235316788985  0.9216447248257609  1.0000
  H   H32       1.0  0.3467735857662645  0.3887615763116443  0.07835514213965673  1.0000
  H   H33       1.0  0.494399099107589  0.9059063357983138  0.0701550311439121  1.0000
  H   H34       1.0  0.5055960139844656  0.0940856955000839  0.9298480834851264  1.0000
  H   H35       1.0  0.6517853986992675  0.9604761258574329  0.22034269100840484  1.0000
  H   H36       1.0  0.3482058627359094  0.039515856651647106  0.779661288168768  1.0000
  H   H37       1.0  0.10525984397912673  0.6605734280752458  0.153315101862205  1.0000
  H   H38       1.0  0.8947442143707038  0.33943116841324894  0.8466807912074048  1.0000
  H   H39       1.0  0.9746091342010599  0.6016164531903386  0.9928741455343728  1.0000
  H   H40       1.0  0.025395396752266125  0.3983900710768468  0.0071217297588433  1.0000
  C   C1        1.0  0.3303836379497937  0.7029017811771824  0.3192117907433598  1.0000
  C   C2        1.0  0.6696146016493854  0.29709508625152387  0.6807896853324922  1.0000
  C   C3        1.0  0.5334256520587886  0.6671587833831085  0.33000491354027167  1.0000
  C   C4        1.0  0.4665722786816744  0.33284191134487884  0.6699950078617434  1.0000
  C   C5        1.0  0.6312944157696947  0.529489520171218  0.3092156044265836  1.0000
  C   C6        1.0  0.3687099003189899  0.470511269580868  0.6907849415518968  1.0000
  C   C7        1.0  0.6771385823012395  0.48312671834835896  0.2073142356983908  1.0000
  C   C8        1.0  0.3228670825055033  0.5168769720601034  0.7926862686172741  1.0000
  C   C9        1.0  0.7654048619218159  0.3546890231621376  0.1879686018578681  1.0000
  C   C10       1.0  0.23459775825019583  0.6453127086549914  0.8120327547858679  1.0000
  C   C11       1.0  0.8071613708773454  0.2692090806898121  0.2702598755421946  1.0000
  C   C12       1.0  0.19283703246661316  0.7307935418168655  0.7297400280834339  1.0000
  C   C13       1.0  0.7618673702574839  0.3150462587915115  0.37197599448651897  1.0000
  C   C14       1.0  0.23813654232012724  0.6849554858615791  0.6280245576019965  1.0000
  C   C15       1.0  0.6766260232046406  0.44385931246380034  0.3910436007385273  1.0000
  C   C16       1.0  0.3233745230995594  0.5561443060379575  0.6089570235629723  1.0000
  C   C17       1.0  0.8933386935248818  0.1294053508495594  0.24931868007551125  1.0000
  C   C18       1.0  0.10666132905596007  0.8705963604363732  0.7506850602374089  1.0000
  C   C19       1.0  0.8880945696248613  0.6996257781909776  0.4684747990077583  1.0000
  C   C20       1.0  0.1119089957541419  0.3003798091835392  0.5315265220831905  1.0000
  C   C21       1.0  0.8090750120025589  0.6656775325798209  0.5584963633101979  1.0000
  C   C22       1.0  0.1909263668837156  0.33432416583848124  0.4415026996537179  1.0000
  C   C23       1.0  0.7164030509988136  0.7603472509185991  0.6301112825353243  1.0000
  C   C24       1.0  0.2835961593672848  0.23965346178606242  0.3698886088702339  1.0000
  C   C25       1.0  0.7093047727130182  0.887173652954189  0.6070899829449133  1.0000
  C   C26       1.0  0.2906905732162386  0.11282701610188181  0.3929115475675432  1.0000
  C   C27       1.0  0.791520063130832  0.9142181012068562  0.5157695956440733  1.0000
  C   C28       1.0  0.20847364319421044  0.0857863977346796  0.4842335084260299  1.0000
  C   C29       1.0  0.6315968189457306  0.7263599722779546  0.7283758103959244  1.0000
  C   C30       1.0  0.3684035712010497  0.2736349776218319  0.27162175066960975  1.0000
  C   C31       1.0  0.7257659336857287  0.7515913067727241  0.8241968104328948  1.0000
  C   C32       1.0  0.2742356669942722  0.2484007784240277  0.17580073230254104  1.0000
  C   C33       1.0  0.6383061965595044  0.7147473719856736  0.9240556000882805  1.0000
  C   C34       1.0  0.3616963365475172  0.2852485739091861  0.07594268165313171  1.0000
  C   C35       1.0  0.7220781158534917  0.7483262646830228  0.018214828573107404  1.0000
  C   C36       1.0  0.27792409561484976  0.2516735136518307  0.9817826730532246  1.0000
  C   C37       1.0  0.6316252896281963  0.8504482618371936  0.08398271167856561  1.0000
  C   C38       1.0  0.36837071235839147  0.14954473719816974  0.9160196045052873  1.0000
  C   C39       1.0  0.7170949309228123  0.8804913324193249  0.16831510580619385  1.0000
  C   C40       1.0  0.2829006547727388  0.11950262665776284  0.8316879910464509  1.0000
  C   C41       1.0  0.9723209607222713  0.7136823145354468  0.12950998320984303  1.0000
  C   C42       1.0  0.02768082167507658  0.28631842898184356  0.8704890736440376  1.0000
  C   C43       1.0  0.8969001495819667  0.6805335121166679  0.0424113946788225  1.0000
  C   C44       1.0  0.10310341060444016  0.3194691668745619  0.9575860652846943  1.0000
  N   N1        1.0  0.8792870277271593  0.8220732667619185  0.44695355232619965  1.0000
  N   N2        1.0  0.12071140636933114  0.1779322538466133  0.5530486633093403  1.0000
  N   N3        1.0  0.8838525307877845  0.812774500625494  0.19157890125069343  1.0000
  N   N4        1.0  0.11614451105815249  0.18722522636552705  0.8084218185965072  1.0000
  O   O1        1.0  0.25681467654183604  0.825671461082507  0.317735148293778  1.0000
  O   O2        1.0  0.7431818799206339  0.17432634327053617  0.682266363888573  1.0000
  O   O3        1.0  0.24711066436249485  0.6206591599958032  0.31407691636655954  1.0000
  O   O4        1.0  0.7528892455934224  0.3793367756492927  0.6859252981615641  1.0000
  O   O5        1.0  0.9614848992731239  0.08961283498843639  0.16222508062418947  1.0000
  O   O6        1.0  0.03851335829861563  0.9103869356828369  0.8377794820203378  1.0000
  O   O7        1.0  0.8855520062015643  0.05763618003481239  0.329667346280587  1.0000
  O   O8        1.0  0.11445059360311664  0.9423684704470361  0.6703394206080944  1.0000
