data_image0
_chemical_formula_structural       Al2H10C20S2N2O10F2
_chemical_formula_sum              "Al2 H10 C20 S2 N2 O10 F2"
_cell_length_a       6.614819462720097
_cell_length_b       11.224053903479625
_cell_length_c       12.155570218216472
_cell_angle_alpha    73.69563821061519
_cell_angle_beta     81.14194998331017
_cell_angle_gamma    70.74648630980529

_space_group_name_H-M_alt    "P 1"
_space_group_IT_number       1

loop_
  _space_group_symop_operation_xyz
  'x, y, z'

loop_
  _atom_site_type_symbol
  _atom_site_label
  _atom_site_symmetry_multiplicity
  _atom_site_fract_x
  _atom_site_fract_y
  _atom_site_fract_z
  _atom_site_occupancy
  Al  Al1       1.0  0.49963335868324077  0.49522938144215084  0.5051674995012048  1.0000
  Al  Al2       1.0  0.0006311782135384838  0.4937511827374833  0.5050187929237991  1.0000
  H   H1        1.0  0.32445577156250494  0.3259503480668399  0.5682460236324187  1.0000
  H   H2        1.0  0.6809057049545759  0.6621758571052039  0.4498583005105701  1.0000
  H   H3        1.0  0.2205931315062629  0.2550138308039677  0.35501022525368586  1.0000
  H   H4        1.0  0.5436369208150753  0.1562190904266814  0.24282444949089663  1.0000
  H   H5        1.0  0.41368197090383785  0.7879492589654971  0.3526243294069714  1.0000
  H   H6        1.0  0.6394166656373629  0.9215219285119925  0.24033511936846705  1.0000
  H   H7        1.0  0.16304629035896323  0.4152107827519344  0.8809421636177743  1.0000
  H   H8        1.0  0.32812924150317724  0.4115471316440916  0.7550034230411026  1.0000
  H   H9        1.0  0.8387611246347719  0.5772820742902025  0.12889751253801046  1.0000
  H   H10       1.0  0.6743055903059557  0.5794205408554446  0.2549825592329994  1.0000
  C   C1        1.0  0.8653587412841546  0.2735875811624807  0.48973270241865646  1.0000
  C   C2        1.0  0.7110343862001542  0.4679685268062953  0.7070116630599868  1.0000
  C   C3        1.0  0.13393100561096827  0.7190594994953372  0.5091483926778934  1.0000
  C   C4        1.0  0.290320649842471  0.5230932889316262  0.30180544307840756  1.0000
  C   C5        1.0  0.44597358974604645  0.4529281244808913  0.8804770813957103  1.0000
  C   C6        1.0  0.5557402421381283  0.5403837279278177  0.12823119537578256  1.0000
  C   C7        1.0  0.6343575444006436  0.4790916536438982  0.8219670257142224  1.0000
  C   C8        1.0  0.3675534652504597  0.5136373406044257  0.18665362998289223  1.0000
  C   C9        1.0  0.5814847880233388  0.5181620805373297  0.01588705513279359  1.0000
  C   C10       1.0  0.4206782038386765  0.4756638673856768  0.9925050643828113  1.0000
  C   C11       1.0  0.9393573710233059  0.13321353548982273  0.4873271852870287  1.0000
  C   C12       1.0  0.13374794675796411  0.07669074640787703  0.42536292148938754  1.0000
  C   C13       1.0  0.8130093050085848  0.05614965274730818  0.5463360692681006  1.0000
  C   C14       1.0  0.26495201769451887  0.15194779669001693  0.35762501433401167  1.0000
  C   C15       1.0  0.44577202633455226  0.09635673873554397  0.29441052856950006  1.0000
  C   C16       1.0  0.06389303728570195  0.8630822784719353  0.4956338124061188  1.0000
  C   C17       1.0  0.8754966242049919  0.9219056391565983  0.5515642347695787  1.0000
  C   C18       1.0  0.193562352212105  0.9407900137541672  0.42754432320747776  1.0000
  C   C19       1.0  0.3761791586590066  0.8882610991057617  0.3579478971260314  1.0000
  C   C20       1.0  0.5005262235007211  0.9639875525993982  0.2934840699364116  1.0000
  S   S1        1.0  0.7689173896255428  0.5339435607865679  0.9016606483072279  1.0000
  S   S2        1.0  0.2327709356900274  0.4597047145160004  0.10629398537964356  1.0000
  N   N1        1.0  0.31036559896610794  0.4103043433791952  0.8400127128148822  1.0000
  N   N2        1.0  0.6910457639707274  0.5826852266593363  0.169530827866673  1.0000
  O   O1        1.0  0.672446338967305  0.33646855016630883  0.4659639900044181  1.0000
  O   O2        1.0  0.887172748717973  0.49104243620973875  0.6621676887482689  1.0000
  O   O3        1.0  0.0014415768469860743  0.6695194348656983  0.4881836490838507  1.0000
  O   O4        1.0  0.4049958639765308  0.5603860379521136  0.3545940735553045  1.0000
  O   O5        1.0  0.32384163109352954  0.6569901900714327  0.5391188871137728  1.0000
  O   O6        1.0  0.1165445908909534  0.49639704728690487  0.34669116976223785  1.0000
  O   O7        1.0  0.9975546237745551  0.319410968429608  0.516737356982439  1.0000
  O   O8        1.0  0.5929844525704555  0.4323762800288405  0.6547871827760187  1.0000
  O   O9        1.0  0.2765504882432524  0.4199583142561991  0.557305779485702  1.0000
  O   O10       1.0  0.7242013035148319  0.5698487674707094  0.4520775466003711  1.0000
  F   F1        1.0  0.7486117694519412  0.8526335104990108  0.617613940938831  1.0000
  F   F2        1.0  0.6284490336465325  0.10425720068734988  0.6070063522307976  1.0000
