data_image0
_chemical_formula_structural       Ni4H108C136N12O32
_chemical_formula_sum              "Ni4 H108 C136 N12 O32"
_cell_length_a       11.134623693443434
_cell_length_b       16.797231669167896
_cell_length_c       19.707247702893806
_cell_angle_alpha    89.99949665952107
_cell_angle_beta     100.4239526147979
_cell_angle_gamma    90.00019173581632

_space_group_name_H-M_alt    "P 1"
_space_group_IT_number       1

loop_
  _space_group_symop_operation_xyz
  'x, y, z'

loop_
  _atom_site_type_symbol
  _atom_site_label
  _atom_site_symmetry_multiplicity
  _atom_site_fract_x
  _atom_site_fract_y
  _atom_site_fract_z
  _atom_site_occupancy
  Ni  Ni1       1.0  0.7171355340571425  0.26894251002369174  0.2724837886962064  1.0000
  Ni  Ni2       1.0  0.28285687284640193  0.768944296777029  0.22751423936882986  1.0000
  Ni  Ni3       1.0  0.2828573564535617  0.7310586840848075  0.7275064331433256  1.0000
  Ni  Ni4       1.0  0.717147653261442  0.2310598739584506  0.7724889157933958  1.0000
  H   H1        1.0  0.28749641115444285  0.17218892804661584  0.5530355721988016  1.0000
  H   H2        1.0  0.7124761804309827  0.6722030878747135  0.9469714180358295  1.0000
  H   H3        1.0  0.7124954539048077  0.8278098846876888  0.4469601205009895  1.0000
  H   H4        1.0  0.28754738827842624  0.32778560409592933  0.0530403991452886  1.0000
  H   H5        1.0  0.6903394053568305  0.18436125600102574  0.1621679677321026  1.0000
  H   H6        1.0  0.30967933952620547  0.6843643428453063  0.3378289821440035  1.0000
  H   H7        1.0  0.3096781902787811  0.8156405334702299  0.8378223958467219  1.0000
  H   H8        1.0  0.6903380110212395  0.3156416139162204  0.6621735338640278  1.0000
  H   H9        1.0  0.8343827999877645  0.21176162781569727  0.1884197920867479  1.0000
  H   H10       1.0  0.1656275372295894  0.7117622864276995  0.3115892349954166  1.0000
  H   H11       1.0  0.1656291535737253  0.7882419476191059  0.8115780790038656  1.0000
  H   H12       1.0  0.8343896601283802  0.28823950294103173  0.6884208763051946  1.0000
  H   H13       1.0  0.8106748867366348  0.7632784864599245  0.22430818164321661  1.0000
  H   H14       1.0  0.1893258144190355  0.2632844305904172  0.27568622108501734  1.0000
  H   H15       1.0  0.18932433429301196  0.2367215169638897  0.7756857714414309  1.0000
  H   H16       1.0  0.8106714986799872  0.7367114054580027  0.7243115847922399  1.0000
  H   H17       1.0  0.6209305797116046  0.8399512581786722  0.18020052049103444  1.0000
  H   H18       1.0  0.3790629777973678  0.3399571654719012  0.31979507120065165  1.0000
  H   H19       1.0  0.3790687944959856  0.16004457793120253  0.8197858373309614  1.0000
  H   H20       1.0  0.62093503394059  0.6600261684617051  0.6802134671286949  1.0000
  H   H21       1.0  0.6316127222538697  0.9892520844906583  0.17594222686869188  1.0000
  H   H22       1.0  0.3683829319548123  0.4892585194677537  0.3240595795371561  1.0000
  H   H23       1.0  0.36838100987959876  0.0107455375827641  0.824051638465093  1.0000
  H   H24       1.0  0.6316351172175558  0.5107248144636432  0.6759536689593161  1.0000
  H   H25       1.0  0.8255303998705585  0.0581463011389616  0.2122122404464832  1.0000
  H   H26       1.0  0.17446410136626866  0.5581502019778741  0.287790636671204  1.0000
  H   H27       1.0  0.17446412282772877  0.9418501302310178  0.7877878001322146  1.0000
  H   H28       1.0  0.8255585133881311  0.4418438480075225  0.7122231068794989  1.0000
  H   H29       1.0  0.977856459349752  0.096544084652983  0.2854719789998086  1.0000
  H   H30       1.0  0.022135470151077606  0.5965478110431235  0.21452728718711003  1.0000
  H   H31       1.0  0.022139920217931295  0.9034565140792452  0.7145267405454803  1.0000
  H   H32       1.0  0.9778777581817122  0.40345993160408977  0.7854981249250202  1.0000
  H   H33       1.0  0.026444497474372494  0.0902447956926409  0.20443267519655714  1.0000
  H   H34       1.0  0.973556474232879  0.5902497860889184  0.2955711708742755  1.0000
  H   H35       1.0  0.9735491223235471  0.9097522310156663  0.7955667600096136  1.0000
  H   H36       1.0  0.026441251575342106  0.40974307315021713  0.7044515452723984  1.0000
  H   H37       1.0  0.1260519283290265  0.10268168851389702  0.3942119524498011  1.0000
  H   H38       1.0  0.873937105240998  0.6027009228963678  0.10579558052813104  1.0000
  H   H39       1.0  0.8739426556509929  0.8973206962338126  0.6057850499964701  1.0000
  H   H40       1.0  0.12608445344334027  0.397303843103252  0.8942251528913161  1.0000
  H   H41       1.0  0.4835250634200178  0.1880545681796164  0.37802548995509266  1.0000
  H   H42       1.0  0.5164612731719487  0.6880597480559347  0.12199075357278132  1.0000
  H   H43       1.0  0.516474856244443  0.8119299564484025  0.6219791955923313  1.0000
  H   H44       1.0  0.48355879627482784  0.3119343019779138  0.8780130722373158  1.0000
  H   H45       1.0  0.24175981334503396  0.10705558011591881  0.1969980341438102  1.0000
  H   H46       1.0  0.7582447041822461  0.6070588272720556  0.30301368255358335  1.0000
  H   H47       1.0  0.7582357245949396  0.8929450186342153  0.802997041920051  1.0000
  H   H48       1.0  0.24176495340136475  0.39295367808376375  0.6970072826525495  1.0000
  H   H49       1.0  0.7073126866768574  0.0971312807148479  0.30518963528880505  1.0000
  H   H50       1.0  0.29269483886285746  0.597134022649847  0.1948077655368579  1.0000
  H   H51       1.0  0.2926920028252908  0.9028716993902961  0.6948054182482437  1.0000
  H   H52       1.0  0.7073188694447338  0.402873124784719  0.8051938480408936  1.0000
  H   H53       1.0  0.8136420451396942  0.0006019499278551001  0.3916239371341775  1.0000
  H   H54       1.0  0.1863586987485775  0.5006035645051766  0.10837954004096421  1.0000
  H   H55       1.0  0.1863626443632782  0.9994016255134851  0.6083711164007326  1.0000
  H   H56       1.0  0.8136373846655828  0.4993982248232173  0.8916338637034329  1.0000
  H   H57       1.0  0.0169448823909661  0.1995755876536194  0.4944614721133718  1.0000
  H   H58       1.0  0.9830352985441237  0.6995722860428656  0.00554386853684011  1.0000
  H   H59       1.0  0.9830432791706087  0.8004357271256668  0.505536356226564  1.0000
  H   H60       1.0  0.016946144416628808  0.3004283125973046  0.9944694699706816  1.0000
  H   H61       1.0  0.9066974280183472  0.2867277295215871  0.3999189620945458  1.0000
  H   H62       1.0  0.09329310999436298  0.7867262475944938  0.1000832973820494  1.0000
  H   H63       1.0  0.09330639943571842  0.7132782272771864  0.6000734606540662  1.0000
  H   H64       1.0  0.9066947656110997  0.2132755417320524  0.8999287088436319  1.0000
  H   H65       1.0  0.7245812576318044  0.44698901603127444  0.2923953674473482  1.0000
  H   H66       1.0  0.2754081941100637  0.9469915875829287  0.20759085881172717  1.0000
  H   H67       1.0  0.2754171728330165  0.553012178095976  0.7075924103923938  1.0000
  H   H68       1.0  0.7245838445631564  0.053011392549436216  0.7923962258917998  1.0000
  H   H69       1.0  0.6318710842032901  0.5449028886458082  0.3646985431900163  1.0000
  H   H70       1.0  0.36812459983378426  0.04490174917770421  0.1352893375204545  1.0000
  H   H71       1.0  0.36813910440810815  0.4551030681485529  0.6352960917439177  1.0000
  H   H72       1.0  0.631870290505404  0.955094682286912  0.8646924743919656  1.0000
  H   H73       1.0  0.5303779239960137  0.5718347140671864  0.4569040982428305  1.0000
  H   H74       1.0  0.46961623305492844  0.07182760809382673  0.043072251292848314  1.0000
  H   H75       1.0  0.4696259545184702  0.42817064740852834  0.5430857927487196  1.0000
  H   H76       1.0  0.5303732807104424  0.9281575120063792  0.9569039030305363  1.0000
  H   H77       1.0  0.5427691752841072  0.3432326316911869  0.48417171678097765  1.0000
  H   H78       1.0  0.4572136586077776  0.843229848189772  0.01581152341278621  1.0000
  H   H79       1.0  0.4572156708179805  0.6567715391385037  0.5158090058996976  1.0000
  H   H80       1.0  0.5427720188866872  0.15675765320591487  0.9841733491610114  1.0000
  H   H81       1.0  0.630661834985645  0.2567069739870931  0.4052631703175962  1.0000
  H   H82       1.0  0.36931522955628543  0.756703180510165  0.09472262893662281  1.0000
  H   H83       1.0  0.36931571642448086  0.74329957818604  0.5947162538543438  1.0000
  H   H84       1.0  0.6306766457036731  0.24328729752002692  0.9052725574412507  1.0000
  H   H85       1.0  0.7908711621255051  0.3365781958132885  0.1467730877793159  1.0000
  H   H86       1.0  0.20911687671850385  0.8365791153671154  0.3532234530991687  1.0000
  H   H87       1.0  0.2091163212010159  0.6634307376811747  0.8532129954582928  1.0000
  H   H88       1.0  0.7908849406923648  0.16342981806432283  0.646777885934803  1.0000
  H   H89       1.0  0.7109574751269035  0.42974513590478136  0.05280193648229671  1.0000
  H   H90       1.0  0.2890371011574118  0.9297339490838397  0.44720019833454216  1.0000
  H   H91       1.0  0.28902528946355943  0.570274513599294  0.9471912469017241  1.0000
  H   H92       1.0  0.7109701949250179  0.07026843565242302  0.5528017348342046  1.0000
  H   H93       1.0  0.4016783050910036  0.5316116503301558  0.039206294864932524  1.0000
  H   H94       1.0  0.5983152912356005  0.0316046775981391  0.46079262302474433  1.0000
  H   H95       1.0  0.5983053215376373  0.4683978784459413  0.9607895193331756  1.0000
  H   H96       1.0  0.40169648870862323  0.9683923490938185  0.5392138560706742  1.0000
  H   H97       1.0  0.38286506336825715  0.4494624493959023  0.1406765015460962  1.0000
  H   H98       1.0  0.6171196151967067  0.9494636119383415  0.3593198452503188  1.0000
  H   H99       1.0  0.6171176297175123  0.5505435073572686  0.8593202263499862  1.0000
  H   H100      1.0  0.3828876400301411  0.05053401009784151  0.6406841133428927  1.0000
  H   H101      1.0  0.4759177967906679  0.3523365599021844  0.23043307855407852  1.0000
  H   H102      1.0  0.5240676178480186  0.8523455888663136  0.2695595076035531  1.0000
  H   H103      1.0  0.5240768382497619  0.6476652295224739  0.7695613921351239  1.0000
  H   H104      1.0  0.47593334771876517  0.14766036789942663  0.7304386943115305  1.0000
  H   H105      1.0  0.05045978867596549  0.0705022992121584  0.5468646880483092  1.0000
  H   H106      1.0  0.9495225144765911  0.5704954867835993  0.9531466535165548  1.0000
  H   H107      1.0  0.9495263628366287  0.9295078248464252  0.45314205659195034  1.0000
  H   H108      1.0  0.0504662027475078  0.4294997538268889  0.0468689962140658  1.0000
  C   C1        1.0  0.038410221605666095  0.8153247184957736  0.2594857370391281  1.0000
  C   C2        1.0  0.9615831553757345  0.31533273232758324  0.2405156013778083  1.0000
  C   C3        1.0  0.9615906009739987  0.1846699268454444  0.7405195538423328  1.0000
  C   C4        1.0  0.038418764149362496  0.6846702477681816  0.7594806741591356  1.0000
  C   C5        1.0  0.9258681910903163  0.865974018325268  0.24155127359902204  1.0000
  C   C6        1.0  0.07413360543554152  0.3659763142003882  0.2584475541417817  1.0000
  C   C7        1.0  0.07413000449034969  0.1340253897329333  0.7584481503394686  1.0000
  C   C8        1.0  0.9258755577128568  0.6340189265130364  0.7415525516823394  1.0000
  C   C9        1.0  0.8132066164917902  0.8280433414615304  0.2216996055024296  1.0000
  C   C10       1.0  0.1867850716010295  0.3280480623400379  0.27829638002840085  1.0000
  C   C11       1.0  0.1867907680913135  0.17195130393290012  0.7782946559162128  1.0000
  C   C12       1.0  0.8132075840131492  0.6719424156564813  0.7217054879419464  1.0000
  C   C13       1.0  0.70679385836398  0.8711986739247238  0.19761153124077424  1.0000
  C   C14       1.0  0.29320705994602037  0.37120457152988723  0.3023861472425082  1.0000
  C   C15       1.0  0.29320997928255105  0.12879299480797357  0.8023803852073073  1.0000
  C   C16       1.0  0.7068001339883807  0.6287793577580275  0.6976208495109191  1.0000
  C   C17       1.0  0.7132569500159249  0.9540296075803241  0.19459342123425927  1.0000
  C   C18       1.0  0.2867332198868198  0.454037841041945  0.3054034868476521  1.0000
  C   C19       1.0  0.2867376850080205  0.045960275120421605  0.8054010494977035  1.0000
  C   C20       1.0  0.713273912774099  0.5459460882301883  0.6946065480168144  1.0000
  C   C21       1.0  0.824450439580943  0.9934873156439965  0.2153195781580379  1.0000
  C   C22       1.0  0.17555071524548538  0.4934913503677337  0.2846822855993096  1.0000
  C   C23       1.0  0.1755523215644388  0.0065103064081029  0.7846803408795751  1.0000
  C   C24       1.0  0.8244692112273595  0.5065009136207267  0.7153286291429737  1.0000
  C   C25       1.0  0.9312342203080135  0.9500069320075041  0.239024666512897  1.0000
  C   C26       1.0  0.06876040189571599  0.45001216656122983  0.2609778290809075  1.0000
  C   C27       1.0  0.06876303151587142  0.04998771335274909  0.7609761774796767  1.0000
  C   C28       1.0  0.9312467716265544  0.5499806927643646  0.7390301803441304  1.0000
  C   C29       1.0  0.04732488008242798  0.07079073745924092  0.25868318527412987  1.0000
  C   C30       1.0  0.9526669270468061  0.5707986239332712  0.2413187976121165  1.0000
  C   C31       1.0  0.9526669237041644  0.9292086705954858  0.7413155455345689  1.0000
  C   C32       1.0  0.0473455107162195  0.4292067374002002  0.7587004392679333  1.0000
  C   C33       1.0  0.17213390556469224  0.0989887996819263  0.2924503499358124  1.0000
  C   C34       1.0  0.8278634072750036  0.5990003315367504  0.20755455629531383  1.0000
  C   C35       1.0  0.8278579084341473  0.9010106083754366  0.7075478745210404  1.0000
  C   C36       1.0  0.17215828417184303  0.4010068158418251  0.7924595945416543  1.0000
  C   C37       1.0  0.19640295627594637  0.11389746314820567  0.3635814324283118  1.0000
  C   C38       1.0  0.8035906330571406  0.6139067000566739  0.1364285405362793  1.0000
  C   C39       1.0  0.8035951984532518  0.8861001588908977  0.6364200169239496  1.0000
  C   C40       1.0  0.1964328029021232  0.3860885405779513  0.8635898591952512  1.0000
  C   C41       1.0  0.3091320967479946  0.14617655608013544  0.3945568511571764  1.0000
  C   C42       1.0  0.6908605156810168  0.6461900315004601  0.10546038622968013  1.0000
  C   C43       1.0  0.6908633492759861  0.85381987529297  0.6054427820882182  1.0000
  C   C44       1.0  0.3091647158766193  0.35381116248923655  0.8945597305730786  1.0000
  C   C45       1.0  0.3406731477166005  0.17083741820655263  0.46793085526753947  1.0000
  C   C46       1.0  0.6593004291093435  0.6708527731961881  0.0320805811512344  1.0000
  C   C47       1.0  0.659315977992442  0.8291542504919178  0.5320645404022813  1.0000
  C   C48       1.0  0.3407184617063947  0.3291418721050193  0.967936310786044  1.0000
  C   C49       1.0  0.39725646393800673  0.16174133193280943  0.3541227301332697  1.0000
  C   C50       1.0  0.6027306924795538  0.6617488366148195  0.1458948140845422  1.0000
  C   C51       1.0  0.6027434863681335  0.8382467647202674  0.6458804363458058  1.0000
  C   C52       1.0  0.39728189845975237  0.33825116673232714  0.8541168275371332  1.0000
  C   C53       1.0  0.3753628857467106  0.1473321567116486  0.2832715715743035  1.0000
  C   C54       1.0  0.6246307144739874  0.647340167973809  0.21674221208855474  1.0000
  C   C55       1.0  0.6246380491693202  0.852663679330874  0.7167281494326403  1.0000
  C   C56       1.0  0.375376479500801  0.3526729327876908  0.7832647845601173  1.0000
  C   C57       1.0  0.26188961365005525  0.11571983687908731  0.25280258666021643  1.0000
  C   C58       1.0  0.7381058273766566  0.6157259978411744  0.24720655856092574  1.0000
  C   C59       1.0  0.7381076790252907  0.8842765945002712  0.7471962319185792  1.0000
  C   C60       1.0  0.26190398338901133  0.38428531688168033  0.752806811371876  1.0000
  C   C61       1.0  0.4730645957443613  0.1723979160150648  0.2423490426006794  1.0000
  C   C62       1.0  0.5269281505502832  0.6723969536560831  0.25766496841074377  1.0000
  C   C63       1.0  0.5269300597114892  0.8275973247166988  0.7576444154083575  1.0000
  C   C64       1.0  0.4730781098775125  0.32760959840151577  0.7423429419465749  1.0000
  C   C65       1.0  0.7771537712279865  0.1166581640933018  0.3479402453576554  1.0000
  C   C66       1.0  0.2228500538064111  0.6166588123365885  0.1520616826818397  1.0000
  C   C67       1.0  0.22285547362993438  0.8833454113478894  0.6520558096217997  1.0000
  C   C68       1.0  0.7771516002027282  0.3833459536994185  0.8479477579965575  1.0000
  C   C69       1.0  0.8363442650177006  0.0636778186886602  0.3967020027916278  1.0000
  C   C70       1.0  0.16365385292387913  0.563677649588442  0.10330376244785099  1.0000
  C   C71       1.0  0.16365942967962607  0.9363299240845251  0.6032970025244992  1.0000
  C   C72       1.0  0.8363404144772985  0.4363253304139718  0.8967089369033446  1.0000
  C   C73       1.0  0.9259062980584076  0.0918364426833023  0.4511892159618541  1.0000
  C   C74       1.0  0.0740900001412896  0.5918318763261611  0.0488196934899676  1.0000
  C   C75       1.0  0.0740945449647086  0.9081718953956753  0.54881506216676  1.0000
  C   C76       1.0  0.925900563739951  0.40816753164394726  0.9511951415590899  1.0000
  C   C77       1.0  0.9487282174132261  0.17433278810517547  0.45346429779758785  1.0000
  C   C78       1.0  0.05125646939801949  0.6743287901920353  0.046541212884406505  1.0000
  C   C79       1.0  0.05126632572687131  0.8256761453301776  0.5465347300325263  1.0000
  C   C80       1.0  0.948728646440152  0.325671213119179  0.9534715089957404  1.0000
  C   C81       1.0  0.8879450262671751  0.22310769341446246  0.4015008187480902  1.0000
  C   C82       1.0  0.1120526404741611  0.7231044832613307  0.09850268978862428  1.0000
  C   C83       1.0  0.11205969387583539  0.77689826337955  0.598492715722749  1.0000
  C   C84       1.0  0.8879416473473895  0.2768955200653664  0.9015089968695803  1.0000
  C   C85       1.0  0.6822034172211602  0.4274337395653163  0.3352717625284214  1.0000
  C   C86       1.0  0.31779417795887344  0.9274320853178822  0.1647165080582269  1.0000
  C   C87       1.0  0.31779591614650116  0.5725686452321952  0.6647166206774244  1.0000
  C   C88       1.0  0.6822069918396707  0.0725643461212968  0.8352715668542388  1.0000
  C   C89       1.0  0.6338880053227527  0.48126198546533056  0.3765814485014829  1.0000
  C   C90       1.0  0.3661033369177248  0.9812644370430874  0.12340624870945051  1.0000
  C   C91       1.0  0.36611494985944393  0.5187386133176943  0.623408849840466  1.0000
  C   C92       1.0  0.6338878703301417  0.018731399075463197  0.8765766861864678  1.0000
  C   C93       1.0  0.5809348510589487  0.45312724423590833  0.43167755959250803  1.0000
  C   C94       1.0  0.4190646414992329  0.9531262150529686  0.06831072450369649  1.0000
  C   C95       1.0  0.41906721142854036  0.5468691871985102  0.5683116270421849  1.0000
  C   C96       1.0  0.5809283817574952  0.04686545371057349  0.9316729147961098  1.0000
  C   C97       1.0  0.5266979674091417  0.5096862910117537  0.4729317304839498  1.0000
  C   C98       1.0  0.47329032440868696  0.009683526160337401  0.02705510465030162  1.0000
  C   C99       1.0  0.4733012842572464  0.49031371241994753  0.5270607035451746  1.0000
  C   C100      1.0  0.526692664808344  0.9903051659193879  0.9729269391043901  1.0000
  C   C101      1.0  0.5820506808886067  0.3703200897064534  0.4429548550305071  1.0000
  C   C102      1.0  0.4179340031902825  0.8703251280058737  0.05703092039509273  1.0000
  C   C103      1.0  0.41793778701894985  0.629675746410605  0.55702778280979  1.0000
  C   C104      1.0  0.5820525670021938  0.12966892208319794  0.9429550638774131  1.0000
  C   C105      1.0  0.6306575161517785  0.3209777174794723  0.3987208041865173  1.0000
  C   C106      1.0  0.3693306735249138  0.8209792144063643  0.10126622804423141  1.0000
  C   C107      1.0  0.3693291255313724  0.6790199046451734  0.6012616356102711  1.0000
  C   C108      1.0  0.6306658592207057  0.17901721701193193  0.8987248962384059  1.0000
  C   C109      1.0  0.6999927635663852  0.36194300845232874  0.14308422502946172  1.0000
  C   C110      1.0  0.2999971002616633  0.8619458766276864  0.3569158761772968  1.0000
  C   C111      1.0  0.2999955715951472  0.6380623530096798  0.8569049953505541  1.0000
  C   C112      1.0  0.7000065025254399  0.1380618661218378  0.6430876863053996  1.0000
  C   C113      1.0  0.6542102256047428  0.4138690488427557  0.09034154921205582  1.0000
  C   C114      1.0  0.34577985348954604  0.9138625428639247  0.4096546346437009  1.0000
  C   C115      1.0  0.3457744775423635  0.5861470286740484  0.9096462623516359  1.0000
  C   C116      1.0  0.6542256061562313  0.08614162787730352  0.590347606833383  1.0000
  C   C117      1.0  0.5369013584099065  0.44612544355343436  0.0867561771957739  1.0000
  C   C118      1.0  0.46308688166133993  0.9461203503097553  0.41324464047766446  1.0000
  C   C119      1.0  0.4630823499208389  0.5538870619246694  0.9132355861769242  1.0000
  C   C120      1.0  0.5369184656431261  0.053879057712997294  0.5867631708867761  1.0000
  C   C121      1.0  0.48097818909929657  0.49729184150775296  0.030579535766250412  1.0000
  C   C122      1.0  0.5190156407018022  0.9972839096855068  0.46942302761795673  1.0000
  C   C123      1.0  0.5190026471286231  0.5027182825899031  0.9694185131332985  1.0000
  C   C124      1.0  0.4809961596677397  0.0027137123479051  0.5305824387716456  1.0000
  C   C125      1.0  0.4731193648384887  0.42488112383376375  0.1394646419032171  1.0000
  C   C126      1.0  0.5268670820947463  0.9248820744627652  0.3605315731170506  1.0000
  C   C127      1.0  0.5268680572129015  0.5751266189725399  0.8605244794497012  1.0000
  C   C128      1.0  0.4731383162750759  0.0751203102541069  0.6394737064774958  1.0000
  C   C129      1.0  0.5246443519766117  0.3712524395589939  0.1900227739124105  1.0000
  C   C130      1.0  0.4753419668831142  0.8712609430865044  0.3099728135268691  1.0000
  C   C131      1.0  0.47534843641079766  0.6287481591870192  0.8099725114476684  1.0000
  C   C132      1.0  0.5246571213930835  0.12874322765650706  0.6900277221167457  1.0000
  C   C133      1.0  0.9969351986154037  0.0400640344991317  0.5024653211690335  1.0000
  C   C134      1.0  0.0030515858145250038  0.5400570534710809  0.9975467340902923  1.0000
  C   C135      1.0  0.003053682024436502  0.9599454942221116  0.49754222688083166  1.0000
  C   C136      1.0  0.9969371212006236  0.4599405684815637  0.0024694219836191625  1.0000
  N   N1        1.0  0.6784637179764418  0.34818788901510084  0.3449588736874318  1.0000
  N   N2        1.0  0.32151986914694664  0.8481881291525469  0.15503303790770673  1.0000
  N   N3        1.0  0.32152101579009695  0.6518156864494815  0.6550274188656289  1.0000
  N   N4        1.0  0.678474765885241  0.15180770691015513  0.844961432802876  1.0000
  N   N5        1.0  0.6365428554757954  0.33997835080646865  0.19221305672424188  1.0000
  N   N6        1.0  0.36344336656888027  0.83998782044322  0.3077832616672609  1.0000
  N   N7        1.0  0.363453687485368  0.660020461959235  0.8077775611980087  1.0000
  N   N8        1.0  0.636553885273969  0.1600205176495351  0.6922175822761432  1.0000
  N   N9        1.0  0.8034536547566727  0.19500800088207632  0.34941671201227814  1.0000
  N   N10       1.0  0.1965448881379359  0.6950080109473332  0.1505850719300668  1.0000
  N   N11       1.0  0.1965465100297479  0.8049967652396859  0.6505758210182861  1.0000
  N   N12       1.0  0.8034567760842676  0.30499735042749876  0.8494238623943461  1.0000
  O   O1        1.0  0.558360566233432  0.2131039291894652  0.2797674976639967  1.0000
  O   O2        1.0  0.4416414545696484  0.7131132859725396  0.220245692098338  1.0000
  O   O3        1.0  0.4416404197463065  0.7868936928747844  0.7202296915773303  1.0000
  O   O4        1.0  0.5583694429143691  0.28689564745072005  0.7797591688802613  1.0000
  O   O5        1.0  0.46436089419613324  0.15408032901060414  0.1800539593735451  1.0000
  O   O6        1.0  0.535614574750241  0.6540686211560144  0.3199522256550935  1.0000
  O   O7        1.0  0.5356281498281277  0.8459208650459615  0.8199454870767938  1.0000
  O   O8        1.0  0.4643725715539873  0.34592721485539374  0.6800505672402792  1.0000
  O   O9        1.0  0.25504900872557107  0.1508874060080245  0.5069508466570838  1.0000
  O   O10       1.0  0.7449427605243812  0.6508993750938715  0.993055337846755  1.0000
  O   O11       1.0  0.7449593740784975  0.8491149787734288  0.4930425775489126  1.0000
  O   O12       1.0  0.2550926990809259  0.3490869355437099  0.006956753880274399  1.0000
  O   O13       1.0  0.43373689755237166  0.2068081983336754  0.4932636382919  1.0000
  O   O14       1.0  0.5662330753639325  0.7068200375981633  0.0067496754900347004  1.0000
  O   O15       1.0  0.5662530799933307  0.7931810890047333  0.5067348945160575  1.0000
  O   O16       1.0  0.4337869327986468  0.29316627304937276  0.9932571884588981  1.0000
  O   O17       1.0  0.04266402149958281  0.9849330146306347  0.2622010285176515  1.0000
  O   O18       1.0  0.9573288405558811  0.4849368797713043  0.23780253726780387  1.0000
  O   O19       1.0  0.957324078768721  0.015064012064179604  0.7377998379846318  1.0000
  O   O20       1.0  0.04268657142090151  0.5150625282621631  0.7622053505969149  1.0000
  O   O21       1.0  0.1211488491062909  0.8292094254169556  0.22374059881570932  1.0000
  O   O22       1.0  0.8788382868653174  0.32921748228050524  0.276254376884019  1.0000
  O   O23       1.0  0.8788502085199781  0.1707852199390345  0.7762614559176271  1.0000
  O   O24       1.0  0.12115912836524248  0.6707849024923577  0.723738365451311  1.0000
  O   O25       1.0  0.04329399735070891  0.7623199157102719  0.30604411971823  1.0000
  O   O26       1.0  0.9567019721850797  0.2623242327367663  0.19395789643683506  1.0000
  O   O27       1.0  0.956703091084641  0.2376800876336844  0.6939648258845494  1.0000
  O   O28       1.0  0.0433018552722828  0.7376841054067852  0.8060345263032218  1.0000
  O   O29       1.0  0.7593252187026495  0.18353480742565859  0.20049829525452623  1.0000
  O   O30       1.0  0.24068055648518077  0.6835393287595152  0.2995063886253533  1.0000
  O   O31       1.0  0.24068402615444737  0.8164681726793361  0.7994977597270747  1.0000
  O   O32       1.0  0.7593311826257152  0.3164690093096496  0.7005021158368123  1.0000
