data_image0
_chemical_formula_structural       Zn2H56C52N12O8
_chemical_formula_sum              "Zn2 H56 C52 N12 O8"
_cell_length_a       7.651041564778484
_cell_length_b       10.934313743866264
_cell_length_c       16.06
_cell_angle_alpha    86.35268905211878
_cell_angle_beta     79.52397153898455
_cell_angle_gamma    69.52096844450888

_space_group_name_H-M_alt    "P 1"
_space_group_IT_number       1

loop_
  _space_group_symop_operation_xyz
  'x, y, z'

loop_
  _atom_site_type_symbol
  _atom_site_label
  _atom_site_symmetry_multiplicity
  _atom_site_fract_x
  _atom_site_fract_y
  _atom_site_fract_z
  _atom_site_occupancy
  Zn  Zn1       1.0  0.23813555269024536  0.5232060551881474  0.24998670239155982  1.0000
  Zn  Zn2       1.0  0.7618627660115606  0.4767902056732396  0.7500138542588389  1.0000
  H   H1        1.0  0.5140222517134417  0.7237543508721986  0.4102515896496897  1.0000
  H   H2        1.0  0.7613322663676807  0.7232017928571466  0.08965946675946411  1.0000
  H   H3        1.0  0.4859714561484195  0.2762458149928335  0.5897479519379516  1.0000
  H   H4        1.0  0.23866228253528732  0.2767993492587877  0.9103405823579465  1.0000
  H   H5        1.0  0.7314869193036486  0.6511056631552705  0.3447253413289745  1.0000
  H   H6        1.0  0.6163923280298604  0.6508703866859662  0.1553689779516461  1.0000
  H   H7        1.0  0.2685055946022955  0.348891573957026  0.6552775438546946  1.0000
  H   H8        1.0  0.38360368525197686  0.34912782667723974  0.8446298258373588  1.0000
  H   H9        1.0  0.3723631745577762  0.9429929702277776  0.3993393690956424  1.0000
  H   H10       1.0  0.6851206170195565  0.9425243697909879  0.10045115679756833  1.0000
  H   H11       1.0  0.6276336797651679  0.05700621938634501  0.600662432883162  1.0000
  H   H12       1.0  0.31487854272335614  0.057472867321315804  0.8995492847175939  1.0000
  H   H13       1.0  0.3400146619908923  0.1528506287243445  0.3242335303256567  1.0000
  H   H14       1.0  0.5089829680559744  0.1525889934804709  0.1754933524672211  1.0000
  H   H15       1.0  0.6599853387931204  0.8471475846388616  0.6757667960542761  1.0000
  H   H16       1.0  0.49101787376914524  0.8474101961336515  0.824504990782458  1.0000
  H   H17       1.0  0.3995870682926179  0.38779029146510174  0.41539021799185605  1.0000
  H   H18       1.0  0.2126241138335274  0.3878586290287984  0.08452812944508283  1.0000
  H   H19       1.0  0.6004178962461566  0.6122059693962925  0.5846110083150649  1.0000
  H   H20       1.0  0.7873777042441714  0.6121386080835052  0.9154720818006864  1.0000
  H   H21       1.0  0.8854398736843051  0.41647449570207584  0.3407206394578992  1.0000
  H   H22       1.0  0.6979697801437864  0.416395419378361  0.1595545684663549  1.0000
  H   H23       1.0  0.11456460272818697  0.5835227414102278  0.659279964183483  1.0000
  H   H24       1.0  0.30202729188249566  0.5836086514903087  0.8404457579103664  1.0000
  H   H25       1.0  0.7412531910559323  0.3283453973056254  0.4752714148588453  1.0000
  H   H26       1.0  0.9305051962956834  0.3283297772910672  0.025036301124330914  1.0000
  H   H27       1.0  0.2587512853565598  0.6716518398066711  0.5247285661175314  1.0000
  H   H28       1.0  0.06949404593909499  0.671675269828512  0.9749631723174517  1.0000
  H   H29       1.0  0.84529324310148  0.3204777912221175  0.5662999248844969  1.0000
  H   H30       1.0  0.8345023402451162  0.3205510100403615  0.9339350911404836  1.0000
  H   H31       1.0  0.15470857497621895  0.6795194458901861  0.4336996636962668  1.0000
  H   H32       1.0  0.16549690198965541  0.6794540370792177  0.0660631369712874  1.0000
  H   H33       1.0  0.1000136944717696  0.2241999264800896  0.6118995713422705  1.0000
  H   H34       1.0  0.6755224818816001  0.22460018935317552  0.8884086614915745  1.0000
  H   H35       1.0  0.899992952149212  0.7757982868831235  0.388100179364173  1.0000
  H   H36       1.0  0.32447312576581305  0.7754068102682226  0.11159104221853511  1.0000
  H   H37       1.0  0.19045276985091414  0.0749721648826736  0.6634516490376754  1.0000
  H   H38       1.0  0.7342877066681337  0.07550226912678681  0.8366794547466441  1.0000
  H   H39       1.0  0.809551706561578  0.92502507222963  0.3365495772687126  1.0000
  H   H40       1.0  0.26570790097927954  0.9245047304946112  0.16332087162846418  1.0000
  H   H41       1.0  0.944408348848995  0.16449144457492082  0.6840270674936803  1.0000
  H   H42       1.0  0.8908004743613912  0.16503619258269  0.8161906637600183  1.0000
  H   H43       1.0  0.05559612756349707  0.8355057925373757  0.3159735361477019  1.0000
  H   H44       1.0  0.10919610953859406  0.8349688545368892  0.18380841728615138  1.0000
  H   H45       1.0  0.7664904452281432  0.2496341914377425  0.3661706329959458  1.0000
  H   H46       1.0  0.9843531364833138  0.2492749311028746  0.13394096420757512  1.0000
  H   H47       1.0  0.23351850681281403  0.7503620694236447  0.6338277572468555  1.0000
  H   H48       1.0  0.01564393554296834  0.7507291397657951  0.8660574941741218  1.0000
  H   H49       1.0  0.6599986400818876  0.12910332533913052  0.3713247137357314  1.0000
  H   H50       1.0  0.21129092108108682  0.12863960615688802  0.1286746269211534  1.0000
  H   H51       1.0  0.34000703028652174  0.8708968405259014  0.6286725463096162  1.0000
  H   H52       1.0  0.7887043336515092  0.8713654409626912  0.8713258145897242  1.0000
  H   H53       1.0  0.8769079606386966  0.1070341972681703  0.3046926333126406  1.0000
  H   H54       1.0  0.016510697954615194  0.10664467315508831  0.1954346903214272  1.0000
  H   H55       1.0  0.1231009914022678  0.8929620635932239  0.6953070022601722  1.0000
  H   H56       1.0  0.9834849096927981  0.8933623264663098  0.8045643907236766  1.0000
  C   C1        1.0  0.5039128378615485  0.5972439479499699  0.3183762477760297  1.0000
  C   C2        1.0  0.898042034096285  0.5968973788769247  0.18154689538761914  1.0000
  C   C3        1.0  0.49608583375507453  0.4027542654132432  0.6816248164036125  1.0000
  C   C4        1.0  0.10195712564662777  0.4030998582353718  0.8184523007975317  1.0000
  C   C5        1.0  0.5794882612409678  0.6989351239878233  0.3437049620728843  1.0000
  C   C6        1.0  0.720662641300983  0.6986383437111954  0.15625493363229737  1.0000
  C   C7        1.0  0.42050593474718306  0.3010640656262922  0.6562952021802957  1.0000
  C   C8        1.0  0.27933337198085423  0.3013598696520178  0.8437438701567146  1.0000
  C   C9        1.0  0.5463723425443735  0.8231981973152855  0.2929598720684012  1.0000
  C   C10       1.0  0.6297899739547218  0.8230644509406204  0.20687500868982056  1.0000
  C   C11       1.0  0.4536235355259847  0.1768029448006558  0.7070406845793188  1.0000
  C   C12       1.0  0.3702082095356118  0.1769347386735021  0.7931241874942572  1.0000
  C   C13       1.0  0.44080999727294307  0.9427430499948174  0.3334156115163296  1.0000
  C   C14       1.0  0.6167589255074405  0.9424657947363855  0.166364712260247  1.0000
  C   C15       1.0  0.5591890272584976  0.05725711587020751  0.6665847148625303  1.0000
  C   C16       1.0  0.3832405871502899  0.057533394877729904  0.8336343687891415  1.0000
  C   C17       1.0  0.4235168235601562  0.0611172119682593  0.29148101366562434  1.0000
  C   C18       1.0  0.5164922799972301  0.06097858433904691  0.2082658317549075  1.0000
  C   C19       1.0  0.5764817128449874  0.938883930147675  0.7085180673826912  1.0000
  C   C20       1.0  0.4835054153668139  0.939021581525985  0.7917346097586488  1.0000
  C   C21       1.0  0.2625581009940348  0.3784670952748073  0.4163293259081726  1.0000
  C   C22       1.0  0.3589575267624737  0.378567649118537  0.08366335914572431  1.0000
  C   C23       1.0  0.7374455343773431  0.6215291655865798  0.5836720155334447  1.0000
  C   C24       1.0  0.6410456204826217  0.6214295879937597  0.9163367369653486  1.0000
  C   C25       1.0  0.004266159349825243  0.3942765025109907  0.3746203935148102  1.0000
  C   C26       1.0  0.6013540829604622  0.3942618587473419  0.1256026415555951  1.0000
  C   C27       1.0  0.9957364997689735  0.6057217108522153  0.6253815705907472  1.0000
  C   C28       1.0  0.3986443182332166  0.6057422121213278  0.8743969470214169  1.0000
  C   C29       1.0  0.8716740571217583  0.2840782760435872  0.5015993854341474  1.0000
  C   C30       1.0  0.8443664550489557  0.28412318358544303  0.9986484246558335  1.0000
  C   C31       1.0  0.1283286019970404  0.7159199373196259  0.49840071067638547  1.0000
  C   C32       1.0  0.15563460447950916  0.7158808872832269  0.0013509336517856028  1.0000
  C   C33       1.0  0.9388518950035659  0.136221170723779  0.5001892169989262  1.0000
  C   C34       1.0  0.9248808056470705  0.136264125763816  1.5406838044731522e-06  1.0000
  C   C35       1.0  0.061152934323736564  0.8637780188903434  0.49981127150668675  1.0000
  C   C36       1.0  0.07511941284028716  0.8637389688539443  0.9999998007540684  1.0000
  C   C37       1.0  0.03772629408702239  0.0659281764526369  0.5639806251248629  1.0000
  C   C38       1.0  0.8962039711039224  0.06615076166011141  0.9361256502942439  1.0000
  C   C39       1.0  0.9622772060728831  0.9340710131614857  0.4360199785154463  1.0000
  C   C40       1.0  0.1037944300897493  0.9338533092085586  0.06387331561776219  1.0000
  C   C41       1.0  0.0705596806671522  0.1356715414614627  0.6341980474125251  1.0000
  C   C42       1.0  0.7935044980650616  0.1361313556400603  0.8660062551634482  1.0000
  C   C43       1.0  0.9294461249127293  0.864325695650841  0.36580244109416077  1.0000
  C   C44       1.0  0.20649159770863432  0.8638746677304283  0.13399344854719433  1.0000
  C   C45       1.0  0.9007628536481531  0.0716724368069421  0.43617964531665626  1.0000
  C   C46       1.0  0.02768367924295491  0.0714723053703992  0.0638993254426552  1.0000
  C   C47       1.0  0.0992442810991249  0.9283248003053546  0.5638213507203389  1.0000
  C   C48       1.0  0.9723147219507238  0.9285317654982705  0.9361008857993626  1.0000
  C   C49       1.0  0.7960287914009283  0.14440898710576283  0.3670841239692635  1.0000
  C   C50       1.0  0.059878326906627394  0.1440243442472351  0.13302489933833067  1.0000
  C   C51       1.0  0.20397918438744983  0.8555892262574432  0.6329155116024836  1.0000
  C   C52       1.0  0.9401214034544404  0.8559797266214346  0.8669751967689906  1.0000
  N   N1        1.0  0.16375679865652865  0.4221679910090614  0.3508784717663573  1.0000
  N   N2        1.0  0.41391054805851  0.4221484659908654  0.1492074688829916  1.0000
  N   N3        1.0  0.8362450194211702  0.5778292461032352  0.6491236074744293  1.0000
  N   N4        1.0  0.5860899408517992  0.5778487711214382  0.8507922348324684  1.0000
  N   N5        1.0  0.17338640587929888  0.32562849102315994  0.47842734898733147  1.0000
  N   N6        1.0  0.5011386800705891  0.3257729761578361  0.021617815301993904  1.0000
  N   N7        1.0  0.8266190467857725  0.6743667935873178  0.5215738773201224  1.0000
  N   N8        1.0  0.49886300279563756  0.6742271897071959  0.9783822808074661  1.0000
  N   N9        1.0  0.010015242213732707  0.3366669600622815  0.4509151854590172  1.0000
  N   N10       1.0  0.6533575287270494  0.3367626326514568  0.049260869770336106  1.0000
  N   N11       1.0  0.9899883931576523  0.6633293007991058  0.5490874013126188  1.0000
  N   N12       1.0  0.34664171350772927  0.6632424144681224  0.9507386036714465  1.0000
  O   O1        1.0  0.5853181240023558  0.4785699110821326  0.3332194014827223  1.0000
  O   O2        1.0  0.9351949445551139  0.47823212826727973  0.1667141658659688  1.0000
  O   O3        1.0  0.4146805476142674  0.5214283022810733  0.6667810400319071  1.0000
  O   O4        1.0  0.0648005806004264  0.5217670613468358  0.8332846379225032  1.0000
  O   O5        1.0  0.3518979270219872  0.6431414082316708  0.2850885257279145  1.0000
  O   O6        1.0  0.004194380715993903  0.6427479791149509  0.21482634418583763  1.0000
  O   O7        1.0  0.6480972452187429  0.35685582888062584  0.7149135065213557  1.0000
  O   O8        1.0  0.9958038027743398  0.35725121049916453  0.7851709840032299  1.0000
