data_image0
_chemical_formula_structural       Hg6H40C56Br12N16O4
_chemical_formula_sum              "Hg6 H40 C56 Br12 N16 O4"
_cell_length_a       7.311925673164654
_cell_length_b       7.9753021364362935
_cell_length_c       29.13508599905057
_cell_angle_alpha    92.22159646410522
_cell_angle_beta     90.00054280083839
_cell_angle_gamma    90.00049987303574

_space_group_name_H-M_alt    "P 1"
_space_group_IT_number       1

loop_
  _space_group_symop_operation_xyz
  'x, y, z'

loop_
  _atom_site_type_symbol
  _atom_site_label
  _atom_site_symmetry_multiplicity
  _atom_site_fract_x
  _atom_site_fract_y
  _atom_site_fract_z
  _atom_site_occupancy
  Hg  Hg1       1.0  0.5000060739200052  0.9999930898966125  0.9999984299366321  1.0000
  Hg  Hg2       1.0  1.3973195220000008e-07  0.9999942549008196  0.4999993171672872  1.0000
  Hg  Hg3       1.0  0.8128124958523839  0.3255317402024361  0.25087110504387067  1.0000
  Hg  Hg4       1.0  0.3127926306467543  0.6744684747370258  0.2491296650468442  1.0000
  Hg  Hg5       1.0  0.18718908733741554  0.674464769336339  0.7491310662056423  1.0000
  Hg  Hg6       1.0  0.6871898057151498  0.3255267550100242  0.7508714652076734  1.0000
  H   H1        1.0  0.4008143854979379  0.3383682353352669  0.1753205438812842  1.0000
  H   H2        1.0  0.9008031975465299  0.661631419042763  0.3246787240891607  1.0000
  H   H3        1.0  0.5992022415269319  0.6616306592143815  0.824676499830666  1.0000
  H   H4        1.0  0.0991847094979121  0.3383864716617424  0.6753256947169676  1.0000
  H   H5        1.0  0.3755151349954672  0.11432382653183738  0.11157289226396473  1.0000
  H   H6        1.0  0.8755056536333682  0.885670622120081  0.38842729665222464  1.0000
  H   H7        1.0  0.6245069625446077  0.885673821562399  0.8884244837221974  1.0000
  H   H8        1.0  0.12446720945876419  0.11432104262749479  0.6115820398894061  1.0000
  H   H9        1.0  0.631276633924209  0.4302699372757957  0.021555505850493303  1.0000
  H   H10       1.0  0.1312859618687199  0.5697249209388316  0.47844167627740575  1.0000
  H   H11       1.0  0.3687249491837079  0.5697339431240921  0.9784402087733782  1.0000
  H   H12       1.0  0.8687292974972036  0.43025772784566396  0.5215579703593534  1.0000
  H   H13       1.0  0.7156706332649846  0.9849956332788848  0.19783365816863355  1.0000
  H   H14       1.0  0.21568197159521668  0.0150062709114422  0.3021665418628601  1.0000
  H   H15       1.0  0.2843377880375185  0.014999588268437903  0.8021671288097567  1.0000
  H   H16       1.0  0.7843346554545078  0.9849951498281796  0.6978312105523585  1.0000
  H   H17       1.0  0.9814133534344975  0.5065020182052039  0.18022154876542376  1.0000
  H   H18       1.0  0.4814107370632072  0.4935108579143375  0.31977803613000333  1.0000
  H   H19       1.0  0.0185841268746856  0.49350197849447136  0.8197789721850273  1.0000
  H   H20       1.0  0.5185867432461606  0.5064906458287695  0.6802231493548591  1.0000
  H   H21       1.0  0.11847332031583589  0.6538937454183724  0.1159659206148476  1.0000
  H   H22       1.0  0.6184640150805761  0.3461073543859285  0.3840343736833419  1.0000
  H   H23       1.0  0.8815296304837971  0.34610523215762606  0.8840345561737594  1.0000
  H   H24       1.0  0.3815389357004548  0.6538891053084511  0.6159657377114203  1.0000
  H   H25       1.0  0.1380214958974122  0.5144600684706476  0.037889683137201806  1.0000
  H   H26       1.0  0.6380163463387162  0.4855311814135134  0.46211160283863256  1.0000
  H   H27       1.0  0.8619828225310823  0.48553766263278664  0.962111125920359  1.0000
  H   H28       1.0  0.3619756633998107  0.5144615221835807  0.5378888187248949  1.0000
  H   H29       1.0  0.028493321763072302  0.22223730708707023  0.025051424264624707  1.0000
  H   H30       1.0  0.528506462478397  0.7777605891277943  0.47495102061805755  1.0000
  H   H31       1.0  0.9715096290490733  0.777761687105638  0.9749497391428151  1.0000
  H   H32       1.0  0.4714828120338552  0.22223215599962023  0.5250511174890492  1.0000
  H   H33       1.0  0.8732078737269972  0.971806721101906  0.0547794350367496  1.0000
  H   H34       1.0  0.3732190499232786  0.028199059584920902  0.4452232505406216  1.0000
  H   H35       1.0  0.12679507710358  0.028197283928982103  0.9452214292301309  1.0000
  H   H36       1.0  0.626778430367217  0.9718036657114124  0.5547765727487858  1.0000
  H   H37       1.0  0.6438421468101083  0.7496948105851331  0.14976512101467426  1.0000
  H   H38       1.0  0.143846524955535  0.2502914190051513  0.35023407586032124  1.0000
  H   H39       1.0  0.3561676420714547  0.25029535858795526  0.8502342485589482  1.0000
  H   H40       1.0  0.8561659991831618  0.7497049825707762  0.6497636323807896  1.0000
  C   C1        1.0  0.4527536708971168  0.3599616278118417  0.1409161881783447  1.0000
  C   C2        1.0  0.952748994384244  0.6400384275930192  0.35908183962948936  1.0000
  C   C3        1.0  0.5472533827073248  0.6400397347292994  0.859079161058688  1.0000
  C   C4        1.0  0.04724985360353169  0.35996937501403176  0.6409204309964454  1.0000
  C   C5        1.0  0.43848397426386027  0.23598761654989175  0.10582866400640972  1.0000
  C   C6        1.0  0.938479013568944  0.7640072920985689  0.39416893976429895  1.0000
  C   C7        1.0  0.5615299174721498  0.7640112364465638  0.8941666631549554  1.0000
  C   C8        1.0  0.061508893395533386  0.2359905469448407  0.6058363322946649  1.0000
  C   C9        1.0  0.5783143663883195  0.4099486453706547  0.05585710040550401  1.0000
  C   C10       1.0  0.07832127738394949  0.5900470331433069  0.44414030038336716  1.0000
  C   C11       1.0  0.4216858490908136  0.5900552350235202  0.9441386142166126  1.0000
  C   C12       1.0  0.9216871438875244  0.4099444074274031  0.5558597668495511  1.0000
  C   C13       1.0  0.592210702208632  0.5335935095793191  0.09113291021571261  1.0000
  C   C14       1.0  0.0922151584274573  0.4664048029848757  0.40886489156580563  1.0000
  C   C15       1.0  0.40779088091788646  0.4664128887021874  0.9088631698019969  1.0000
  C   C16       1.0  0.9077905276047032  0.53359414136915  0.5911342119886385  1.0000
  C   C17       1.0  0.6835361025057266  0.6974961936366809  0.0823452213611233  1.0000
  C   C18       1.0  0.18353658195793088  0.30251039453055034  0.41765219402237364  1.0000
  C   C19       1.0  0.3164504367537262  0.3025177499184508  0.9176516115094346  1.0000
  C   C20       1.0  0.8164650011747554  0.6974972585375951  0.5823438970375463  1.0000
  C   C21       1.0  0.7818706131207234  0.9567210643547525  0.12472203338772661  1.0000
  C   C22       1.0  0.28188076650320676  0.0432851742653142  0.37527905598986433  1.0000
  C   C23       1.0  0.21812960243359916  0.043281669261368394  0.8752781332146  1.0000
  C   C24       1.0  0.7181331253138978  0.9567175261745647  0.6247197373923115  1.0000
  C   C25       1.0  0.7775398802111153  0.0436913651688826  0.16829734052942774  1.0000
  C   C26       1.0  0.2775489387093657  0.956312344283397  0.331704402285972  1.0000
  C   C27       1.0  0.2224671734936337  0.956307637349326  0.8317041661926867  1.0000
  C   C28       1.0  0.7224635854667055  0.043686600099214004  0.6682947012772262  1.0000
  C   C29       1.0  0.9244511668254559  0.2787535609434499  0.139829040311497  1.0000
  C   C30       1.0  0.424456284309116  0.7212526232072491  0.360172746613472  1.0000
  C   C31       1.0  0.07554768111251062  0.7212504357619378  0.860171480640709  1.0000
  C   C32       1.0  0.5755466664906023  0.27874510789047247  0.6398280624423409  1.0000
  C   C33       1.0  0.9916587192669367  0.4439728718336157  0.14646765023161384  1.0000
  C   C34       1.0  0.4916538180106399  0.5560338575402852  0.35353362224519463  1.0000
  C   C35       1.0  0.008341496305987997  0.5560323796641242  0.853532881764558  1.0000
  C   C36       1.0  0.5083422946514276  0.44396388183720603  0.6464675301112738  1.0000
  C   C37       1.0  0.0669868566306704  0.5264383652255022  0.110221876653867  1.0000
  C   C38       1.0  0.5669817077938434  0.4735623124572824  0.389778629052458  1.0000
  C   C39       1.0  0.9330174618038285  0.47356311362113246  0.8897782789115001  1.0000
  C   C40       1.0  0.43301987537092396  0.5264341638480871  0.610222168959382  1.0000
  C   C41       1.0  0.07904543008031341  0.44696482322489567  0.06611651259104431  1.0000
  C   C42       1.0  0.5790453708092683  0.5530359719103188  0.43388471063430256  1.0000
  C   C43       1.0  0.9209534178391433  0.5530354091205892  0.9338839752345225  1.0000
  C   C44       1.0  0.420952109475408  0.4469605126862461  0.566116430681703  1.0000
  C   C45       1.0  0.017655773465818897  0.2848161271053157  0.05883630722431831  1.0000
  C   C46       1.0  0.5176643593272202  0.7151829249625904  0.4411657776198866  1.0000
  C   C47       1.0  0.9823485449814554  0.715181628923176  0.9411655317614918  1.0000
  C   C48       1.0  0.4823303857062412  0.2848123214526126  0.5588360392692381  1.0000
  C   C49       1.0  0.9375491212398541  0.19736649209026783  0.0952928953850147  1.0000
  C   C50       1.0  0.43755525921562805  0.8026373169205739  0.40470993294160007  1.0000
  C   C51       1.0  0.06245519721976929  0.8026337735114949  0.9047089656852239  1.0000
  C   C52       1.0  0.5624435887225161  0.19736418682825266  0.5952912525450103  1.0000
  C   C53       1.0  0.8651350134418648  0.03457788998269959  0.0884251068996207  1.0000
  C   C54       1.0  0.3651429495164463  0.9654202944784628  0.41157749173791575  1.0000
  C   C55       1.0  0.1348679373639357  0.9654223423799307  0.9115753809311972  1.0000
  C   C56       1.0  0.6348586336604853  0.03458118435673899  0.5884226638239485  1.0000
  Br  Br1       1.0  0.7372943206394068  0.1410834407601413  0.9540115213469565  1.0000
  Br  Br2       1.0  0.23730030654690637  0.8589133471789979  0.5459839731121364  1.0000
  Br  Br3       1.0  0.26270726251875226  0.8589180131500029  0.04598760428665832  1.0000
  Br  Br4       1.0  0.7627067471575868  0.14108939477406318  0.4540165368083678  1.0000
  Br  Br5       1.0  0.7648988507203214  0.09022019374938849  0.3050464197018243  1.0000
  Br  Br6       1.0  0.2648437043242353  0.9098075414888597  0.19496751627708872  1.0000
  Br  Br7       1.0  0.23510409989938805  0.9097561062753172  0.6949500819233452  1.0000
  Br  Br8       1.0  0.7351141153233556  0.0902358602401776  0.8050542888056216  1.0000
  Br  Br9       1.0  0.7234598181325962  0.6367764153679117  0.24356344304194275  1.0000
  Br  Br10      1.0  0.2234687106742186  0.3632027849896887  0.2564290253750201  1.0000
  Br  Br11      1.0  0.2765021038421763  0.36320765414730266  0.7564430807570517  1.0000
  Br  Br12      1.0  0.7764877405217019  0.6367934003346888  0.7435597567494058  1.0000
  N   N1        1.0  0.5301169020487249  0.5082482189153127  0.13364099610797106  1.0000
  N   N2        1.0  0.03012279468257619  0.49175330565258696  0.3663553064821131  1.0000
  N   N3        1.0  0.46988331341189843  0.4917518971189523  0.8663546853875063  1.0000
  N   N4        1.0  0.9698828913741834  0.508251904326258  0.6336435089739753  1.0000
  N   N5        1.0  0.5020247316847558  0.2614057144596912  0.0636332224229861  1.0000
  N   N6        1.0  0.0020232012912870996  0.7385868498675308  0.43636533405680933  1.0000
  N   N7        1.0  0.4979864247936945  0.7385931385253314  0.936362104734876  1.0000
  N   N8        1.0  0.9979701761386861  0.26140469034051966  0.5636388528698362  1.0000
  N   N9        1.0  0.7005150295483488  0.79891191151885  0.12102871161301473  1.0000
  N   N10       1.0  0.20052408336439234  0.2010886194767849  0.3789717818546024  1.0000
  N   N11       1.0  0.29948381835215787  0.2010907888581386  0.8789700817498914  1.0000
  N   N12       1.0  0.7994898084216829  0.7989102999864883  0.6210262917821012  1.0000
  N   N13       1.0  0.8445094126214912  0.19671893368587942  0.1752336807720951  1.0000
  N   N14       1.0  0.3445140281471523  0.8032878202878847  0.32476722576749495  1.0000
  N   N15       1.0  0.15549217057421313  0.8032825700743798  0.8247675047180183  1.0000
  N   N16       1.0  0.6554916579038659  0.19670990251291443  0.6752332399824044  1.0000
  O   O1        1.0  0.7378454644616284  0.7312255800795955  0.04342118410700381  1.0000
  O   O2        1.0  0.23785113598665927  0.26877896089222725  0.4565766916469088  1.0000
  O   O3        1.0  0.26212876616956754  0.2687958838355442  0.9565753716916492  1.0000
  O   O4        1.0  0.7621654910379403  0.7312236730922662  0.5434193552634313  1.0000
