data_image0
_chemical_formula_structural       AlH27C45S6O24
_chemical_formula_sum              "Al1 H27 C45 S6 O24"
_cell_length_a       4.309240726596284
_cell_length_b       23.33920224736673
_cell_length_c       23.31129989485584
_cell_angle_alpha    60.13697364939235
_cell_angle_beta     88.64894269998712
_cell_angle_gamma    88.33813281832487

_space_group_name_H-M_alt    "P 1"
_space_group_IT_number       1

loop_
  _space_group_symop_operation_xyz
  'x, y, z'

loop_
  _atom_site_type_symbol
  _atom_site_label
  _atom_site_symmetry_multiplicity
  _atom_site_fract_x
  _atom_site_fract_y
  _atom_site_fract_z
  _atom_site_occupancy
  Al  Al1       1.0  0.15172236119673238  0.49926514843738096  0.49969468670688133  1.0000
  H   H1        1.0  0.5042993994858945  0.32969657001962105  0.6645406464016475  1.0000
  H   H2        1.0  0.420263175861237  0.2574723395970366  0.7836743171556931  1.0000
  H   H3        1.0  0.7228604570635255  0.1519844163250639  0.02275676334975431  1.0000
  H   H4        1.0  0.6366898579645762  0.814530593893494  0.2633521438822158  1.0000
  H   H5        1.0  0.22773591598436843  0.8847559783885898  0.24612302615690845  1.0000
  H   H6        1.0  0.1834407822869437  0.0052583802523642  0.17897464982874572  1.0000
  H   H7        1.0  0.4287118564226803  0.0983800951503326  0.1118385572377321  1.0000
  H   H8        1.0  0.4908258691397621  0.6649973474524059  0.5043997561976498  1.0000
  H   H9        1.0  0.41077674774741973  0.7842926646429832  0.4579317756089977  1.0000
  H   H10       1.0  0.7135701169508835  0.022318027568488205  0.3239121066885033  1.0000
  H   H11       1.0  0.6906689735604701  0.2642921034030792  0.41780799511053607  1.0000
  H   H12       1.0  0.2574791780750799  0.247061451227971  0.37093723731257466  1.0000
  H   H13       1.0  0.20311491033982074  0.1799292098434506  0.31774926116442265  1.0000
  H   H14       1.0  0.4517678934732956  0.11226615233988468  0.28892375955459226  1.0000
  H   H15       1.0  0.4925817983164649  0.5037068419997509  0.3309804525999099  1.0000
  H   H16       1.0  0.4134193091100046  0.45665483810805113  0.25885149034358795  1.0000
  H   H17       1.0  0.7366405856297079  0.32178204622766765  0.15106498795555012  1.0000
  H   H18       1.0  0.6133005582807272  0.4200288669043388  0.8155874479193842  1.0000
  H   H19       1.0  0.20641858321518922  0.36867918089249224  0.8847282114230737  1.0000
  H   H20       1.0  0.16247635184709713  0.315471732310229  0.005517215576162508  1.0000
  H   H21       1.0  0.4418657077958771  0.28888753763691  0.09836452748110248  1.0000
  H   H22       1.0  0.22621859652146264  0.30617312282554104  0.5488431937678301  1.0000
  H   H23       1.0  0.1524135624327911  0.5506017246709547  0.6413500311563851  1.0000
  H   H24       1.0  0.18403108912449542  0.6397702582982561  0.3072366451919707  1.0000
  H   H25       1.0  0.3727268047845413  0.44450504817293524  0.13151956721520724  1.0000
  H   H26       1.0  0.36071430312383507  0.1331577837686595  0.9185026951896305  1.0000
  H   H27       1.0  0.32701703243085933  0.9187359660537949  0.4469037785081867  1.0000
  C   C1        1.0  0.639830451403725  0.45760905215654896  0.5982478061370031  1.0000
  C   C2        1.0  0.6619119740141671  0.4427794617923055  0.4574472710514783  1.0000
  C   C3        1.0  0.6394748813227196  0.5977687037815971  0.44276834808908927  1.0000
  C   C4        1.0  0.524260111034657  0.34960521075434065  0.6978102382034663  1.0000
  C   C5        1.0  0.4818879683704651  0.3084112960027241  0.7654965438223158  1.0000
  C   C6        1.0  0.6188191510483207  0.22854835384436004  0.9243024677434022  1.0000
  C   C7        1.0  0.6007617072710758  0.19894668241150984  0.9931212249287639  1.0000
  C   C8        1.0  0.6268191958090271  0.7144592036386612  0.3423628039782615  1.0000
  C   C9        1.0  0.5937199406202965  0.7825669005036386  0.3161235242240467  1.0000
  C   C10       1.0  0.3361288173293389  0.9150616769579827  0.2632884007313052  1.0000
  C   C11       1.0  0.31260471338723056  0.9833653995648393  0.22504435924315652  1.0000
  C   C12       1.0  0.5933148926233541  0.4163296165971175  0.6716386926018814  1.0000
  C   C13       1.0  0.5150318198948227  0.3323525550785789  0.809543420488005  1.0000
  C   C14       1.0  0.4847848277443418  0.29180930616241335  0.8825670045401709  1.0000
  C   C15       1.0  0.4416524385074894  0.22933148041042267  0.024126324608452945  1.0000
  C   C16       1.0  0.4341865430486748  0.19720272147038292  0.09696668667960748  1.0000
  C   C17       1.0  0.43219953594430643  0.1281495336515164  0.13594940501845096  1.0000
  C   C18       1.0  0.518194736897371  0.6979670588984421  0.4512593196678337  1.0000
  C   C19       1.0  0.4780805227761321  0.7657719988261675  0.42496625989205233  1.0000
  C   C20       1.0  0.614188446241684  0.9242225358706477  0.3458651421721584  1.0000
  C   C21       1.0  0.5979123306272457  0.9929547154810762  0.3066490708713091  1.0000
  C   C22       1.0  0.6729410583902151  0.3431077880777806  0.4396803066176176  1.0000
  C   C23       1.0  0.6396393900845042  0.3167398024335242  0.39813254775501145  1.0000
  C   C24       1.0  0.363194725976726  0.2635736447344073  0.32237783477840054  1.0000
  C   C25       1.0  0.3344301380610446  0.22539392658671178  0.29245684981643194  1.0000
  C   C26       1.0  0.5944632532143644  0.6712587105040554  0.41059866339464435  1.0000
  C   C27       1.0  0.5202215858774296  0.809421647223232  0.3570257674748447  1.0000
  C   C28       1.0  0.4897969728796455  0.8824408572310389  0.3246142866510056  1.0000
  C   C29       1.0  0.4480872119204804  0.024044984858981898  0.24562010195351291  1.0000
  C   C30       1.0  0.43873753086128175  0.09683317093681858  0.20513042472327211  1.0000
  C   C31       1.0  0.4453784434452501  0.1360056185916179  0.23514735191124464  1.0000
  C   C32       1.0  0.5337020017301413  0.45097237847996047  0.3500821694296974  1.0000
  C   C33       1.0  0.49342747134581805  0.4244910941234251  0.3089533903511069  1.0000
  C   C34       1.0  0.6437591288715724  0.3445389685034926  0.22821592886852926  1.0000
  C   C35       1.0  0.6222145762677086  0.3053782130880478  0.1987244681714415  1.0000
  C   C36       1.0  0.614060627090616  0.4411050412180444  0.7152234772178474  1.0000
  C   C37       1.0  0.5793691207758441  0.3995387108659187  0.7832468626469974  1.0000
  C   C38       1.0  0.3214449435340185  0.3209053977106322  0.915123634797503  1.0000
  C   C39       1.0  0.29773741058766495  0.2909643134837268  0.9834888321590611  1.0000
  C   C40       1.0  0.6252990707787873  0.4109151526660852  0.41583787901908664  1.0000
  C   C41       1.0  0.5513230367368324  0.3570671376255277  0.33204469509891515  1.0000
  C   C42       1.0  0.5190339551976777  0.32422128041203996  0.2920331766859476  1.0000
  C   C43       1.0  0.4669352487590857  0.24537014660912598  0.2298529043100785  1.0000
  C   C44       1.0  0.4479113737453702  0.20507761549811926  0.19741786575365697  1.0000
  C   C45       1.0  0.43996105538368374  0.23512014707578285  0.12828783892126694  1.0000
  S   S1        1.0  0.7828132302218052  0.28580715154839703  0.522415885289945  1.0000
  S   S2        1.0  0.7028869693833714  0.5248263255002072  0.688737560906205  1.0000
  S   S3        1.0  0.732946240250243  0.6873347698404115  0.28525441689004805  1.0000
  S   S4        1.0  0.8323256712739352  0.42109629985363023  0.1774714338027508  1.0000
  S   S5        1.0  0.8199070892656549  0.1787722683647459  0.8964464317909276  1.0000
  S   S6        1.0  0.7976335212642738  0.8965198445613892  0.42347774596422033  1.0000
  O   O1        1.0  0.4236885442986492  0.5660620734913665  0.4351151496297874  1.0000
  O   O2        1.0  0.4176959634046611  0.4972663919576378  0.5661851631600784  1.0000
  O   O3        1.0  0.43905587738672114  0.4352907942680631  0.49733589886548674  1.0000
  O   O4        1.0  0.8845188702861436  0.5743430387052797  0.47653531975655744  1.0000
  O   O5        1.0  0.9061174744300047  0.47573095938612664  0.44729438162400464  1.0000
  O   O6        1.0  0.8913680604147415  0.44719510418516245  0.5752105027117125  1.0000
  O   O7        1.0  0.5121019650931019  0.27138642215911085  0.5662368071975266  1.0000
  O   O8        1.0  0.9384285539325462  0.23035244995701024  0.5228502714218521  1.0000
  O   O9        1.0  0.9984189192490902  0.3262775899434516  0.5402470922326827  1.0000
  O   O10       1.0  0.42822983335413056  0.5671996547009286  0.6599341298432578  1.0000
  O   O11       1.0  0.8432666551455555  0.5269927202173933  0.7428445045401872  1.0000
  O   O12       1.0  0.9278232402094986  0.5431364581549188  0.6296845902871341  1.0000
  O   O13       1.0  0.4661908423631758  0.6586858080929189  0.271882709702176  1.0000
  O   O14       1.0  0.8801663152701805  0.7409597455232203  0.22900282104728112  1.0000
  O   O15       1.0  0.9558845909851144  0.6280915485029936  0.3259533952171481  1.0000
  O   O16       1.0  0.565356240471054  0.4680803209153978  0.1336319156346378  1.0000
  O   O17       1.0  0.9589265532098279  0.44826159124873743  0.21489002755513553  1.0000
  O   O18       1.0  0.05324710663635562  0.41089039857615  0.13418419480343874  1.0000
  O   O19       1.0  0.5615741680461214  0.1353259220746139  0.8928737170466193  1.0000
  O   O20       1.0  0.9554810856066424  0.21695221934940176  0.831871797489697  1.0000
  O   O21       1.0  0.03617552431963842  0.13507121726919985  0.949021735777116  1.0000
  O   O22       1.0  0.5261727221522179  0.8931439194099723  0.4703095647232943  1.0000
  O   O23       1.0  0.9374022483854176  0.8319639033889175  0.44972240451080847  1.0000
  O   O24       1.0  0.0067626002274180875  0.9490326828033987  0.4148819054614065  1.0000
