data_image0
_chemical_formula_structural       CuMo4H28C40N8O13
_chemical_formula_sum              "Cu1 Mo4 H28 C40 N8 O13"
_cell_length_a       8.158300668121292
_cell_length_b       9.199229793994503
_cell_length_c       13.847659616929752
_cell_angle_alpha    78.42665719656455
_cell_angle_beta     84.48506475374003
_cell_angle_gamma    77.1955142941532

_space_group_name_H-M_alt    "P 1"
_space_group_IT_number       1

loop_
  _space_group_symop_operation_xyz
  'x, y, z'

loop_
  _atom_site_type_symbol
  _atom_site_label
  _atom_site_symmetry_multiplicity
  _atom_site_fract_x
  _atom_site_fract_y
  _atom_site_fract_z
  _atom_site_occupancy
  Cu  Cu1       1.0  0.499999725157366  0.49999795429761223  0.5000000600526493  1.0000
  Mo  Mo1       1.0  0.16035837273364  0.819528939652706  0.4248957399000873  1.0000
  Mo  Mo2       1.0  0.8396434666208918  0.18047265896690595  0.5751056302301337  1.0000
  Mo  Mo3       1.0  0.3010087025271204  0.11727874580426352  0.5508703005973103  1.0000
  Mo  Mo4       1.0  0.6989933623130541  0.8827217205671047  0.4491290409015464  1.0000
  H   H1        1.0  0.3752285190152734  0.08413672679535009  0.30786310651024  1.0000
  H   H2        1.0  0.6247709726531384  0.9158694040589666  0.6921356364927862  1.0000
  H   H3        1.0  0.3355379485059728  0.2413267703913391  0.1405799520264139  1.0000
  H   H4        1.0  0.6644662654890112  0.7586805189282444  0.8594219467587437  1.0000
  H   H5        1.0  0.04200303936047328  0.6039604614053857  0.2787311713158403  1.0000
  H   H6        1.0  0.9579845515221308  0.39603878731082187  0.7212699737993662  1.0000
  H   H7        1.0  0.09705344331778319  0.4315135296142643  0.44139018672063923  1.0000
  H   H8        1.0  0.9029344306478393  0.5684845841513636  0.5586118152431894  1.0000
  H   H9        1.0  0.35161530528122154  0.4057103268914162  0.015042865968339912  1.0000
  H   H10       1.0  0.6483882435966634  0.5942890127725776  0.9849558107418305  1.0000
  H   H11       1.0  0.03837834054667872  0.8023699575873949  0.8533172281833218  1.0000
  H   H12       1.0  0.9616269898512897  0.19762711974306774  0.1466823619567919  1.0000
  H   H13       1.0  0.3677462215644241  0.3272403051512142  0.8679969533983539  1.0000
  H   H14       1.0  0.6322480266537553  0.6727567108264053  0.13200262544755506  1.0000
  H   H15       1.0  0.4959644660227769  0.294208496676589  0.7011765469644688  1.0000
  H   H16       1.0  0.5040295135117318  0.7057896535760264  0.298822896402811  1.0000
  H   H17       1.0  0.3857284990772528  0.7582345647825194  0.596500873841947  1.0000
  H   H18       1.0  0.6142758558516661  0.2417613720564802  0.4034982093041037  1.0000
  H   H19       1.0  0.2532040348439963  0.8110334621503982  0.755282393526258  1.0000
  H   H20       1.0  0.7467988360472049  0.18896360139596885  0.2447173544084791  1.0000
  H   H21       1.0  0.8579027113539727  0.9844736187310088  0.8554158730748258  1.0000
  H   H22       1.0  0.14209524052369457  0.015523417247166502  0.14458419044915158  1.0000
  H   H23       1.0  0.631226727953873  0.20009861094825251  0.8686323395162604  1.0000
  H   H24       1.0  0.3687756199693198  0.7999007204725287  0.13136785883121863  1.0000
  H   H25       1.0  0.5718074840733394  0.06785691527093718  0.17241434688989446  1.0000
  H   H26       1.0  0.42820391175498435  0.9321515462980159  0.8275905498827713  1.0000
  H   H27       1.0  0.8072177852262072  0.8474461364217306  0.17311829071518056  1.0000
  H   H28       1.0  0.1927943014583846  0.15255892772689353  0.8268812415333715  1.0000
  C   C1        1.0  0.30203975940016653  0.1998129309761651  0.2986425751174195  1.0000
  C   C2        1.0  0.6979551956033845  0.8001863597679133  0.7013573752439229  1.0000
  C   C3        1.0  0.27945123074049866  0.28902864873433043  0.2050217108260597  1.0000
  C   C4        1.0  0.7205466362708676  0.7109740641597213  0.7949790391474638  1.0000
  C   C5        1.0  0.18501056540956992  0.43795784067350496  0.19537699620117624  1.0000
  C   C6        1.0  0.8149833292586237  0.5620459864949865  0.8046231336156568  1.0000
  C   C7        1.0  0.11627347676212446  0.4891817825784772  0.2824586607561771  1.0000
  C   C8        1.0  0.8837213789757783  0.5108231857570688  0.7175412546847185  1.0000
  C   C9        1.0  0.1457853184272935  0.3932702465839101  0.3727515376747662  1.0000
  C   C10       1.0  0.8542086611072153  0.6067279036687125  0.6272479056925135  1.0000
  C   C11       1.0  0.1541693581590593  0.5387787201740012  0.09800206866534474  1.0000
  C   C12       1.0  0.8458327210804625  0.46122174552177614  0.9019979942035122  1.0000
  C   C13       1.0  0.2478946385413465  0.5045129770716485  0.011859896870788622  1.0000
  C   C14       1.0  0.7521050660577159  0.495481797924157  0.9881396373431317  1.0000
  C   C15       1.0  0.2067153277952301  0.6006391414724561  0.9216748307197379  1.0000
  C   C16       1.0  0.7932806587449973  0.3993556141983774  0.07832349744611386  1.0000
  C   C17       1.0  0.07589043163731188  0.7277462337545941  0.9224413649349472  1.0000
  C   C18       1.0  0.924105837985934  0.2722473869656596  0.07755782007953371  1.0000
  C   C19       1.0  0.9916567012080719  0.7567795334342264  0.011634022130543476  1.0000
  C   C20       1.0  0.008346862069160504  0.24321980555418318  0.988365375949627  1.0000
  C   C21       1.0  0.29436809107813394  0.5724074352261327  0.826818466746019  1.0000
  C   C22       1.0  0.705629860799533  0.42758960075204305  0.17318159677795114  1.0000
  C   C23       1.0  0.3695526429484418  0.42638709115293966  0.8100511537572643  1.0000
  C   C24       1.0  0.6304410679023889  0.5736121933746788  0.18994815413138608  1.0000
  C   C25       1.0  0.4407843709844955  0.40661727053590374  0.7169325268157535  1.0000
  C   C26       1.0  0.5592135520944836  0.5933797667934402  0.2830660939682232  1.0000
  C   C27       1.0  0.3773718829267523  0.6654538714772968  0.6579563874623491  1.0000
  C   C28       1.0  0.6226255315835659  0.33454543305088436  0.34204340510437  1.0000
  C   C29       1.0  0.30192630858824293  0.6934831593658259  0.7482210397092643  1.0000
  C   C30       1.0  0.6980727593778083  0.3065195617714451  0.2517781886269504  1.0000
  C   C31       1.0  0.8531311569643236  0.8913803678385648  0.01418571394558649  1.0000
  C   C32       1.0  0.1468653252749803  0.10861779417139421  0.9858157357370703  1.0000
  C   C33       1.0  0.8003295429079811  0.9950665422604318  0.9285236040943945  1.0000
  C   C34       1.0  0.19967478475199837  0.0049350687921077  0.0714790509812104  1.0000
  C   C35       1.0  0.669010281520677  0.11885903004313289  0.9356801192735135  1.0000
  C   C36       1.0  0.33099555897570815  0.8811414529508711  0.0643233137534125  1.0000
  C   C37       1.0  0.6374348178197877  0.0467017995052927  0.10264704025480852  1.0000
  C   C38       1.0  0.3625682656874716  0.9532998053307795  0.8973549723481045  1.0000
  C   C39       1.0  0.7694452564081828  0.921203469609381  0.1036172934624418  1.0000
  C   C40       1.0  0.23055955102176987  0.07879587559549611  0.8963827470904208  1.0000
  N   N1        1.0  0.2372406392468562  0.25017474185656147  0.381790305638944  1.0000
  N   N2        1.0  0.7627530716039672  0.7498245426710568  0.6182090022497135  1.0000
  N   N3        1.0  0.4420051994303052  0.5244601995617372  0.6413930552660077  1.0000
  N   N4        1.0  0.5579912396109633  0.4755379644749738  0.35860623030664845  1.0000
  N   N5        1.0  0.5853418477470242  0.1462169039154659  0.020685042975813417  1.0000
  N   N6        1.0  0.41466219682993716  0.8537858420876603  0.979316755251162  1.0000
  N   N7        1.0  0.030241279661197443  0.662659062119218  0.09771223209290981  1.0000
  N   N8        1.0  0.9697625522997059  0.33733914259419623  0.90228730146589  1.0000
  O   O1        1.0  0.37477911950753656  0.2800662817122586  0.548677925819483  1.0000
  O   O2        1.0  0.6252298425531961  0.7199308189966801  0.45131854214869804  1.0000
  O   O3        1.0  0.4999989011947363  0.9999982096830279  0.49999989329118943  1.0000
  O   O4        1.0  0.3085547052658981  0.0291334963055192  0.6727175580788726  1.0000
  O   O5        1.0  0.6914505402657555  0.9708692579408192  0.3272827185107873  1.0000
  O   O6        1.0  0.19301605186044676  0.9491429950025461  0.49785593085768914  1.0000
  O   O7        1.0  0.8069848552230711  0.050857461098857505  0.5021470963884697  1.0000
  O   O8        1.0  0.21554876064138986  0.8834809886764177  0.302875540223461  1.0000
  O   O9        1.0  0.7844481453002672  0.1165205830505869  0.6971254241260069  1.0000
  O   O10       1.0  0.9431403296313052  0.7916787176842704  0.43686420178981683  1.0000
  O   O11       1.0  0.056861524122574315  0.2083228802597645  0.5631378897104045  1.0000
  O   O12       1.0  0.28643387820245186  0.6383127349283056  0.4642622412381457  1.0000
  O   O13       1.0  0.7135679179540447  0.3616888657180653  0.5357369647820819  1.0000
