data_image0
_chemical_formula_structural       Zn4H70C86N24O16
_chemical_formula_sum              "Zn4 H70 C86 N24 O16"
_cell_length_a       16.47789259456583
_cell_length_b       17.838170612938583
_cell_length_c       28.879274626959617
_cell_angle_alpha    90.38005932767628
_cell_angle_beta     89.63556272860956
_cell_angle_gamma    89.93434149436962

_space_group_name_H-M_alt    "P 1"
_space_group_IT_number       1

loop_
  _space_group_symop_operation_xyz
  'x, y, z'

loop_
  _atom_site_type_symbol
  _atom_site_label
  _atom_site_symmetry_multiplicity
  _atom_site_fract_x
  _atom_site_fract_y
  _atom_site_fract_z
  _atom_site_occupancy
  Zn  Zn1       1.0  0.5803992153680823  0.5002453111341437  0.4982604741456597  1.0000
  Zn  Zn2       1.0  0.41135891329766144  0.5003716141697295  0.4996269216026761  1.0000
  Zn  Zn3       1.0  0.41421544393689663  0.5033085519830607  0.8812869260876042  1.0000
  Zn  Zn4       1.0  0.5836623264873779  0.503854469911765  0.8809422231932442  1.0000
  H   H1        1.0  0.2834933398219733  0.5939660076206648  0.542019008629083  1.0000
  H   H2        1.0  0.2850045829351727  0.4050876780943538  0.4580321145807246  1.0000
  H   H3        1.0  0.7054963119969955  0.5579687116927301  0.5612574020606758  1.0000
  H   H4        1.0  0.7090306717917585  0.4389433487255871  0.4377861538542476  1.0000
  H   H5        1.0  0.6239769009448468  0.7314184655159293  0.4747703829537855  1.0000
  H   H6        1.0  0.37137589384637704  0.7430110151955062  0.5112644231238477  1.0000
  H   H7        1.0  0.6245015542448799  0.26918474223027283  0.5272507184933559  1.0000
  H   H8        1.0  0.3734243989432001  0.2575943030346223  0.4893110681923502  1.0000
  H   H9        1.0  0.6058651361474078  0.405842457774355  0.7746755679634487  1.0000
  H   H10       1.0  0.6055074428073653  0.4068953892052319  0.6026409957105228  1.0000
  H   H11       1.0  0.4062868678920922  0.5898728759893002  0.647062085835806  1.0000
  H   H12       1.0  0.40703140815342925  0.5902064982580482  0.7338446041378999  1.0000
  H   H13       1.0  0.3737503249105956  0.4745358703767621  0.030122421677539497  1.0000
  H   H14       1.0  0.6295054740657875  0.519755266273705  0.0254778272331748  1.0000
  H   H15       1.0  0.37467250765162424  0.5229188722069507  0.35340996649178885  1.0000
  H   H16       1.0  0.6264641338428588  0.461093794517012  0.35240182768544054  1.0000
  H   H17       1.0  0.7114633712917141  0.591360218525544  0.8343029097476844  1.0000
  H   H18       1.0  0.7096007443650265  0.412666228895219  0.9249782737852283  1.0000
  H   H19       1.0  0.28816030287300987  0.5646821351528712  0.8206374725319561  1.0000
  H   H20       1.0  0.2861295142469303  0.4376819769857433  0.9400369629995706  1.0000
  H   H21       1.0  0.3703054723391404  0.7431810048846752  0.8984761210088337  1.0000
  H   H22       1.0  0.6266651791677945  0.7380248166417896  0.8712553801584946  1.0000
  H   H23       1.0  0.3726614158417192  0.265811849250049  0.8581500806444777  1.0000
  H   H24       1.0  0.6291046150990026  0.26710658350569355  0.8835211792502945  1.0000
  H   H25       1.0  0.06441268407010628  0.3776406960439471  0.4600413735845592  1.0000
  H   H26       1.0  0.15493050500995761  0.34452294044915976  0.43933892121677326  1.0000
  H   H27       1.0  0.0622204576478183  0.6183110593364489  0.5417711470441516  1.0000
  H   H28       1.0  0.15219768124982383  0.653603229233674  0.561002450430891  1.0000
  H   H29       1.0  0.9304711871879691  0.4402521494735082  0.4236845105855095  1.0000
  H   H30       1.0  0.8406145975967974  0.4108408070938409  0.4007633986204766  1.0000
  H   H31       1.0  0.9257811909334562  0.5533211423851013  0.5786325815189031  1.0000
  H   H32       1.0  0.8345931732502977  0.5826948415058764  0.6006238091585201  1.0000
  H   H33       1.0  0.37537369045639213  0.9456716162872848  0.5298431466614275  1.0000
  H   H34       1.0  0.3182700426021938  0.8667142034724974  0.5330798865388147  1.0000
  H   H35       1.0  0.6458692594383991  0.9353343429385387  0.4694007923110561  1.0000
  H   H36       1.0  0.691908933516423  0.8513767426432391  0.45911700768982655  1.0000
  H   H37       1.0  0.37742030824927053  0.05421018065708689  0.4740640164315194  1.0000
  H   H38       1.0  0.32094220840357934  0.13337898738171813  0.4688773416393062  1.0000
  H   H39       1.0  0.6449583481611894  0.06573231993958469  0.5369920356965777  1.0000
  H   H40       1.0  0.6906244138754191  0.14991051329550226  0.5463018416599894  1.0000
  H   H41       1.0  0.6418195786367492  0.5521184188298845  0.1503133316266272  1.0000
  H   H42       1.0  0.6926875099391268  0.5557794499677937  0.0990881226426978  1.0000
  H   H43       1.0  0.3685834643642494  0.4637215384512528  0.15663090881140818  1.0000
  H   H44       1.0  0.3148978450036993  0.45051976585359194  0.10718299817127529  1.0000
  H   H45       1.0  0.6386663157329765  0.45543188139944835  0.2258068159000217  1.0000
  H   H46       1.0  0.6882280669949808  0.43647312457642323  0.2757922748189401  1.0000
  H   H47       1.0  0.37022969311169623  0.556605010397881  0.22895326302634092  1.0000
  H   H48       1.0  0.3167050188604891  0.5605852468841801  0.27934201701845746  1.0000
  H   H49       1.0  0.929657900159441  0.3816629124296325  0.9216488372160041  1.0000
  H   H50       1.0  0.8393324051536412  0.3516598911402155  0.9438929415923809  1.0000
  H   H51       1.0  0.9322130707527166  0.6172958605460079  0.8354696273146799  1.0000
  H   H52       1.0  0.8423838949318495  0.649365608552415  0.8142085645258843  1.0000
  H   H53       1.0  0.06501812841146659  0.43936065301872407  0.955127935226656  1.0000
  H   H54       1.0  0.1549413109531415  0.4082351648778725  0.9768265580231628  1.0000
  H   H55       1.0  0.06820479886746972  0.5584936806353082  0.8029349927373204  1.0000
  H   H56       1.0  0.15860800295110522  0.5905306586223131  0.7819989235724164  1.0000
  H   H57       1.0  0.6373502563950026  0.9391665372872279  0.8489680512914715  1.0000
  H   H58       1.0  0.6891422275681834  0.8569511262721999  0.8480827175900243  1.0000
  H   H59       1.0  0.3632492466748475  0.9480379292618862  0.904313440265426  1.0000
  H   H60       1.0  0.3100352571973701  0.8675704566510019  0.9122294113573942  1.0000
  H   H61       1.0  0.6387573912128987  0.0640706551984849  0.8987468949977424  1.0000
  H   H62       1.0  0.690980791854699  0.14576239026453658  0.9022246505025961  1.0000
  H   H63       1.0  0.3647281540279721  0.06171686348906039  0.8454385723646921  1.0000
  H   H64       1.0  0.3117460757115254  0.14304574065729264  0.8407322630180829  1.0000
  H   H65       1.0  0.7696143467708155  0.3058894725945363  0.7307963337331458  1.0000
  H   H66       1.0  0.6961091608060955  0.307013310744473  0.7763802332600845  1.0000
  H   H67       1.0  0.687799864308225  0.24207919668835828  0.7297224936587625  1.0000
  H   H68       1.0  0.6866333378036629  0.24305204861019544  0.6436601845902246  1.0000
  H   H69       1.0  0.699073201065545  0.3106482516904092  0.5990635428983495  1.0000
  H   H70       1.0  0.769830115539591  0.30532544776399817  0.6453908787947781  1.0000
  C   C1        1.0  0.49318492325257063  0.6462535775249589  0.4924364233662786  1.0000
  C   C2        1.0  0.49919174237315644  0.5115428085736295  0.5890542512099158  1.0000
  C   C3        1.0  0.4950504499483088  0.354290938193621  0.5071402580949352  1.0000
  C   C4        1.0  0.4988056183837629  0.48807001887177365  0.4089724844854956  1.0000
  C   C5        1.0  0.4980055465202966  0.6500151786627483  0.8868679257659123  1.0000
  C   C6        1.0  0.5002279158474751  0.5127095244302352  0.790387776682323  1.0000
  C   C7        1.0  0.5001171337302351  0.35700011378614943  0.8727277670206275  1.0000
  C   C8        1.0  0.5000094260206042  0.4929946291152232  0.9717315047562136  1.0000
  C   C9        1.0  0.2465738918883034  0.5524439750696215  0.5239998157711838  1.0000
  C   C10       1.0  0.16158895059471232  0.5544763807729396  0.5254790273342564  1.0000
  C   C11       1.0  0.11828329779259411  0.49847846431768517  0.5007255745147958  1.0000
  C   C12       1.0  0.16246626037421663  0.44307478778074466  0.47555733260617916  1.0000
  C   C13       1.0  0.24742954535810216  0.4461642300878167  0.47635784615263776  1.0000
  C   C14       1.0  0.03303088087223931  0.49801851995852775  0.5009735670748441  1.0000
  C   C15       1.0  0.9586198978809221  0.49772069364499305  0.5010267088609552  1.0000
  C   C16       1.0  0.8733735216693576  0.4977383515195654  0.5006315625586666  1.0000
  C   C17       1.0  0.82857029288855  0.5335063494718781  0.5366982404372962  1.0000
  C   C18       1.0  0.7436095488889761  0.5324683221081798  0.5344251138133416  1.0000
  C   C19       1.0  0.7456673109480576  0.4644519678753481  0.46498154060158464  1.0000
  C   C20       1.0  0.8306409260581378  0.46199342104951285  0.4640809042453283  1.0000
  C   C21       1.0  0.4974044450216582  0.7304077614421869  0.49307205216798167  1.0000
  C   C22       1.0  0.5712800168162034  0.7657703576794218  0.4835421836553094  1.0000
  C   C23       1.0  0.5770484137943371  0.843934556475133  0.4856674089212873  1.0000
  C   C24       1.0  0.5073824095735163  0.8871505795272154  0.49782398948723017  1.0000
  C   C25       1.0  0.43229534649634616  0.8504773326711895  0.5069102009274431  1.0000
  C   C26       1.0  0.42813550291397473  0.7723119864326548  0.5043498754871933  1.0000
  C   C27       1.0  0.5115656762197601  0.9658391874558557  0.5008216512566932  1.0000
  C   C28       1.0  0.5119747121282286  0.03455002185825149  0.5041864675870826  1.0000
  C   C29       1.0  0.5080523497077748  0.11330849581152334  0.5063460710689681  1.0000
  C   C30       1.0  0.5773122412058953  0.1566035880933611  0.5184065837075664  1.0000
  C   C31       1.0  0.5718905596979836  0.23483192072899323  0.5189170807152195  1.0000
  C   C32       1.0  0.4986810301948168  0.27022483179946005  0.5081665982748191  1.0000
  C   C33       1.0  0.4296884322025676  0.22828941109032289  0.4971935442736494  1.0000
  C   C34       1.0  0.43360277025163896  0.15002817877201113  0.49596331594647575  1.0000
  C   C35       1.0  0.5017637753779526  0.5088394977068658  0.7385573332206261  1.0000
  C   C36       1.0  0.5554923420052944  0.4593005848594274  0.7141378839188021  1.0000
  C   C37       1.0  0.44860716722637767  0.5540469312483933  0.7144225222780705  1.0000
  C   C38       1.0  0.6059482488672218  0.4067177601572352  0.7369453088855097  1.0000
  C   C39       1.0  0.654044658689493  0.3560529298931171  0.7129338500440523  1.0000
  C   C40       1.0  0.5013784551834206  0.5087564879859554  0.6408842418763924  1.0000
  C   C41       1.0  0.4483085792747943  0.5539900835631142  0.665770056344563  1.0000
  C   C42       1.0  0.5553825026119841  0.4594553232352109  0.6643911128162757  1.0000
  C   C43       1.0  0.6060454036907218  0.40747365964151067  0.6404089584003927  1.0000
  C   C44       1.0  0.6542408057759418  0.3565605953395872  0.6633973646782108  1.0000
  C   C45       1.0  0.501631448283419  0.4960021165209341  0.023678541433930902  1.0000
  C   C46       1.0  0.42987814815811737  0.4850992573196819  0.048810990641079896  1.0000
  C   C47       1.0  0.4305984194061026  0.4881121113568127  0.09717055695031007  1.0000
  C   C48       1.0  0.5045560672938122  0.5038552315595336  0.12049580325183479  1.0000
  C   C49       1.0  0.5768249871685925  0.5163081308498432  0.09447329877863098  1.0000
  C   C50       1.0  0.5747920997993673  0.5112208748729469  0.0461666933428688  1.0000
  C   C51       1.0  0.5057927854960128  0.5057798295144236  0.16916547813507068  1.0000
  C   C52       1.0  0.5045933864357295  0.5046627553513046  0.2116741290165933  1.0000
  C   C53       1.0  0.5033984719174499  0.5011309117877187  0.260302463274904  1.0000
  C   C54       1.0  0.4304634391540319  0.5165987938384758  0.28523390832383194  1.0000
  C   C55       1.0  0.429645672237598  0.511093977544739  0.33348267599128434  1.0000
  C   C56       1.0  0.5002493728025429  0.49111207865358586  0.3570377521789752  1.0000
  C   C57       1.0  0.5724000353511657  0.4759783290065866  0.3329515223983321  1.0000
  C   C58       1.0  0.5748063045001146  0.480684426728345  0.2846721943610788  1.0000
  C   C59       1.0  0.74833134578342  0.5523148424372905  0.8541108873380451  1.0000
  C   C60       1.0  0.8333103232441843  0.554091356705136  0.8527278016218671  1.0000
  C   C61       1.0  0.876434528470277  0.5002544663101529  0.8789830906312587  1.0000
  C   C62       1.0  0.8321829143026419  0.44717235147719947  0.9054670468934986  1.0000
  C   C63       1.0  0.7473027305299382  0.45101359426821813  0.9049524659602497  1.0000
  C   C64       1.0  0.9616581627190826  0.49973199948409763  0.8789146454051533  1.0000
  C   C65       1.0  0.0360546672258337  0.49964739446179596  0.879117165991296  1.0000
  C   C66       1.0  0.12124677644884228  0.4999912848198988  0.8794821709085381  1.0000
  C   C67       1.0  0.16554135387344363  0.5379261869584154  0.8444222565812465  1.0000
  C   C68       1.0  0.25046053256770756  0.5371381796939471  0.8466085700714812  1.0000
  C   C69       1.0  0.24929951781651036  0.4650283597443375  0.9138096106594347  1.0000
  C   C70       1.0  0.16433799741119512  0.46249231609069597  0.9149320883712163  1.0000
  C   C71       1.0  0.49846048464383597  0.7340429479844841  0.8849909230309547  1.0000
  C   C72       1.0  0.42613892167332074  0.7739340644902482  0.8915120409049208  1.0000
  C   C73       1.0  0.4262079811405144  0.8521846368307561  0.8891789290598027  1.0000
  C   C74       1.0  0.4998810395212062  0.8904454700246588  0.8789485671449809  1.0000
  C   C75       1.0  0.5728408914013771  0.8490875053705477  0.8720247242593969  1.0000
  C   C76       1.0  0.571487989508384  0.7710947847587588  0.8757435185259083  1.0000
  C   C77       1.0  0.5007135153190135  0.9689764961708817  0.8758589581255833  1.0000
  C   C78       1.0  0.5013991573594866  0.03763875874096808  0.8734274014880369  1.0000
  C   C79       1.0  0.5015919232675048  0.11630746243913137  0.871691341236378  1.0000
  C   C80       1.0  0.4281373642964895  0.1558164630647382  0.8631730348192406  1.0000
  C   C81       1.0  0.428380686943335  0.23416265102132164  0.8635393381137674  1.0000
  C   C82       1.0  0.5007809889571532  0.2730044305463223  0.8710670336695401  1.0000
  C   C83       1.0  0.5737851191594033  0.2348306717057723  0.8782107846117171  1.0000
  C   C84       1.0  0.5748275940062372  0.15657135404918415  0.8792467521145538  1.0000
  C   C85       1.0  0.7044819987448748  0.3000678021806066  0.7388700259022228  1.0000
  C   C86       1.0  0.70511196819367  0.30117844838044044  0.6363933032548914  1.0000
  N   N1        1.0  0.28669196646288947  0.4995593375983346  0.5000130334223769  1.0000
  N   N2        1.0  0.7050019077397424  0.4989971261989082  0.4992961959062328  1.0000
  N   N3        1.0  0.7082316517269334  0.5022823395481522  0.8798307400981144  1.0000
  N   N4        1.0  0.289538254781732  0.5016241585733283  0.8805228928048618  1.0000
  N   N5        1.0  0.12207429888089655  0.38962252103508627  0.44989361589011867  1.0000
  N   N6        1.0  0.12030849891485224  0.607605152618973  0.5513459637910643  1.0000
  N   N7        1.0  0.8722787283122388  0.42404663909427126  0.4296466090346485  1.0000
  N   N8        1.0  0.8681424931383434  0.5702443516900287  0.5720419514579191  1.0000
  N   N9        1.0  0.3639551296153556  0.8937871725962547  0.5165298093052825  1.0000
  N   N10       1.0  0.650294667189904  0.8803322822886412  0.4780758615120035  1.0000
  N   N11       1.0  0.36561609402232886  0.10677409832432967  0.4863039376711882  1.0000
  N   N12       1.0  0.6500545445039735  0.12025282593760514  0.5273443085464464  1.0000
  N   N13       1.0  0.648727370349839  0.53016382622026  0.1179218555226029  1.0000
  N   N14       1.0  0.36011248438003923  0.4789864194686756  0.12311897280724077  1.0000
  N   N15       1.0  0.646156685199948  0.4685689551627659  0.2598492741790466  1.0000
  N   N16       1.0  0.3606436002840212  0.5339675766442865  0.2607628149830745  1.0000
  N   N17       1.0  0.8725670645104557  0.39545538255252666  0.932152588161962  1.0000
  N   N18       1.0  0.874681439958927  0.6048313333982305  0.8256010083588946  1.0000
  N   N19       1.0  0.12297097490171893  0.42287098335349765  0.9484145342524783  1.0000
  N   N20       1.0  0.12526487995082652  0.5763854121774513  0.8102370229576151  1.0000
  N   N21       1.0  0.6445786343065266  0.8877227813630879  0.8634015940824752  1.0000
  N   N22       1.0  0.3553037824749268  0.8935821744625865  0.8946725605949977  1.0000
  N   N23       1.0  0.6463153228635575  0.1167554349096989  0.8861133724699782  1.0000
  N   N24       1.0  0.3570456127828124  0.11530611040340938  0.856943911198492  1.0000
  O   O1        1.0  0.5586247316640255  0.6109383856600628  0.4829991660918721  1.0000
  O   O2        1.0  0.4249370857126565  0.6161114711516829  0.5018247248843508  1.0000
  O   O3        1.0  0.430713612574948  0.500008200075598  0.5702122485247045  1.0000
  O   O4        1.0  0.5655695820060558  0.525520079349263  0.5679602886442794  1.0000
  O   O5        1.0  0.42719436148526313  0.38469706921793534  0.4975845711268149  1.0000
  O   O6        1.0  0.5607829784101812  0.38947615701025023  0.5155276406113387  1.0000
  O   O7        1.0  0.5653577087263031  0.47287979918844036  0.42930319023452057  1.0000
  O   O8        1.0  0.43130825450660387  0.5018007480903603  0.4290561203982363  1.0000
  O   O9        1.0  0.4291382871250989  0.6176537761050651  0.885304590933586  1.0000
  O   O10       1.0  0.5666702022802995  0.6173690534867402  0.8894328087177499  1.0000
  O   O11       1.0  0.5682047095317203  0.5186326676504932  0.8108330977214138  1.0000
  O   O12       1.0  0.43080992528082623  0.5103179957663072  0.8100052541523155  1.0000
  O   O13       1.0  0.5686853373345356  0.3900042058040042  0.8706311942088121  1.0000
  O   O14       1.0  0.4312789762286755  0.3890689983543253  0.8764987768779519  1.0000
  O   O15       1.0  0.43077734996241196  0.49574957903880795  0.9523421582982435  1.0000
  O   O16       1.0  0.5683285057088838  0.4885560887710127  0.9509095335508063  1.0000
