data_image0
_chemical_formula_structural       Co2H24C28N8O8
_chemical_formula_sum              "Co2 H24 C28 N8 O8"
_cell_length_a       8.277980330851252
_cell_length_b       9.92885017703276
_cell_length_c       9.863466258278258
_cell_angle_alpha    89.99987690721794
_cell_angle_beta     104.00819235320506
_cell_angle_gamma    90.00028829101669

_space_group_name_H-M_alt    "P 1"
_space_group_IT_number       1

loop_
  _space_group_symop_operation_xyz
  'x, y, z'

loop_
  _atom_site_type_symbol
  _atom_site_label
  _atom_site_symmetry_multiplicity
  _atom_site_fract_x
  _atom_site_fract_y
  _atom_site_fract_z
  _atom_site_occupancy
  Co  Co1       1.0  0.24642546798246198  0.6005542969904241  0.13882805590461794  1.0000
  Co  Co2       1.0  0.7464197344783584  0.39944692770662005  0.6388271614750776  1.0000
  H   H1        1.0  0.119130436689467  0.9106947457826204  0.07378106282443037  1.0000
  H   H2        1.0  0.6191279064610808  0.08930709327108127  0.5737784610167294  1.0000
  H   H3        1.0  0.9401533619569946  0.975708215782113  0.8296315547845763  1.0000
  H   H4        1.0  0.4401532920838847  0.024291395850454495  0.32962946360161977  1.0000
  H   H5        1.0  0.6173928293383141  0.7172341375973018  0.2368506161722407  1.0000
  H   H6        1.0  0.11738936166238999  0.28276331638446084  0.7368532925534833  1.0000
  H   H7        1.0  0.044041235991024094  0.5548408890603652  0.8330365851183356  1.0000
  H   H8        1.0  0.5440356671831025  0.44515907388044684  0.333031623442892  1.0000
  H   H9        1.0  0.8856533069651318  0.7681837407092613  0.6687630139291368  1.0000
  H   H10       1.0  0.38565069551658127  0.23181498036993986  0.16876096179092304  1.0000
  H   H11       1.0  0.40909708733360617  0.4161517569022946  0.9449614656062334  1.0000
  H   H12       1.0  0.9090960316103744  0.5838454636546899  0.44496220207865617  1.0000
  H   H13       1.0  0.8641903010442816  0.6186282022515711  0.11265313778955731  1.0000
  H   H14       1.0  0.3641886386072812  0.381371556407217  0.6126579997103077  1.0000
  H   H15       1.0  0.7160734768755218  0.43643370377044005  0.9410396863053517  1.0000
  H   H16       1.0  0.21607275344639726  0.5635657398514834  0.44104338557340117  1.0000
  H   H17       1.0  0.06571397004279328  0.2658331689690172  0.3440455473662779  1.0000
  H   H18       1.0  0.5657151355164203  0.7341688753296224  0.8440483892176116  1.0000
  H   H19       1.0  0.7047965783345659  0.9490628026851551  0.2115729743865272  1.0000
  H   H20       1.0  0.20479926068908574  0.05093809227253129  0.71157336677156  1.0000
  H   H21       1.0  0.8940061510230778  0.07851707418787868  0.403196327659323  1.0000
  H   H22       1.0  0.39400762953609797  0.9214842013811901  0.9031955941599957  1.0000
  H   H23       1.0  0.6877626178622265  0.008620739185531098  0.9637758906338473  1.0000
  H   H24       1.0  0.1877618878817842  0.9913815589218656  0.4637756174141854  1.0000
  C   C1        1.0  0.07653181414348609  0.8423393393938094  0.9868357663236506  1.0000
  C   C2        1.0  0.5765308061943699  0.1576624444051902  0.48683338329708875  1.0000
  C   C3        1.0  0.6111310040352578  0.642618320699931  0.15564535620674033  1.0000
  C   C4        1.0  0.11112671755680029  0.357381295300442  0.6556487155287268  1.0000
  C   C5        1.0  0.03502519900539619  0.660478453748105  0.8575036566739055  1.0000
  C   C6        1.0  0.5350190066905042  0.33952343344866154  0.3575018375620045  1.0000
  C   C7        1.0  0.9568587962399276  0.7650283233128831  0.7764081025878508  1.0000
  C   C8        1.0  0.45685496251475394  0.23497147209404542  0.2764047778026607  1.0000
  C   C9        1.0  0.49894771592963133  0.484936341224923  0.007174641954144052  1.0000
  C   C10       1.0  0.9989463714073848  0.5150631993816928  0.5071774425234492  1.0000
  C   C11       1.0  0.7335810403627361  0.5939866241061009  0.09640123180115968  1.0000
  C   C12       1.0  0.23357951564189955  0.4060126234088984  0.5964070824149416  1.0000
  C   C13       1.0  0.9731665099029455  0.24309550992433063  0.12206587331512951  1.0000
  C   C14       1.0  0.4731657977538432  0.7569036769387125  0.6220640320306996  1.0000
  C   C15       1.0  0.9820999872067802  0.20890410897957415  0.26156166418192567  1.0000
  C   C16       1.0  0.4820994588235408  0.7910968308888185  0.7615628280276423  1.0000
  C   C17       1.0  0.08437947134586916  0.3513912229518397  0.08888482291992256  1.0000
  C   C18       1.0  0.5843751626920763  0.648608424166781  0.5888867223332567  1.0000
  C   C19       1.0  0.7810422924451785  0.03078545983526479  0.18713653598619112  1.0000
  C   C20       1.0  0.28104280148444616  0.9692158061411716  0.6871354989400869  1.0000
  C   C21       1.0  0.8869472833548925  0.10320885702422798  0.294167852384163  1.0000
  C   C22       1.0  0.38695234988245625  0.8967875866485359  0.7941689259668221  1.0000
  C   C23       1.0  0.8656482301798148  0.17038708211642725  0.014360352803492953  1.0000
  C   C24       1.0  0.36564544317879205  0.8296159145868242  0.5143589397008339  1.0000
  C   C25       1.0  0.7708975542048079  0.06420033299982457  0.04790915312362637  1.0000
  C   C26       1.0  0.27089787033393253  0.9358021958282162  0.5479081489193333  1.0000
  C   C27       1.0  0.8410813958452152  0.20778924463389353  0.8631967342851536  1.0000
  C   C28       1.0  0.34107451310205045  0.7922098809988964  0.3632006948530984  1.0000
  N   N1        1.0  0.9841244661015052  0.8780071335430931  0.8597497580866854  1.0000
  N   N2        1.0  0.4841212251530037  0.12199058306434547  0.359746800978712  1.0000
  N   N3        1.0  0.46492671237541566  0.5732495195863547  0.09913294426149824  1.0000
  N   N4        1.0  0.9649236129493631  0.42674867475924577  0.5991355749988398  1.0000
  N   N5        1.0  0.10955311258842929  0.7101488727326454  0.9890496498869008  1.0000
  N   N6        1.0  0.6095503777292776  0.2898530443504867  0.48904662366867035  1.0000
  N   N7        1.0  0.6600747279939155  0.4950576921415929  0.004042284240561931  1.0000
  N   N8        1.0  0.160075028554175  0.5049424530367899  0.5040462684282045  1.0000
  O   O1        1.0  0.14359885407217376  0.34146577516747095  0.983875139462533  1.0000
  O   O2        1.0  0.6435858154729104  0.6585312594597283  0.4838651329020747  1.0000
  O   O3        1.0  0.11485358181226249  0.45042279980197714  0.17760729731453745  1.0000
  O   O4        1.0  0.614854935724992  0.549577791917315  0.6776085514023646  1.0000
  O   O5        1.0  0.8673108008030467  0.1246458289397054  0.7749398923940158  1.0000
  O   O6        1.0  0.36730941460960753  0.8753556096423619  0.2749366944755422  1.0000
  O   O7        1.0  0.7814851332968329  0.32716551647686737  0.829844609911589  1.0000
  O   O8        1.0  0.2814813055766264  0.6728334314627274  0.3298474318849926  1.0000
