data_image0
_chemical_formula_structural       Cu4H28C36S4I4N12
_chemical_formula_sum              "Cu4 H28 C36 S4 I4 N12"
_cell_length_a       4.075229497921459
_cell_length_b       9.855391024211675
_cell_length_c       26.113660456593916
_cell_angle_alpha    89.99742011111242
_cell_angle_beta     90.00096613207569
_cell_angle_gamma    92.12297122178936

_space_group_name_H-M_alt    "P 1"
_space_group_IT_number       1

loop_
  _space_group_symop_operation_xyz
  'x, y, z'

loop_
  _atom_site_type_symbol
  _atom_site_label
  _atom_site_symmetry_multiplicity
  _atom_site_fract_x
  _atom_site_fract_y
  _atom_site_fract_z
  _atom_site_occupancy
  Cu  Cu1       1.0  0.7241867302137093  0.9011294623649987  0.5062893802295534  1.0000
  Cu  Cu2       1.0  0.27576789895347514  0.5988958997673065  0.006287865003379502  1.0000
  Cu  Cu3       1.0  0.2757501323668236  0.0988695551877115  0.49371010605523225  1.0000
  Cu  Cu4       1.0  0.724186362457523  0.40112020459324776  0.9937093235140966  1.0000
  H   H1        1.0  0.9461624420999897  0.85349204913571  0.6117306725285587  1.0000
  H   H2        1.0  0.053847652499314294  0.6464967506366505  0.11173006874466301  1.0000
  H   H3        1.0  0.053844689035642476  0.14650108143218427  0.3882657503683476  1.0000
  H   H4        1.0  0.9461723653969256  0.3535002995007943  0.8882717153154263  1.0000
  H   H5        1.0  0.7975895422164283  0.7001428144389691  0.6834187542269066  1.0000
  H   H6        1.0  0.20241106303292603  0.7998426508448374  0.1834148400290587  1.0000
  H   H7        1.0  0.20242446430410868  0.29984718712912434  0.3165780516465945  1.0000
  H   H8        1.0  0.7976313256661028  0.2001561772970532  0.8165850293393648  1.0000
  H   H9        1.0  0.22152477368903326  0.4564685991931156  0.575320274643481  1.0000
  H   H10       1.0  0.778466061891258  0.04353166779686998  0.0753179597704658  1.0000
  H   H11       1.0  0.7784456015499258  0.5435249512515269  0.4246803605555983  1.0000
  H   H12       1.0  0.22157040320255555  0.9564763791546864  0.9246830583371735  1.0000
  H   H13       1.0  0.3842155210827086  0.6249294518498942  0.5089273985247118  1.0000
  H   H14       1.0  0.615769312827119  0.8750830496366574  0.008926778455176502  1.0000
  H   H15       1.0  0.61573667844479  0.3750734575395427  0.4910728536307404  1.0000
  H   H16       1.0  0.3842250194651911  0.1249224285568289  0.9910734737350355  1.0000
  H   H17       1.0  0.12143696642949918  0.3183648954657555  0.6345875916409656  1.0000
  H   H18       1.0  0.8785636567026102  0.18162312637213057  0.1345782620262241  1.0000
  H   H19       1.0  0.8785724566968369  0.6816271918570321  0.3654130436223825  1.0000
  H   H20       1.0  0.12146087370389579  0.8183870904519849  0.8654250536954183  1.0000
  H   H21       1.0  0.9200777894234804  0.19662439177888302  0.7135900864339606  1.0000
  H   H22       1.0  0.0799414754161418  0.3033621547306851  0.21357161806496097  1.0000
  H   H23       1.0  0.07991298226670553  0.8033740093769098  0.28641284639986964  1.0000
  H   H24       1.0  0.9200484321180296  0.6966464241781481  0.7864328464481787  1.0000
  H   H25       1.0  0.554750180062129  0.6188682078253009  0.8178916386843512  1.0000
  H   H26       1.0  0.44525953895470133  0.8811397962219374  0.317889313952307  1.0000
  H   H27       1.0  0.44526620585259724  0.3811370183364033  0.18210784765470583  1.0000
  H   H28       1.0  0.5547573939723589  0.11885322210454058  0.682110555430626  1.0000
  C   C1        1.0  0.7852665670729521  0.7643231159156798  0.6053376131067695  1.0000
  C   C2        1.0  0.21472086096065365  0.735666703625064  0.1053328875311479  1.0000
  C   C3        1.0  0.2147134509727096  0.2356693077636081  0.3946588097598749  1.0000
  C   C4        1.0  0.7853129949070236  0.2643403566043361  0.8946639182265559  1.0000
  C   C5        1.0  0.4886407214439287  0.5648384511044142  0.6365007324040948  1.0000
  C   C6        1.0  0.5113530953192154  0.9351536894695869  0.1364950022964919  1.0000
  C   C7        1.0  0.5113412712836122  0.4351508994544345  0.363498371080162  1.0000
  C   C8        1.0  0.4887085080725908  0.0648581376289243  0.8635010375757876  1.0000
  C   C9        1.0  0.7008518676828925  0.6773672685168461  0.6454199294224666  1.0000
  C   C10       1.0  0.299151583065921  0.8226328517026859  0.1454224032113274  1.0000
  C   C11       1.0  0.2991563738684917  0.3226329668215654  0.3545784081233451  1.0000
  C   C12       1.0  0.7008625824760415  0.17735816434338147  0.854582827363302  1.0000
  C   C13       1.0  0.38415157396657656  0.5424806908970936  0.5857315661317842  1.0000
  C   C14       1.0  0.615844657590003  0.9575327123837308  0.08573454924466971  1.0000
  C   C15       1.0  0.6158352484149103  0.45752385643061183  0.4142671542908403  1.0000
  C   C16       1.0  0.38416524159134  0.04246241963712549  0.9142702983486117  1.0000
  C   C17       1.0  0.4755894464911064  0.6358290468181806  0.5480498650988253  1.0000
  C   C18       1.0  0.5243928082910898  0.8641696797498356  0.04804420501670851  1.0000
  C   C19       1.0  0.5243662262533916  0.3641646717472469  0.4519496212552384  1.0000
  C   C20       1.0  0.4756291128892797  0.13583955035210946  0.9519548983549984  1.0000
  C   C21       1.0  0.17974605041250408  0.35919570315633814  0.6723671721784188  1.0000
  C   C22       1.0  0.8202519525603336  0.1407949724719941  0.17235683631675872  1.0000
  C   C23       1.0  0.8202586303532582  0.6407974553742264  0.32763001659765223  1.0000
  C   C24       1.0  0.17978348953954537  0.8592222375247829  0.8276411181824204  1.0000
  C   C25       1.0  0.36900883286379116  0.4793210736353045  0.6797005151717813  1.0000
  C   C26       1.0  0.6309750121328362  0.0206678744235376  0.17969550763680087  1.0000
  C   C27       1.0  0.6310064428003272  0.5206770475490289  0.32030050299038504  1.0000
  C   C28       1.0  0.36902824138544316  0.9793161488635747  0.8203081912162562  1.0000
  C   C29       1.0  0.31828011342366114  0.45096382053767314  0.7664648511698788  1.0000
  C   C30       1.0  0.6817175112435193  0.04903396866237839  0.2664610376413847  1.0000
  C   C31       1.0  0.6817313716228738  0.5490414617102674  0.23353348633816756  1.0000
  C   C32       1.0  0.3182925464821337  0.9509621784340537  0.7335422781782983  1.0000
  C   C33       1.0  0.0664220187960041  0.2914692763099183  0.7161239946250364  1.0000
  C   C34       1.0  0.9335782032072827  0.20851921964212036  0.2161124484066548  1.0000
  C   C35       1.0  0.9335814807985229  0.7085320297305984  0.28387932114287656  1.0000
  C   C36       1.0  0.06641533629005637  0.7914811832654394  0.783893930886194  1.0000
  S   S1        1.0  0.39713351311677053  0.5008345145968106  0.8298685202161098  1.0000
  S   S2        1.0  0.6028794868213295  0.9991699938703885  0.3298638812071673  1.0000
  S   S3        1.0  0.6028730711533257  0.4991708236224354  0.17013058316759813  1.0000
  S   S4        1.0  0.39712796169653325  0.0008251664808937997  0.6701356052039175  1.0000
  I   I1        1.0  0.7802976285796033  0.1337563256444483  0.557300194267718  1.0000
  I   I2        1.0  0.21967219390826637  0.3662483586145909  0.057297133375165316  1.0000
  I   I3        1.0  0.2196422316216838  0.8662304558115607  0.4427038874191426  1.0000
  I   I4        1.0  0.7802941609362076  0.6337665906961546  0.9427004381094053  1.0000
  N   N1        1.0  0.6680665248399007  0.7479489258755263  0.5573320675985514  1.0000
  N   N2        1.0  0.33190484359651856  0.7520518711331051  0.05733121077167881  1.0000
  N   N3        1.0  0.33190219309941665  0.25204972747294346  0.44266895049709387  1.0000
  N   N4        1.0  0.6680828431795333  0.24794249814276265  0.9426709562089998  1.0000
  N   N5        1.0  0.44332655684829797  0.5240344772817307  0.7274331129197195  1.0000
  N   N6        1.0  0.5566631759240648  0.9759590952075282  0.22742950363073083  1.0000
  N   N7        1.0  0.556678916950986  0.4759637562359558  0.27256292699107837  1.0000
  N   N8        1.0  0.4433736772891095  0.02403572926993289  0.7725661534090094  1.0000
  N   N9        1.0  0.1285166196965264  0.33631936622931846  0.7634544865317708  1.0000
  N   N10       1.0  0.8714957357536331  0.16368064673508087  0.26344275684011365  1.0000
  N   N11       1.0  0.8714792112593555  0.663679994099695  0.2365449998287943  1.0000
  N   N12       1.0  0.12851345750404158  0.8363256785051333  0.736555580656173  1.0000
