data_image0
_chemical_formula_structural       Cd2H40C36N12O12
_chemical_formula_sum              "Cd2 H40 C36 N12 O12"
_cell_length_a       8.980135921772629
_cell_length_b       9.219533018460364
_cell_length_c       12.820450824008855
_cell_angle_alpha    89.99998340668917
_cell_angle_beta     90.0001322908222
_cell_angle_gamma    107.08795470635079

_space_group_name_H-M_alt    "P 1"
_space_group_IT_number       1

loop_
  _space_group_symop_operation_xyz
  'x, y, z'

loop_
  _atom_site_type_symbol
  _atom_site_label
  _atom_site_symmetry_multiplicity
  _atom_site_fract_x
  _atom_site_fract_y
  _atom_site_fract_z
  _atom_site_occupancy
  Cd  Cd1       1.0  0.999999709470103  5.574319814999343e-07  2.7455840300000177e-08  1.0000
  Cd  Cd2       1.0  0.4999992264863735  9.986208268999954e-07  0.4999999815911807  1.0000
  H   H1        1.0  0.3710017097017797  0.4494747392128531  0.1630358589170413  1.0000
  H   H2        1.0  0.12899920744187912  0.550521685153534  0.6630367903527272  1.0000
  H   H3        1.0  0.6289997514579754  0.5505214502897503  0.8369632151420775  1.0000
  H   H4        1.0  0.8709995955967142  0.4494767716850063  0.3369646237153106  1.0000
  H   H5        1.0  0.5322669222168341  0.2744750108699279  0.17837166238769706  1.0000
  H   H6        1.0  0.9677358964983112  0.7255253853120677  0.6783723226574097  1.0000
  H   H7        1.0  0.46773445000385283  0.7255245821539306  0.8216266316672005  1.0000
  H   H8        1.0  0.03226581734247705  0.27447534245955313  0.32162831140895787  1.0000
  H   H9        1.0  0.8133093502809102  0.3541278793866455  0.13382196519499703  1.0000
  H   H10       1.0  0.6866939963421644  0.6458747589158025  0.6338214089839768  1.0000
  H   H11       1.0  0.18669347734427083  0.6458728491043573  0.8661778888684992  1.0000
  H   H12       1.0  0.31330805911191817  0.35412710360238014  0.36617766507499994  1.0000
  H   H13       1.0  0.94440443906133  0.6175270432442731  0.06815508475869342  1.0000
  H   H14       1.0  0.5555949956441141  0.3824744178041471  0.5681559343297025  1.0000
  H   H15       1.0  0.055595388823960014  0.3824748178351457  0.9318455493060257  1.0000
  H   H16       1.0  0.44440705980996853  0.6175274447140353  0.4318431397292812  1.0000
  H   H17       1.0  0.2850161192462651  0.6721618568302362  0.11711070310583692  1.0000
  H   H18       1.0  0.21498018264126273  0.32783453644005084  0.6171141620093081  1.0000
  H   H19       1.0  0.7149811394487741  0.32783886806242896  0.8828883709493951  1.0000
  H   H20       1.0  0.7850182787867581  0.6721627856524037  0.3828903720736676  1.0000
  H   H21       1.0  0.33387820106196386  0.817692994759149  0.021813765849103103  1.0000
  H   H22       1.0  0.1661184518018075  0.18230560944994784  0.5218148375944054  1.0000
  H   H23       1.0  0.6661216268219688  0.18230886632003523  0.9781860882118496  1.0000
  H   H24       1.0  0.8338818066399226  0.8176939828554951  0.4781873564784576  1.0000
  H   H25       1.0  0.48085432596128197  0.9981731477794684  0.1664546442754471  1.0000
  H   H26       1.0  0.0191422368910565  0.0018198722866032  0.6664523980404482  1.0000
  H   H27       1.0  0.519144818690613  0.0018264438056264003  0.833545209785207  1.0000
  H   H28       1.0  0.9808555412926837  0.9981751803096158  0.3335451160082741  1.0000
  H   H29       1.0  0.38787876972360635  0.8604042991347073  0.2581143874769722  1.0000
  H   H30       1.0  0.1121140881156748  0.1395865055991052  0.7581153813350101  1.0000
  H   H31       1.0  0.6121218303300608  0.13959642791705565  0.7418854665847263  1.0000
  H   H32       1.0  0.8878778684677612  0.8604040051316632  0.2418860327283667  1.0000
  H   H33       1.0  0.8948748930217929  0.13309318204616016  0.1868701117017366  1.0000
  H   H34       1.0  0.6051286385526992  0.8669094888512987  0.6868693755293265  1.0000
  H   H35       1.0  0.10512682081899538  0.8669075457254609  0.813130522364631  1.0000
  H   H36       1.0  0.3948734169013902  0.1330923736668836  0.3131296985296573  1.0000
  H   H37       1.0  0.07601152721416328  0.14634179712245302  0.17897737089273852  1.0000
  H   H38       1.0  0.4239911535874725  0.8536603107739325  0.6789771525499051  1.0000
  H   H39       1.0  0.9239912114733214  0.8536623348900535  0.8210224831703172  1.0000
  H   H40       1.0  0.5760109018693313  0.14634155174472604  0.3210234815166118  1.0000
  C   C1        1.0  0.5691810223356129  0.6327788477094672  0.10573692185353421  1.0000
  C   C2        1.0  0.9308179491051831  0.3672169634154586  0.6057383807091341  1.0000
  C   C3        1.0  0.4308174390815224  0.3672184743810689  0.8942613721992672  1.0000
  C   C4        1.0  0.06918051231467358  0.6327803586755607  0.39426147335120737  1.0000
  C   C5        1.0  0.49421849601372264  0.48648771363573934  0.1427964164978093  1.0000
  C   C6        1.0  0.005781831076326696  0.5135143705910467  0.6427987170326118  1.0000
  C   C7        1.0  0.5057802180790175  0.5135141467228624  0.8572003175471606  1.0000
  C   C8        1.0  0.9942209965515756  0.4864863579004394  0.3572026970384313  1.0000
  C   C9        1.0  0.5862411279043227  0.3896291267398483  0.151091841485858  1.0000
  C   C10       1.0  0.9137612540866513  0.6103701179336697  0.6510939997306835  1.0000
  C   C11       1.0  0.41376024431500713  0.6103704662837686  0.848905672565273  1.0000
  C   C12       1.0  0.0862390043523646  0.38962947437129003  0.3489066343346324  1.0000
  C   C13       1.0  0.7468753409197716  0.4351842984964521  0.12496027985471873  1.0000
  C   C14       1.0  0.7531272026430641  0.5648194683894162  0.6249629686337741  1.0000
  C   C15       1.0  0.2531273977622703  0.5648198335150952  0.8750364541932498  1.0000
  C   C16       1.0  0.24687416957898015  0.43518012463468386  0.375036105424897  1.0000
  C   C17       1.0  0.8210527762995596  0.5798219205266194  0.0880856456508852  1.0000
  C   C18       1.0  0.678948272233356  0.4201772847132191  0.5880866861975278  1.0000
  C   C19       1.0  0.17894748213809208  0.4201776717781059  0.9119142084106642  1.0000
  C   C20       1.0  0.32105232781895404  0.5798234423383024  0.4119123878604043  1.0000
  C   C21       1.0  0.728825843434137  0.6785171730118195  0.0780726519917607  1.0000
  C   C22       1.0  0.7711720815085811  0.3214865621850933  0.5780730830104588  1.0000
  C   C23       1.0  0.2711739844484313  0.3214846880671233  0.9219264220654255  1.0000
  C   C24       1.0  0.22882997394686566  0.6785153003333236  0.4219267710522914  1.0000
  C   C25       1.0  0.3684770577015044  0.7815103682664601  0.09712160190268551  1.0000
  C   C26       1.0  0.13151917448998768  0.21848601272090926  0.5971226098768412  1.0000
  C   C27       1.0  0.631521314782013  0.21849035734630462  0.9028790321609889  1.0000
  C   C28       1.0  0.8684796285499699  0.7815124441178656  0.4028795841949703  1.0000
  C   C29       1.0  0.3756695215145669  0.9026427432288459  0.17935661215821602  1.0000
  C   C30       1.0  0.1243277695539931  0.09735255425911761  0.6793552949433207  1.0000
  C   C31       1.0  0.624330736925806  0.09735684907635538  0.8206448019108736  1.0000
  C   C32       1.0  0.8756703502498481  0.9026436330848567  0.3206445591168716  1.0000
  C   C33       1.0  0.2345402427558128  0.9614856618928371  0.1742279669807445  1.0000
  C   C34       1.0  0.26545771366831866  0.03851190193874031  0.6742292305320987  1.0000
  C   C35       1.0  0.7654603572992186  0.0385150651591601  0.8257726670847279  1.0000
  C   C36       1.0  0.7345422031546746  0.9614865556191818  0.3257714035330679  1.0000
  N   N1        1.0  0.5206502408824036  0.7571142605321343  0.0839966039690694  1.0000
  N   N2        1.0  0.9793463382506429  0.2428849393166602  0.5839973883275107  1.0000
  N   N3        1.0  0.4793481315997567  0.24288646508038886  0.9160032500908315  1.0000
  N   N4        1.0  0.02065203423423166  0.7571157862963388  0.41600402573993733  1.0000
  N   N5        1.0  0.6383987334520212  0.8708301555434447  0.045937182591878  1.0000
  N   N6        1.0  0.8615980546030356  0.12917015566699067  0.545937801613924  1.0000
  N   N7        1.0  0.3616007528158889  0.1291705707886948  0.9540626714689183  1.0000
  N   N8        1.0  0.1384010900474948  0.8708294359178694  0.4540612724429494  1.0000
  N   N9        1.0  0.7635056484542629  0.8253245842661416  0.0422868709239523  1.0000
  N   N10       1.0  0.7364911268736661  0.1746757247013164  0.542287277976989  1.0000
  N   N11       1.0  0.2364930656439128  0.17467727609341924  0.9577129831360978  1.0000
  N   N12       1.0  0.2635091315612712  0.8253238676029185  0.4577110160770133  1.0000
  O   O1        1.0  0.12081950273558562  0.8855475289084042  0.1184669737977799  1.0000
  O   O2        1.0  0.37917637332058957  0.1144511339685934  0.6184668444165382  1.0000
  O   O3        1.0  0.8791806667657268  0.1144554669180593  0.8815336602671024  1.0000
  O   O4        1.0  0.6208202021451328  0.8855473214304652  0.3815337896459283  1.0000
  O   O5        1.0  0.2392393160510977  0.0825189837658016  0.22415532812478034  1.0000
  O   O6        1.0  0.26076138363000473  0.9174797469292744  0.724155612255693  1.0000
  O   O7        1.0  0.7607616256185921  0.917482878032999  0.7758445259370677  1.0000
  O   O8        1.0  0.739239305362723  0.08251757660122648  0.2758450218102269  1.0000
  O   O9        1.0  0.9879346586067396  0.16626898267550422  0.1399162961673142  1.0000
  O   O10       1.0  0.5120687092635877  0.8337336593714683  0.639915416951169  1.0000
  O   O11       1.0  0.01206662468032972  0.8337340138705759  0.8600843378984635  1.0000
  O   O12       1.0  0.4879336878078817  0.1662693378939935  0.3600844371117375  1.0000
