data_image0
_chemical_formula_structural       Zn2H28C28N8O8
_chemical_formula_sum              "Zn2 H28 C28 N8 O8"
_cell_length_a       7.641382530229031
_cell_length_b       9.466538529486195
_cell_length_c       11.091871088281584
_cell_angle_alpha    79.30057834190134
_cell_angle_beta     69.63951431369995
_cell_angle_gamma    84.75669930362575

_space_group_name_H-M_alt    "P 1"
_space_group_IT_number       1

loop_
  _space_group_symop_operation_xyz
  'x, y, z'

loop_
  _atom_site_type_symbol
  _atom_site_label
  _atom_site_symmetry_multiplicity
  _atom_site_fract_x
  _atom_site_fract_y
  _atom_site_fract_z
  _atom_site_occupancy
  Zn  Zn1       1.0  0.5693810543297034  0.9707473680457068  0.2445029766243963  1.0000
  Zn  Zn2       1.0  0.516780305315706  0.12606354723379096  0.7743386933283176  1.0000
  H   H1        1.0  0.6802159072717444  0.21720051080174577  0.017309328919871785  1.0000
  H   H2        1.0  0.3509162403167566  0.4023813940062836  0.760151386208598  1.0000
  H   H3        1.0  0.44235649126888177  0.7075402044859516  0.3830691763232109  1.0000
  H   H4        1.0  0.1813320174877262  0.16070386816747367  0.9390515246802734  1.0000
  H   H5        1.0  0.34077701400396165  0.2337263491846997  0.9767883985419061  1.0000
  H   H6        1.0  0.20321363396577394  0.9434779027003585  0.3522209114603072  1.0000
  H   H7        1.0  0.2919667939791566  0.858103049142386  0.22388996488123777  1.0000
  H   H8        1.0  0.3940200571779826  0.2314127331341992  0.5993475951254013  1.0000
  H   H9        1.0  0.4967543349035423  0.07959882962408217  0.5435416728432756  1.0000
  H   H10       1.0  0.23794437965187135  0.9606908652418367  0.7319360764827464  1.0000
  H   H11       1.0  0.33570106562046215  0.1858621132733233  0.2217486582159509  1.0000
  H   H12       1.0  0.5145558002104949  0.2380592217721826  0.25299417848189165  1.0000
  H   H13       1.0  0.017051142208195806  0.8199322213311502  0.901745313598262  1.0000
  H   H14       1.0  0.8139328157555636  0.4777252217055548  0.22155395863446617  1.0000
  H   H15       1.0  0.2255532680218479  0.6447730398974156  0.7670515516111037  1.0000
  H   H16       1.0  0.012528372509549995  0.3016852439793283  0.093120069282115  1.0000
  H   H17       1.0  0.7261973359675906  0.6061567368627081  0.4534000382709422  1.0000
  H   H18       1.0  0.038281038674377  0.35432457272408857  0.6790209939455423  1.0000
  H   H19       1.0  0.9822869969807827  0.7726393221715284  0.3472828751381059  1.0000
  H   H20       1.0  0.3043417085024629  0.518042858202108  0.5672930013739687  1.0000
  H   H21       1.0  0.7088453854112727  0.6926919418330185  0.8065848267179732  1.0000
  H   H22       1.0  0.24527798878808937  0.6803000951769321  0.1652927106679201  1.0000
  H   H23       1.0  0.7567135430301801  0.42890274185213423  0.8576359905627201  1.0000
  H   H24       1.0  0.29188259518061704  0.4214795986446376  0.21902304266724568  1.0000
  H   H25       1.0  0.25749508803801285  0.2488381750778288  0.4563594422695587  1.0000
  H   H26       1.0  0.053563392857100184  0.2576715821439847  0.32250607528006014  1.0000
  H   H27       1.0  0.7647645804162548  0.8893690552828556  0.5774763042083962  1.0000
  H   H28       1.0  0.9641173846606819  0.8781722785373629  0.7124028744402723  1.0000
  C   C1        1.0  0.7747689788391483  0.7614341031531707  0.14815838664431172  1.0000
  C   C2        1.0  0.90250954878514  0.660043338255562  0.06941735304054217  1.0000
  C   C3        1.0  0.019404246132509698  0.705487381364712  0.9407784264809037  1.0000
  C   C4        1.0  0.9046300956175982  0.5136581402421  0.12192599592125931  1.0000
  C   C5        1.0  0.13416183229302456  0.608522712899166  0.8665298315164661  1.0000
  C   C6        1.0  0.0181596516517715  0.4147732705096061  0.0489900071769398  1.0000
  C   C7        1.0  0.1342850968391645  0.4608682558269805  0.9201406371881832  1.0000
  C   C8        1.0  0.7035213439923425  0.37143622717319147  0.6362488047126006  1.0000
  C   C9        1.0  0.8619405194560483  0.4694104927466467  0.5750530677126591  1.0000
  C   C10       1.0  0.8505492435922621  0.5880462983558914  0.48115395594088267  1.0000
  C   C11       1.0  0.0275976602119883  0.44552636457409256  0.6055093763864151  1.0000
  C   C12       1.0  0.9971176192507799  0.68179366030742  0.41974692118958506  1.0000
  C   C13       1.0  0.17572105172651215  0.5367340955896295  0.5441064184612969  1.0000
  C   C14       1.0  0.16167466633044822  0.6579277793857441  0.4512749272301591  1.0000
  C   C15       1.0  0.44778535826193183  0.8648260515156992  0.9546920832721071  1.0000
  C   C16       1.0  0.47691555145760833  0.7059799416432994  0.9841811048228948  1.0000
  C   C17       1.0  0.6185022505278325  0.6323984891084605  0.8968924369845865  1.0000
  C   C18       1.0  0.3619151019610456  0.6269578451821474  0.099503704691422  1.0000
  C   C19       1.0  0.6454506625312888  0.48495901720729506  0.9250003881578407  1.0000
  C   C20       1.0  0.3870412338554061  0.4788862658098196  0.12902121921583637  1.0000
  C   C21       1.0  0.528870307685807  0.40681354986906365  0.04124859177067462  1.0000
  C   C22       1.0  0.1288218882789494  0.060210521753802496  0.5922386918083973  1.0000
  C   C23       1.0  0.15363579768334998  0.16706761008948937  0.4812533788665689  1.0000
  C   C24       1.0  0.0388171163144335  0.17304408030172166  0.40676679501769536  1.0000
  C   C25       1.0  0.8985813228588879  0.07300622474756577  0.43900109568592427  1.0000
  C   C26       1.0  0.8725524173874177  0.9681158186453303  0.5512985459025401  1.0000
  C   C27       1.0  0.9860253957483637  0.96097375351124  0.6263292549484732  1.0000
  C   C28       1.0  0.7896324263496127  0.07426918788709708  0.3508207647044656  1.0000
  N   N1        1.0  0.5489084168608542  0.2555587869470273  0.062118248537842626  1.0000
  N   N2        1.0  0.24333228526077016  0.3640473593990521  0.8432429549087672  1.0000
  N   N3        1.0  0.3091867735577338  0.7501042466457901  0.4014002142039743  1.0000
  N   N4        1.0  0.2929776742355017  0.22706984039520958  0.9015888520111446  1.0000
  N   N5        1.0  0.3093005391090315  0.8752400134791922  0.3091188193285674  1.0000
  N   N6        1.0  0.4094973341700977  0.1222046745904066  0.6248320381694726  1.0000
  N   N7        1.0  0.2332649774917215  0.056306679507329684  0.6733544051436197  1.0000
  N   N8        1.0  0.4784857043944015  0.18392842743453738  0.19302737697845626  1.0000
  O   O1        1.0  0.6805377065552136  0.7177644671439578  0.266559536053201  1.0000
  O   O2        1.0  0.7602201978233225  0.8943104930978902  0.09449245345464163  1.0000
  O   O3        1.0  0.7268164184489976  0.25603538916054447  0.7149117381849093  1.0000
  O   O4        1.0  0.5529416881504048  0.4009563125612133  0.611437078253026  1.0000
  O   O5        1.0  0.5413499997467  0.9230819487519284  0.8357293479696964  1.0000
  O   O6        1.0  0.33940195172861115  0.9335140735412465  0.03958957615416377  1.0000
  O   O7        1.0  0.8460558625699122  0.14011584422446788  0.23599873957111575  1.0000
  O   O8        1.0  0.6356132396042611  0.0010221094345013026  0.39887332722884145  1.0000
