data_image0
_chemical_formula_structural       Gd4H48C56N4O32
_chemical_formula_sum              "Gd4 H48 C56 N4 O32"
_cell_length_a       6.028509063
_cell_length_b       14.495859533146794
_cell_length_c       17.7212
_cell_angle_alpha    92.30537655523959
_cell_angle_beta     90.0
_cell_angle_gamma    90.0

_space_group_name_H-M_alt    "P 1"
_space_group_IT_number       1

loop_
  _space_group_symop_operation_xyz
  'x, y, z'

loop_
  _atom_site_type_symbol
  _atom_site_label
  _atom_site_symmetry_multiplicity
  _atom_site_fract_x
  _atom_site_fract_y
  _atom_site_fract_z
  _atom_site_occupancy
  Gd  Gd1       1.0  0.0913874382940421  0.4843474533966373  0.3837948297781963  1.0000
  Gd  Gd2       1.0  0.591385027830718  0.0156529973036399  0.116206426502707  1.0000
  Gd  Gd3       1.0  0.9086044232094393  0.5156499959491114  0.6162064406043584  1.0000
  Gd  Gd4       1.0  0.4086001985330369  0.9843499753297921  0.8837922041405051  1.0000
  H   H1        1.0  0.0025843869250578994  0.2016434964490443  0.5150581862037242  1.0000
  H   H2        1.0  0.5026018818809206  0.2983507405525785  0.9849428656196649  1.0000
  H   H3        1.0  0.9974091333633621  0.7983629282391931  0.4849456366898366  1.0000
  H   H4        1.0  0.4974115438266863  0.7016384238616382  0.015059825040481202  1.0000
  H   H5        1.0  0.7954255272552756  0.6546863360603226  0.2862836727367295  1.0000
  H   H6        1.0  0.2954213025788732  0.8453136352185808  0.21372117926271983  1.0000
  H   H7        1.0  0.2045762869578027  0.3453069708196566  0.7137185899325547  1.0000
  H   H8        1.0  0.7045705589246153  0.1546907182367789  0.7862820111824648  1.0000
  H   H9        1.0  0.8174658026552917  0.7495619198848118  0.16989552365147637  1.0000
  H   H10       1.0  0.31748314218300777  0.7504366705721708  0.3301081543212234  1.0000
  H   H11       1.0  0.1825260588481896  0.2504279349403618  0.8301049325426888  1.0000
  H   H12       1.0  0.6825319423095307  0.2495683732941458  0.6698939302497209  1.0000
  H   H13       1.0  0.1393064174282088  0.7274494376317691  0.08388589242719752  1.0000
  H   H14       1.0  0.6393338650936683  0.7725477720032856  0.41611209715178193  1.0000
  H   H15       1.0  0.8606887616451429  0.2725417980153253  0.9161151734978433  1.0000
  H   H16       1.0  0.360696148463269  0.22745381980822543  0.5838819736894508  1.0000
  H   H17       1.0  0.4354691968719706  0.6101320455259298  0.11718960545980651  1.0000
  H   H18       1.0  0.9354866918278331  0.8898686161639305  0.38280680481906876  1.0000
  H   H19       1.0  0.5645326173411078  0.3898640229978909  0.8828121837836138  1.0000
  H   H20       1.0  0.0645366865893706  0.1101343564695014  0.6171844899778094  1.0000
  H   H21       1.0  0.28561290727216  0.1592425977014429  0.3805839895543244  1.0000
  H   H22       1.0  0.7856204495184329  0.34075785299883427  0.11941049517611901  1.0000
  H   H23       1.0  0.7143972008655836  0.840754161233342  0.6194133080396257  1.0000
  H   H24       1.0  0.21439463497411274  0.6592513333332448  0.8805889042204812  1.0000
  H   H25       1.0  0.5274123281184514  0.0233282959550394  0.4001491333930289  1.0000
  H   H26       1.0  0.027428008861235795  0.476670083512353  0.09984923325600902  1.0000
  H   H27       1.0  0.4726027563740942  0.9766712246235869  0.5998493836626722  1.0000
  H   H28       1.0  0.9726086398354283  0.523332198710122  0.9001533247407991  1.0000
  H   H29       1.0  0.8944002478312283  0.0460497206755193  0.46432870100922935  1.0000
  H   H30       1.0  0.3944175873589444  0.4539479683809091  0.03566964292230781  1.0000
  H   H31       1.0  0.10561151909144677  0.9539539423688694  0.5356739024225803  1.0000
  H   H32       1.0  0.6056207201226513  0.546046028910034  0.9643337710562252  1.0000
  H   H33       1.0  0.6867717965973625  0.5737653385758676  0.445467285736008  1.0000
  H   H34       1.0  0.1867742070606866  0.9262353231139997  0.05453194602222311  1.0000
  H   H35       1.0  0.3132184061211873  0.4262328011808378  0.5545323144764326  1.0000
  H   H36       1.0  0.8132176544427949  0.0737648878755905  0.9454660294551047  1.0000
  H   H37       1.0  0.7772435856085878  0.4303379847538551  0.24955769362469482  1.0000
  H   H38       1.0  0.27724433728698017  0.0696679892341052  0.2504426158044808  1.0000
  H   H39       1.0  0.22275656981955896  0.5696608454138143  0.7504413650093795  1.0000
  H   H40       1.0  0.7227475242165012  0.9303411970979738  0.7495573478879863  1.0000
  H   H41       1.0  0.6212215924141518  0.5295320891382573  0.3656333814473527  1.0000
  H   H42       1.0  0.1212206853076125  0.9704637396748836  0.13436569128836603  1.0000
  H   H43       1.0  0.37877026908933686  0.4704625985636497  0.634366669473451  1.0000
  H   H44       1.0  0.8787661998410741  0.029535090492785805  0.8656311101622195  1.0000
  H   H45       1.0  0.8956277486813845  0.33894897628149323  0.2816486752514322  1.0000
  H   H46       1.0  0.3956268415748453  0.161057688117431  0.21834996400762924  1.0000
  H   H47       1.0  0.10436908917689887  0.661051234708097  0.7183515574093846  1.0000
  H   H48       1.0  0.6043699962834381  0.8389494269817703  0.7816465457571056  1.0000
  C   C1        1.0  0.8442253211886737  0.1916836279283061  0.4862120787632591  1.0000
  C   C2        1.0  0.3442443195013211  0.3083133707171655  0.0137901925218742  1.0000
  C   C3        1.0  0.15577151666960987  0.8083200351160897  0.5137899603726765  1.0000
  C   C4        1.0  0.6557724237761491  0.6916813169847345  0.9862143727659005  1.0000
  C   C5        1.0  0.7043416466039074  0.2677600117007088  0.47809583627873303  1.0000
  C   C6        1.0  0.2043589861316235  0.2322383677666835  0.0219081733290167  1.0000
  C   C7        1.0  0.29564689732971056  0.7322401992888814  0.5219066535655656  1.0000
  C   C8        1.0  0.7956444868663863  0.7677611528119428  0.9780965509812702  1.0000
  C   C9        1.0  0.7741366814297519  0.3570191023589544  0.5171765606540148  1.0000
  C   C10       1.0  0.2741490446026731  0.1429772058755603  0.9828273808012326  1.0000
  C   C11       1.0  0.22584854493400283  0.642979727808715  0.48282644805115643  1.0000
  C   C12       1.0  0.7258461344706788  0.8570209338811523  0.017176169482304698  1.0000
  C   C13       1.0  0.2640636322122063  0.5736762755619225  0.21750518762754473  1.0000
  C   C14       1.0  0.7640678568886159  0.9263257669498657  0.28249408956568806  1.0000
  C   C15       1.0  0.7359365232159404  0.42631841213998467  0.782496556180874  1.0000
  C   C16       1.0  0.2359339573244696  0.0736827289712565  0.7175007727464333  1.0000
  C   C17       1.0  0.9328591764945313  0.6469785880937664  0.24659875192604377  1.0000
  C   C18       1.0  0.4328582693879923  0.853021383185137  0.2534044071857906  1.0000
  C   C19       1.0  0.0671393201486836  0.353014028375256  0.7534029237298654  1.0000
  C   C20       1.0  0.5671352509004278  0.1469836606811796  0.7465959844975387  1.0000
  C   C21       1.0  0.9449832355672141  0.6991840128959339  0.18228771159152052  1.0000
  C   C22       1.0  0.4449939399551965  0.8008145775610487  0.31771540208530524  1.0000
  C   C23       1.0  0.05501360229106919  0.3008065323402036  0.8177127673201455  1.0000
  C   C24       1.0  0.5550145093976084  0.199189775894304  0.6822849668805233  1.0000
  C   C25       1.0  0.1262750029973674  0.6867752566971674  0.1340812924226995  1.0000
  C   C26       1.0  0.6262924979532372  0.8132233337598151  0.3659184354789033  1.0000
  C   C27       1.0  0.8737234936458476  0.313215978949927  0.8659192092064671  1.0000
  C   C28       1.0  0.37372590410917167  0.18678101969554461  0.6340779834158283  1.0000
  C   C29       1.0  0.2887430344400528  0.6227444729581322  0.1519188764395096  1.0000
  C   C30       1.0  0.7887538942561958  0.877256879142692  0.34807981374035535  1.0000
  C   C31       1.0  0.711257120988094  0.377248833921847  0.8480828219339076  1.0000
  C   C32       1.0  0.21125787266648635  0.1227502359565094  0.6519133102491494  1.0000
  C   C33       1.0  0.43890951682227086  0.5071427520899263  0.24231186191198623  1.0000
  C   C34       1.0  0.93891042392881  0.9928599808328187  0.2576880022946284  1.0000
  C   C35       1.0  0.5610856622510809  0.49285262602293767  0.7576932903891631  1.0000
  C   C36       1.0  0.061073143650013186  0.0071485150882964  0.7423046028340111  1.0000
  C   C37       1.0  0.3522479568013209  0.3339724940759226  0.42379244617664824  1.0000
  C   C38       1.0  0.8522505226927917  0.1660272662133906  0.07620483731565031  1.0000
  C   C39       1.0  0.6477389283473655  0.666024955269819  0.5762071313182915  1.0000
  C   C40       1.0  0.14773470367096309  0.83397846806389  0.923793884197565  1.0000
  C   C41       1.0  0.5037945482474909  0.2556605596123944  0.4382799525400217  1.0000
  C   C42       1.0  0.0038069114204119995  0.2443385102659619  0.0617201297141321  1.0000
  C   C43       1.0  0.496198972040922  0.7443396513771958  0.5617185872331802  1.0000
  C   C44       1.0  0.9961982203625297  0.7556644623674771  0.9382830152960511  1.0000
  C   C45       1.0  0.443000080466163  0.1672720771757383  0.410360868185535  1.0000
  C   C46       1.0  0.9430092814973674  0.3327276831135748  0.0896347224191487  1.0000
  C   C47       1.0  0.5570033925318469  0.832727443402888  0.5896359559825514  1.0000
  C   C48       1.0  0.05700414421023939  0.667275979930821  0.910366188125046  1.0000
  C   C49       1.0  0.5792775566073657  0.091561611212569  0.4210961978728562  1.0000
  C   C50       1.0  0.0792915785652184  0.4084360778438665  0.078900453171066  1.0000
  C   C51       1.0  0.4207325515303779  0.9084385997770212  0.5789023419003456  1.0000
  C   C52       1.0  0.9207367762067873  0.591564133145724  0.9211020366732401  1.0000
  C   C53       1.0  0.7826644947684613  0.1042838139875357  0.45789948248828694  1.0000
  C   C54       1.0  0.2826801755112527  0.39571318465792876  0.04209940302162351  1.0000
  C   C55       1.0  0.2173456133692824  0.8957191586458961  0.5421019696342813  1.0000
  C   C56       1.0  0.7173498380456849  0.604282883865892  0.9579035148135449  1.0000
  N   N1        1.0  0.0890402576143572  0.5856134810744464  0.264360966710406  1.0000
  N   N2        1.0  0.5890378471510331  0.9143885614373417  0.2356411319621898  1.0000
  N   N3        1.0  0.9109582390288578  0.4143805162164966  0.735641882972253  1.0000
  N   N4        1.0  0.41095235556752385  0.08561855366185261  0.7643576349860269  1.0000
  O   O1        1.0  0.8942625686818173  0.4156467299186346  0.4841994487282193  1.0000
  O   O2        1.0  0.3942716142848752  0.0843475070829953  0.015804988870399904  1.0000
  O   O3        1.0  0.1057209988970058  0.5843527906599917  0.515804146990327  1.0000
  O   O4        1.0  0.6057152708638114  0.9156478710298688  0.9841967776555193  1.0000
  O   O5        1.0  0.7253335699264909  0.3687774914326241  0.586572333158273  1.0000
  O   O6        1.0  0.2253442743144802  0.1312208880347683  0.9134328050412324  1.0000
  O   O7        1.0  0.27464999765233233  0.6312206483240814  0.41343065282939767  1.0000
  O   O8        1.0  0.7746459284040697  0.8687813941877067  0.08657144584319812  1.0000
  O   O9        1.0  0.4157379500981903  0.4779590807761949  0.3095236130644068  1.0000
  O   O10       1.0  0.9157371984197978  0.0220427507459959  0.19047373858040126  1.0000
  O   O11       1.0  0.5842622053299563  0.522035606925705  0.690477566448145  1.0000
  O   O12       1.0  0.08425466308368358  0.9779657451751191  0.8095188665482382  1.0000
  O   O13       1.0  0.599131553466158  0.4865429602520308  0.1994122941050733  1.0000
  O   O14       1.0  0.0991339639294821  0.013460942503044703  0.3005851256922369  1.0000
  O   O15       1.0  0.40086860196198865  0.5134524178608331  0.8005889081249791  1.0000
  O   O16       1.0  0.9008578975739994  0.9865537671167175  0.6994099410773985  1.0000
  O   O17       1.0  0.20064994302224184  0.3234982693893755  0.3743992017963791  1.0000
  O   O18       1.0  0.7006508501287811  0.1765035621328224  0.1255964569608068  1.0000
  O   O19       1.0  0.7993386009113834  0.6764984895454091  0.6256003529810529  1.0000
  O   O20       1.0  0.2993327174500422  0.8235042433773359  0.8743989469296807  1.0000
  O   O21       1.0  0.377441582358287  0.4119461271686546  0.4606436039622892  1.0000
  O   O22       1.0  0.8774441482497579  0.0880536331206585  0.0393559367134984  1.0000
  O   O23       1.0  0.6225436440054679  0.5880513221770869  0.5393565378285174  1.0000
  O   O24       1.0  0.1225394193290583  0.9119527915675791  0.9606428075172246  1.0000
  O   O25       1.0  0.7438688327638303  0.5622748289549904  0.39308594800932894  1.0000
  O   O26       1.0  0.24386626687235946  0.9377216902691075  0.10691427603563142  1.0000
  O   O27       1.0  0.25612302873965115  0.4377212395688304  0.6069147126423433  1.0000
  O   O28       1.0  0.7561206182763271  0.062276449487598  0.893084195585061  1.0000
  O   O29       1.0  0.8951334307714516  0.4059706203027886  0.2845311317845898  1.0000
  O   O30       1.0  0.39513418244984416  0.0940360440961356  0.21546807177034574  1.0000
  O   O31       1.0  0.1048683834416266  0.5940295906868016  0.7154674079886121  1.0000
  O   O32       1.0  0.6048643141933709  0.9059703805921018  0.7845318010521184  1.0000
