data_image0
_chemical_formula_structural       Na4H12C4N16O8
_chemical_formula_sum              "Na4 H12 C4 N16 O8"
_cell_length_a       3.5380984759233867
_cell_length_b       8.17562399387485
_cell_length_c       15.350578237202708
_cell_angle_alpha    90.00007476402507
_cell_angle_beta     89.99942043035398
_cell_angle_gamma    95.29595746327409

_space_group_name_H-M_alt    "P 1"
_space_group_IT_number       1

loop_
  _space_group_symop_operation_xyz
  'x, y, z'

loop_
  _atom_site_type_symbol
  _atom_site_label
  _atom_site_symmetry_multiplicity
  _atom_site_fract_x
  _atom_site_fract_y
  _atom_site_fract_z
  _atom_site_occupancy
  Na  Na1       1.0  0.77910962183077  0.6318730553523367  0.573767306443145  1.0000
  Na  Na2       1.0  0.7208849563492024  0.8681271322923795  0.07376870758385223  1.0000
  Na  Na3       1.0  0.2208909298498511  0.36812643177876947  0.4262307344115898  1.0000
  Na  Na4       1.0  0.2791181793655895  0.13187113433264133  0.9262319390324907  1.0000
  H   H1        1.0  0.8903132608404859  0.5809910906083715  0.23999927677945015  1.0000
  H   H2        1.0  0.6096908913850781  0.9190092224616823  0.7399978290083171  1.0000
  H   H3        1.0  0.10968421892673061  0.4190071602959335  0.7599994155196017  1.0000
  H   H4        1.0  0.3903101480443637  0.0809927214036819  0.26000281761182015  1.0000
  H   H5        1.0  0.3137124870564848  0.9390621522714968  0.5704462569933072  1.0000
  H   H6        1.0  0.1862865497551454  0.5609369064957904  0.07044685495464623  1.0000
  H   H7        1.0  0.686290648672795  0.0609361143533675  0.42955373818177395  1.0000
  H   H8        1.0  0.8137158542494732  0.43905767502875653  0.9295537916611498  1.0000
  H   H9        1.0  0.37081993170182415  0.8419682456348739  0.48426308225759856  1.0000
  H   H10       1.0  0.12918332252679932  0.6580310708463629  0.9842633477177433  1.0000
  H   H11       1.0  0.6291801321720101  0.15802878476258544  0.5157349585967738  1.0000
  H   H12       1.0  0.870816741274595  0.34196595955185677  0.015737950342916907  1.0000
  C   C1        1.0  0.7233759408969078  0.6870414323745354  0.3632072448012736  1.0000
  C   C2        1.0  0.7766363832970952  0.8129565212703441  0.8632020769592545  1.0000
  C   C3        1.0  0.276623634981803  0.31295314129126683  0.6367992647890832  1.0000
  C   C4        1.0  0.223355051329122  0.1870539897238075  0.13680508408770464  1.0000
  N   N1        1.0  0.7851463153912662  0.6782276355168619  0.27507237991790845  1.0000
  N   N2        1.0  0.7148541804478725  0.8217763713071734  0.7750732234352571  1.0000
  N   N3        1.0  0.21484389993532463  0.32177673364086706  0.7249250095092634  1.0000
  N   N4        1.0  0.2851489552524313  0.1782218953180035  0.22492807462234055  1.0000
  N   N5        1.0  0.6937295751177854  0.8161793926257702  0.23590397961311288  1.0000
  N   N6        1.0  0.8062662751489498  0.683820894937135  0.7359084182168093  1.0000
  N   N7        1.0  0.3062717083019706  0.18382377960549692  0.7640927583596524  1.0000
  N   N8        1.0  0.19373710445474757  0.31617860005486165  0.26409287984097324  1.0000
  N   N9        1.0  0.5777446223898082  0.9090852835133846  0.29730313765829675  1.0000
  N   N10       1.0  0.9222489847027404  0.5909174896905471  0.7973052858946447  1.0000
  N   N11       1.0  0.4222540769668015  0.09091910922426652  0.7026922974353768  1.0000
  N   N12       1.0  0.07775439490094982  0.4090820053014498  0.20269601216313765  1.0000
  N   N13       1.0  0.5912354072136806  0.8374945209626362  0.37625321564574693  1.0000
  N   N14       1.0  0.9087685842696016  0.6625071003462112  0.8762547972508803  1.0000
  N   N15       1.0  0.40874915212187085  0.16250983247483222  0.6237441737879053  1.0000
  N   N16       1.0  0.09123737942621803  0.337491174139089  0.12374650080347752  1.0000
  O   O1        1.0  0.7721350343404723  0.576117774910948  0.4188656367836289  1.0000
  O   O2        1.0  0.7278853944671865  0.9238765512787593  0.9188593613934162  1.0000
  O   O3        1.0  0.22785357252203647  0.423892728220622  0.5811311012064382  1.0000
  O   O4        1.0  0.2721141815853798  0.07611802238519522  0.08113933090184842  1.0000
  O   O5        1.0  0.30440646119099307  0.8270108939415552  0.5469252874491134  1.0000
  O   O6        1.0  0.19560161802521492  0.6729857205982057  0.04692529691295992  1.0000
  O   O7        1.0  0.6956072548246794  0.17298371902320037  0.4530740562711984  1.0000
  O   O8        1.0  0.8044012737861904  0.3270113176599949  0.9530753497031983  1.0000
