data_image0
_chemical_formula_structural       Hg2H32C48N28O4
_chemical_formula_sum              "Hg2 H32 C48 N28 O4"
_cell_length_a       7.330671907148191
_cell_length_b       10.646583168857966
_cell_length_c       15.921655111128278
_cell_angle_alpha    89.9998539982829
_cell_angle_beta     90.00044828830953
_cell_angle_gamma    92.845102442862

_space_group_name_H-M_alt    "P 1"
_space_group_IT_number       1

loop_
  _space_group_symop_operation_xyz
  'x, y, z'

loop_
  _atom_site_type_symbol
  _atom_site_label
  _atom_site_symmetry_multiplicity
  _atom_site_fract_x
  _atom_site_fract_y
  _atom_site_fract_z
  _atom_site_occupancy
  Hg  Hg1       1.0  9.75899567412902e-07  0.4999993866188178  2.0770683309999991e-07  1.0000
  Hg  Hg2       1.0  0.4999932704519522  0.5000012029538041  0.5000006456482281  1.0000
  H   H1        1.0  0.4500543171391412  0.20758672883957976  0.22452567107816174  1.0000
  H   H2        1.0  0.049949167433013024  0.7924140533925269  0.7245264869572947  1.0000
  H   H3        1.0  0.549943065076917  0.7924147212046224  0.7754743640880617  1.0000
  H   H4        1.0  0.9500507309882308  0.207584571513614  0.27547417629131127  1.0000
  H   H5        1.0  0.4914095907934595  0.2761929241605543  0.3713803961049748  1.0000
  H   H6        1.0  0.008594886875258105  0.7238064355363251  0.8713811764006534  1.0000
  H   H7        1.0  0.5085959753592134  0.7238085143038192  0.6286196390761987  1.0000
  H   H8        1.0  0.9914064461335742  0.2761931278645022  0.1286201149251767  1.0000
  H   H9        1.0  0.7476183272167278  0.6152643175101035  0.3018852910773616  1.0000
  H   H10       1.0  0.7523854533926623  0.3847348746437973  0.80188690327693  1.0000
  H   H11       1.0  0.25238436975038786  0.3847352439669648  0.6981122317985253  1.0000
  H   H12       1.0  0.2476172436004163  0.6152646868280981  0.19811375997598898  1.0000
  H   H13       1.0  0.7119381013024508  0.563889937149689  0.14834344307099906  1.0000
  H   H14       1.0  0.7880631410769466  0.43610976108578836  0.6483444710376671  1.0000
  H   H15       1.0  0.2880605742996992  0.4361105705409187  0.8516553359475691  1.0000
  H   H16       1.0  0.2119393441372495  0.5638869791090145  0.35165619221724137  1.0000
  H   H17       1.0  0.5001442212826747  0.1844814208884742  0.812386147862611  1.0000
  H   H18       1.0  0.9998583689172023  0.8155177385864006  0.31238637576868195  1.0000
  H   H19       1.0  0.4998531609281969  0.8155200291567725  0.18761325922820754  1.0000
  H   H20       1.0  0.00014296409162990127  0.18448182481442643  0.6876149155571554  1.0000
  H   H21       1.0  0.3424464520735455  0.005473418341004801  0.7384565106598939  1.0000
  H   H22       1.0  0.15754526926157553  0.9945310970463623  0.2384577004419981  1.0000
  H   H23       1.0  0.6575496367408392  0.9945289740599038  0.26154289642776957  1.0000
  H   H24       1.0  0.8424520423667089  0.0054694125711093975  0.7615429628002983  1.0000
  H   H25       1.0  0.09679281275271728  0.8736285511912101  0.9581115161562437  1.0000
  H   H26       1.0  0.40320512653174484  0.1263733554915873  0.4581131781493254  1.0000
  H   H27       1.0  0.903205792256479  0.12637101607370482  0.0418872628629856  1.0000
  H   H28       1.0  0.5967975704561326  0.8736262059813316  0.5418868570281887  1.0000
  H   H29       1.0  0.24673472746768965  0.0456951845097677  0.04243004593338639  1.0000
  H   H30       1.0  0.2532722844262238  0.9543024265650573  0.5424307036442284  1.0000
  H   H31       1.0  0.7532638775467004  0.9543043827541026  0.9575693611612477  1.0000
  H   H32       1.0  0.7467317059581334  0.0456961925521995  0.4575693315364332  1.0000
  C   C1        1.0  0.5618039957165237  0.34425837742006843  0.0865589479540958  1.0000
  C   C2        1.0  0.9381949318983728  0.6557424668151626  0.5865601545978265  1.0000
  C   C3        1.0  0.43818807171732727  0.6557449611974846  0.9134398310500342  1.0000
  C   C4        1.0  0.0618116452789366  0.3442542675907561  0.4134398805891449  1.0000
  C   C5        1.0  0.47737139147037067  0.2324209206966401  0.9798743064730429  1.0000
  C   C6        1.0  0.022633515741787822  0.7675780833290703  0.4798753854166334  1.0000
  C   C7        1.0  0.5226246973440211  0.7675814717042685  0.0201251006146279  1.0000
  C   C8        1.0  0.9773717680494299  0.2324195934304498  0.5201259059180002  1.0000
  C   C9        1.0  0.578862567554978  0.3809766698754089  0.17391418800064423  1.0000
  C   C10       1.0  0.9211365107470614  0.6190248287888165  0.6739153941215645  1.0000
  C   C11       1.0  0.42113215726477893  0.6190257244565062  0.8260845910091204  1.0000
  C   C12       1.0  0.07886747964249  0.38097379032740253  0.32608526913450214  1.0000
  C   C13       1.0  0.5162113943125349  0.299093706643788  0.23761794672165584  1.0000
  C   C14       1.0  0.983790030483888  0.70090663969426  0.7376192438395959  1.0000
  C   C15       1.0  0.48378598790352356  0.7009077434004141  0.7623820884445749  1.0000
  C   C16       1.0  0.016211231926789103  0.2990919832819046  0.262381419411497  1.0000
  C   C17       1.0  0.5397038688007997  0.3374384769065557  0.3204209065990398  1.0000
  C   C18       1.0  0.9603002888140252  0.6625615945793939  0.8204221824508264  1.0000
  C   C19       1.0  0.4602976053835662  0.6625629673477321  0.6795791285746587  1.0000
  C   C20       1.0  0.0397037015807129  0.33743702453578817  0.17957910888065234  1.0000
  C   C21       1.0  0.6811841260271906  0.5267721286530005  0.2812498267659151  1.0000
  C   C22       1.0  0.8188165854759006  0.473227135376078  0.7812515326463367  1.0000
  C   C23       1.0  0.31881591355921296  0.47322837710867555  0.718748324179735  1.0000
  C   C24       1.0  0.18118733432588394  0.5267705433134111  0.2187497586858029  1.0000
  C   C25       1.0  0.6628008421525068  0.49762975910222446  0.19633841933760005  1.0000
  C   C26       1.0  0.8371999708314704  0.5023716637220019  0.696338887162099  1.0000
  C   C27       1.0  0.3371965400583576  0.5023716909430149  0.8036609877532255  1.0000
  C   C28       1.0  0.1628039489703141  0.49762601496748726  0.30366240417004053  1.0000
  C   C29       1.0  0.3864491636915374  0.1297144598291595  0.9339983430756289  1.0000
  C   C30       1.0  0.11355498513895412  0.8702846954054595  0.4339995811843877  1.0000
  C   C31       1.0  0.6135495825035733  0.8702869882871481  0.0660004359422786  1.0000
  C   C32       1.0  0.8864477118541174  0.1297148660664291  0.5660010820685315  1.0000
  C   C33       1.0  0.41245636070577507  0.11747542417037947  0.8472034043055741  1.0000
  C   C34       1.0  0.08754491872017671  0.8825230786485961  0.3472045269037095  1.0000
  C   C35       1.0  0.5875382229280675  0.8825250893101427  0.1527953747055193  1.0000
  C   C36       1.0  0.9124576370921742  0.1174746019708621  0.6527967644259431  1.0000
  C   C37       1.0  0.3231155886921755  0.016645888179283495  0.8059475649037535  1.0000
  C   C38       1.0  0.17688112853866764  0.9833555776874832  0.30594884404145256  1.0000
  C   C39       1.0  0.6768804295240612  0.9833555637969625  0.19405121410917295  1.0000
  C   C40       1.0  0.8231174764860966  0.016643989574319597  0.6940518192039915  1.0000
  C   C41       1.0  0.18789781959387133  0.9440503972137433  0.9276675521305575  1.0000
  C   C42       1.0  0.3121022737902522  0.0559506655304745  0.4276677438575972  1.0000
  C   C43       1.0  0.8121008560186594  0.05595011047479659  0.0723324830388208  1.0000
  C   C44       1.0  0.6878964724152465  0.9440507825837585  0.5723322913111203  1.0000
  C   C45       1.0  0.27125666703151546  0.0403788504516243  0.9751371470587384  1.0000
  C   C46       1.0  0.2287495964558346  0.9596211076829847  0.47513865540664557  1.0000
  C   C47       1.0  0.7287434431634097  0.9596225957326399  0.0248628881124731  1.0000
  C   C48       1.0  0.7712558285161107  0.0403784499289657  0.5248620078512545  1.0000
  N   N1        1.0  0.6427043007247163  0.3950810006517146  0.0203171959353057  1.0000
  N   N2        1.0  0.8572948958195565  0.6049200599906256  0.5203175646754444  1.0000
  N   N3        1.0  0.35729042409504785  0.6049213936802004  0.979681583074459  1.0000
  N   N4        1.0  0.142707730585748  0.3950785610545324  0.47968372665354037  1.0000
  N   N5        1.0  0.5885613069833511  0.3230789085503645  0.9514320384082351  1.0000
  N   N6        1.0  0.9114397016216883  0.6769226196893212  0.451432804712084  1.0000
  N   N7        1.0  0.4114347818310407  0.676923483850544  0.04856736867942859  1.0000
  N   N8        1.0  0.08856306596953799  0.3230778822072295  0.5485684866155793  1.0000
  N   N9        1.0  0.6199038127388692  0.4485590412554146  0.3427182645329267  1.0000
  N   N10       1.0  0.8800993494920775  0.5514409586665892  0.8427200625761697  1.0000
  N   N11       1.0  0.38009895483678235  0.5514414606442415  0.6572811425685146  1.0000
  N   N12       1.0  0.11990327691842138  0.4485576623775388  0.15728185682822018  1.0000
  N   N13       1.0  0.2124861073418813  0.9304270284762736  0.8445713480015229  1.0000
  N   N14       1.0  0.2875115307572856  0.0695780717875181  0.344572683216846  1.0000
  N   N15       1.0  0.7875139322497091  0.06957347728436501  0.15542743101953244  1.0000
  N   N16       1.0  0.7124885794428407  0.9304233743957084  0.6554279800297707  1.0000
  N   N17       1.0  0.92103640624682  0.6839298085700702  0.03295622244121429  1.0000
  N   N18       1.0  0.5789576138816557  0.3160721585568425  0.5329579451803921  1.0000
  N   N19       1.0  0.0789607641851688  0.31606882019808324  0.9670431846515866  1.0000
  N   N20       1.0  0.4210344535418145  0.6839311800627854  0.4670395776729208  1.0000
  N   N21       1.0  0.9987874845980899  0.7430511831771796  0.0887645829175412  1.0000
  N   N22       1.0  0.5012116912445636  0.25695247506783403  0.5887642370588606  1.0000
  N   N23       1.0  0.0012156359838897033  0.2569540208426773  0.9112398487838502  1.0000
  N   N24       1.0  0.49878145783803524  0.7430470999107541  0.41123831040283665  1.0000
  N   N25       1.0  0.0624507072449418  0.8086975689047973  0.14049236551161928  1.0000
  N   N26       1.0  0.4375457910302174  0.1913016171702751  0.640494978814054  1.0000
  N   N27       1.0  0.9375436645996371  0.19130012330070656  0.8595051573506466  1.0000
  N   N28       1.0  0.5624585523241307  0.8087017040744228  0.3595056844387087  1.0000
  O   O1        1.0  0.45438606324722736  0.24036005797887575  0.0651653347847798  1.0000
  O   O2        1.0  0.04561880829425748  0.7596403032951214  0.5651668180391451  1.0000
  O   O3        1.0  0.5456100961549312  0.759643274848763  0.934833444226818  1.0000
  O   O4        1.0  0.9543904968775081  0.24035642724774678  0.434835101379022  1.0000
