data_image0
_chemical_formula_structural       Gd2H28C48N8O10F4
_chemical_formula_sum              "Gd2 H28 C48 N8 O10 F4"
_cell_length_a       7.660903802132982
_cell_length_b       11.13043796199382
_cell_length_c       13.908153818574648
_cell_angle_alpha    70.20831633820248
_cell_angle_beta     76.31569804877728
_cell_angle_gamma    88.02167547657199

_space_group_name_H-M_alt    "P 1"
_space_group_IT_number       1

loop_
  _space_group_symop_operation_xyz
  'x, y, z'

loop_
  _atom_site_type_symbol
  _atom_site_label
  _atom_site_symmetry_multiplicity
  _atom_site_fract_x
  _atom_site_fract_y
  _atom_site_fract_z
  _atom_site_occupancy
  Gd  Gd1       1.0  0.3129384738617488  0.40182139914553267  0.5010132062668333  1.0000
  Gd  Gd2       1.0  0.6870225686058334  0.5981694673433965  0.49899655885162264  1.0000
  H   H1        1.0  0.44029383838985575  0.6048278374137369  0.8317448505082295  1.0000
  H   H2        1.0  0.5596936388523089  0.39517728570120164  0.16824027298596178  1.0000
  H   H3        1.0  0.3300747950104466  0.5539963183776919  0.02703209054272544  1.0000
  H   H4        1.0  0.6699314540243294  0.4460078601721733  0.9729558452717839  1.0000
  H   H5        1.0  0.08274043934317628  0.29748338642538397  0.8590079794269625  1.0000
  H   H6        1.0  0.9172668635049701  0.7025160439422465  0.14098902347814152  1.0000
  H   H7        1.0  0.3852416675922824  0.6199781847719024  0.1866801856423734  1.0000
  H   H8        1.0  0.6147670786807212  0.38002222170220534  0.8133213930715257  1.0000
  H   H9        1.0  0.09608404517302918  0.029166789547282697  0.0729751859487706  1.0000
  H   H10       1.0  0.9039178480753662  0.9708317081957958  0.9270278191363985  1.0000
  H   H11       1.0  0.9759380067349495  0.873580517019896  0.2559956531697978  1.0000
  H   H12       1.0  0.0240718293084399  0.12641607654997963  0.7440096993123575  1.0000
  H   H13       1.0  0.20753776385581804  0.3598366099216435  0.28862069871225055  1.0000
  H   H14       1.0  0.7924775046648802  0.6401609310913019  0.7113822395703977  1.0000
  H   H15       1.0  0.14312044092257284  0.19639739985096577  0.21372267916765253  1.0000
  H   H16       1.0  0.8568711038028313  0.8036068334151238  0.7862786875433869  1.0000
  H   H17       1.0  0.15503659874077869  0.9626409658808942  0.31894581832026586  1.0000
  H   H18       1.0  0.8449454152896648  0.037361365908303405  0.6810587643831311  1.0000
  H   H19       1.0  0.20823233027478952  0.7958136432662644  0.4818166588439893  1.0000
  H   H20       1.0  0.7917582260482945  0.20417718195535878  0.518182749191986  1.0000
  H   H21       1.0  0.2806542299520913  0.7429992936279533  0.6539232830270832  1.0000
  H   H22       1.0  0.7193431525896159  0.2569925109740865  0.34608142715218554  1.0000
  H   H23       1.0  0.3524468422264206  0.8144421272379248  0.7937883553470682  1.0000
  H   H24       1.0  0.6475387169859488  0.1855535044663554  0.20621615156772316  1.0000
  H   H25       1.0  0.4266057485856861  0.995014808348735  0.8490438213699604  1.0000
  H   H26       1.0  0.5733904539695801  0.0049789267467233  0.15096483130129457  1.0000
  H   H27       1.0  0.4226110469620609  0.2196930128135649  0.726853804944291  1.0000
  H   H28       1.0  0.5774052426963509  0.7803006708396225  0.27314214316492524  1.0000
  C   C1        1.0  0.33379255206451575  0.47910424638033805  0.7134825688654729  1.0000
  C   C2        1.0  0.6662208638236323  0.5208884055193934  0.2864953463232495  1.0000
  C   C3        1.0  0.2684701413513437  0.4555591336497501  0.8302782493996759  1.0000
  C   C4        1.0  0.7315201325244727  0.5444460592673224  0.16972374197234066  1.0000
  C   C5        1.0  0.3387208775090684  0.5283312517228964  0.8785710156107953  1.0000
  C   C6        1.0  0.6612652020633546  0.4716729249225936  0.12141670803572417  1.0000
  C   C7        1.0  0.27886733116239526  0.4991548603420598  0.9868472998437952  1.0000
  C   C8        1.0  0.7211442464070926  0.5008483743489409  0.013143785243109067  1.0000
  C   C9        1.0  0.0947721717001926  0.3372417788832891  0.9999858706803408  1.0000
  C   C10       1.0  0.9052404099991305  0.6627557634563744  1.742203117057431e-05  1.0000
  C   C11       1.0  0.14098940815377145  0.356577897622259  0.8928155244952264  1.0000
  C   C12       1.0  0.8590013475505598  0.6434157927074153  0.10718235549595785  1.0000
  C   C13       1.0  0.11040992203483309  0.6399122702746068  0.34531169728617783  1.0000
  C   C14       1.0  0.8895794392213785  0.3600986742678459  0.6546924383834776  1.0000
  C   C15       1.0  0.17494099436104452  0.736515215754757  0.23562214701030365  1.0000
  C   C16       1.0  0.8250768021322941  0.2634803970651093  0.7643773891620426  1.0000
  C   C17       1.0  0.3194002629953302  0.7099753184988415  0.16443678638596282  1.0000
  C   C18       1.0  0.6806183447495542  0.2900317636443361  0.8355587903955524  1.0000
  C   C19       1.0  0.371355707819049  0.8033033347871523  0.06542658901344817  1.0000
  C   C20       1.0  0.6286451727955722  0.19669993781148068  0.9345738073461405  1.0000
  C   C21       1.0  0.15747112269300348  0.9378966455237432  0.1011795825419739  1.0000
  C   C22       1.0  0.8425240809550232  0.062101873318368896  0.8988286141920268  1.0000
  C   C23       1.0  0.09165653651722751  0.8525380381971318  0.20274968960624304  1.0000
  C   C24       1.0  0.9083534989074097  0.147461420480802  0.797254134831121  1.0000
  C   C25       1.0  0.2123022555022729  0.25803499695066984  0.331752824462356  1.0000
  C   C26       1.0  0.7877052290721593  0.7419663751018178  0.6682508141047521  1.0000
  C   C27       1.0  0.17588181227680616  0.16532545574208515  0.2901598754307315  1.0000
  C   C28       1.0  0.8241164632285701  0.8346787830982905  0.7098427579964905  1.0000
  C   C29       1.0  0.1815687813667282  0.03773571486502192  0.3481113065409644  1.0000
  C   C30       1.0  0.8184226136609638  0.9622665974621256  0.6518884476808536  1.0000
  C   C31       1.0  0.22234165360600136  0.0026411344631043004  0.4474446905872185  1.0000
  C   C32       1.0  0.7776523105739344  0.9973592763442837  0.552558119889312  1.0000
  C   C33       1.0  0.23090233794474097  0.8720209806123692  0.5110104838658672  1.0000
  C   C34       1.0  0.7691019656071629  0.12797368874461057  0.4889925297925686  1.0000
  C   C35       1.0  0.27077136172252375  0.8423920223890207  0.6067375637452485  1.0000
  C   C36       1.0  0.7292237373358289  0.1576055167195491  0.3932651623694098  1.0000
  C   C37       1.0  0.30718801666267836  0.9403490893622005  0.6454400303830353  1.0000
  C   C38       1.0  0.6928114617066968  0.05965323380327451  0.3545622485327584  1.0000
  C   C39       1.0  0.35138012370703814  0.9135556458135453  0.7433152996798498  1.0000
  C   C40       1.0  0.648614998228865  0.0864419081135424  0.25669101441536657  1.0000
  C   C41       1.0  0.3938797251653909  0.0128538690135755  0.7735330487085861  1.0000
  C   C42       1.0  0.6061178704841053  0.9871408095876292  0.22647228621423213  1.0000
  C   C43       1.0  0.3894152105083322  0.13883319454440374  0.7059399564576764  1.0000
  C   C44       1.0  0.6105946340389893  0.8611643165212611  0.2940557971254592  1.0000
  C   C45       1.0  0.3023282131590932  0.07130811897524579  0.5834629365209663  1.0000
  C   C46       1.0  0.6976810724231014  0.9286999327264951  0.416535763400347  1.0000
  C   C47       1.0  0.2571572348298545  0.10309307544758178  0.4830619736528448  1.0000
  C   C48       1.0  0.7428466908361243  0.8969149877987161  0.5169395879145283  1.0000
  N   N1        1.0  0.2524246134441697  0.22858707052128582  0.4249595528677901  1.0000
  N   N2        1.0  0.7475834875760654  0.7714229087101645  0.5750423719493938  1.0000
  N   N3        1.0  0.3420647197058955  0.1680183820397332  0.6147912495063892  1.0000
  N   N4        1.0  0.6579424634721461  0.8319982574217801  0.38520106792107356  1.0000
  N   N5        1.0  0.2982071549893063  0.9136899953938523  0.03252892959365277  1.0000
  N   N6        1.0  0.7017873622263623  0.08631806953228961  0.9674731548786254  1.0000
  N   N7        1.0  0.15730438282943737  0.4030170755223424  0.04825728656049929  1.0000
  N   N8        1.0  0.8426981765482964  0.5969909735688078  0.9517408642407401  1.0000
  O   O1        1.0  0.2591951210955372  0.41107906784854725  0.6762580257473302  1.0000
  O   O2        1.0  0.7408206227507177  0.5888869437943  0.3237584962147011  1.0000
  O   O3        1.0  0.46094371828385045  0.5631442560621309  0.6633844553813831  1.0000
  O   O4        1.0  0.538989709408895  0.43685704281833193  0.3366023789232741  1.0000
  O   O5        1.0  0.18403202813456684  0.5332111106339924  0.3637297436464663  1.0000
  O   O6        1.0  0.8159823094644805  0.4667921701495174  0.6362724685493646  1.0000
  O   O7        1.0  0.9893629715333105  0.6730585412170457  0.4094799839806028  1.0000
  O   O8        1.0  0.010641830148180993  0.3269437466942549  0.5905136925202327  1.0000
  O   O9        1.0  0.6060491313033722  0.3916884112257436  0.5190008172945468  1.0000
  O   O10       1.0  0.3939812500873073  0.6083138996460917  0.4809981032854579  1.0000
  F   F1        1.0  0.972085395393428  0.23941881620189778  0.06374928150604119  1.0000
  F   F2        1.0  0.027922410806908698  0.7605873241153702  0.9362501359288231  1.0000
  F   F3        1.0  0.511295035388912  0.7801087994671292  0.9930266000268799  1.0000
  F   F4        1.0  0.48870315382882273  0.21989447149451993  0.006973433165455752  1.0000
