data_image0
_chemical_formula_structural       CoH10C12N10
_chemical_formula_sum              "Co1 H10 C12 N10"
_cell_length_a       3.443621188768543
_cell_length_b       9.599010351890477
_cell_length_c       11.318447132654404
_cell_angle_alpha    99.88836571055495
_cell_angle_beta     96.00886027637775
_cell_angle_gamma    92.1623376243739

_space_group_name_H-M_alt    "P 1"
_space_group_IT_number       1

loop_
  _space_group_symop_operation_xyz
  'x, y, z'

loop_
  _atom_site_type_symbol
  _atom_site_label
  _atom_site_symmetry_multiplicity
  _atom_site_fract_x
  _atom_site_fract_y
  _atom_site_fract_z
  _atom_site_occupancy
  Co  Co1       1.0  1.3413792600759752e-06  0.4999992896149621  0.5000002746622839  1.0000
  H   H1        1.0  0.11643131797285383  0.3486604114106129  0.23453948013545298  1.0000
  H   H2        1.0  0.8835536084832473  0.6513428393404367  0.7654601352162017  1.0000
  H   H3        1.0  0.7563844782354538  0.162716760272879  0.5190940157627182  1.0000
  H   H4        1.0  0.24362304463993917  0.8372812027641529  0.48090725113073757  1.0000
  H   H5        1.0  0.737496879074236  0.9530299197963928  0.3156083385150339  1.0000
  H   H6        1.0  0.2625078020508199  0.046969098768172984  0.68439034900981  1.0000
  H   H7        1.0  0.8150436849467014  0.2498199285507354  0.040739086617982395  1.0000
  H   H8        1.0  0.18496151706049352  0.7501822685623337  0.9592609615157314  1.0000
  H   H9        1.0  0.11676700797490008  0.8629777629023322  0.16694467773738347  1.0000
  H   H10       1.0  0.88323802994789  0.1370233750140244  0.8330552117008451  1.0000
  C   C1        1.0  0.0079119125364642  0.27180988181745397  0.2845437661930105  1.0000
  C   C2        1.0  0.9920811460547585  0.7281891354874118  0.7154563523895375  1.0000
  C   C3        1.0  0.8281454165883492  0.17083637599326804  0.42953219219473476  1.0000
  C   C4        1.0  0.1718620776581119  0.8291615860854051  0.5704681901762924  1.0000
  C   C5        1.0  0.9646931140391788  0.06464591000344198  0.1178306220570065  1.0000
  C   C6        1.0  0.03530575581896041  0.9353531079312773  0.8821687809966932  1.0000
  C   C7        1.0  0.8193580673828224  0.06562852224189439  0.3304107988613509  1.0000
  C   C8        1.0  0.18063804661179012  0.9343715540954347  0.6695886783910365  1.0000
  C   C9        1.0  0.9032109539817771  0.14102342875646195  0.023522186083063397  1.0000
  C   C10       1.0  0.0967853527261724  0.8589777077359456  0.9764783343872377  1.0000
  C   C11       1.0  0.0607489768291387  0.9232303200236558  0.09426575351417198  1.0000
  C   C12       1.0  0.9392530056902617  0.07676975886024448  0.9057347772542312  1.0000
  N   N1        1.0  0.9468350664197376  0.29859769607428177  0.3999077612312618  1.0000
  N   N2        1.0  0.05316101894593566  0.7014023793046886  0.60009083149869  1.0000
  N   N3        1.0  0.931104059122511  0.13129595193632326  0.2381476758157035  1.0000
  N   N4        1.0  0.06889221895649907  0.8687051835977184  0.761851960132155  1.0000
  N   N5        1.0  0.48725653574287275  0.5540444658376557  0.395647251240419  1.0000
  N   N6        1.0  0.5127512580434513  0.44595561367609066  0.6043525639991216  1.0000
  N   N7        1.0  0.5083748368592752  0.6411908586045383  0.3311227117897672  1.0000
  N   N8        1.0  0.49162597612960474  0.35880075149743357  0.6688809720269902  1.0000
  N   N9        1.0  0.531670338194786  0.7249545605116908  0.2678119473878411  1.0000
  N   N10       1.0  0.46834045373706357  0.2750465761178019  0.7321854574766674  1.0000
