data_image0
_chemical_formula_structural       Zn2H24C32N4O8
_chemical_formula_sum              "Zn2 H24 C32 N4 O8"
_cell_length_a       8.296219417208723
_cell_length_b       8.708122685544232
_cell_length_c       12.287206506298041
_cell_angle_alpha    104.98973401743024
_cell_angle_beta     103.71000406625804
_cell_angle_gamma    106.47844519873378

_space_group_name_H-M_alt    "P 1"
_space_group_IT_number       1

loop_
  _space_group_symop_operation_xyz
  'x, y, z'

loop_
  _atom_site_type_symbol
  _atom_site_label
  _atom_site_symmetry_multiplicity
  _atom_site_fract_x
  _atom_site_fract_y
  _atom_site_fract_z
  _atom_site_occupancy
  Zn  Zn1       1.0  0.9099591521182616  0.1957440376054791  0.3066620938013429  1.0000
  Zn  Zn2       1.0  0.1031466450380734  0.8889424869629394  0.693363720030149  1.0000
  H   H1        1.0  0.44021954655667617  0.44289395172777546  0.3220619552241004  1.0000
  H   H2        1.0  0.618327608360893  0.12122817344803852  0.6780320305154461  1.0000
  H   H3        1.0  0.5977973784909806  0.6571649517919411  0.6660673984336469  1.0000
  H   H4        1.0  0.432146037087385  0.9916280405024622  0.3340730801849999  1.0000
  H   H5        1.0  0.21052472822176327  0.5587309059190843  0.3252570067805252  1.0000
  H   H6        1.0  0.3849211938476956  0.2332436871936849  0.674811858498636  1.0000
  H   H7        1.0  0.4317641554206944  0.8147239270267972  0.76409478016096  1.0000
  H   H8        1.0  0.16788639966159738  0.050812464237736804  0.23598970832149044  1.0000
  H   H9        1.0  0.027590679894949167  0.5103277455948714  0.6574468617963589  1.0000
  H   H10       1.0  0.8708228212420154  0.8531439516162749  0.3422451209094818  1.0000
  H   H11       1.0  0.9379146970955289  0.5137727049745848  0.0932809970628412  1.0000
  H   H12       1.0  0.34466947840166995  0.4206866379763241  0.9068493461751075  1.0000
  H   H13       1.0  0.7269832669497233  0.5239805642687045  0.5617684397718463  1.0000
  H   H14       1.0  0.664982344014639  0.9618853676215405  0.4382600787066692  1.0000
  H   H15       1.0  0.992314692242324  0.3347241823984247  0.7874180793024196  1.0000
  H   H16       1.0  0.705632332733863  0.5474950625355959  0.21236724983062066  1.0000
  H   H17       1.0  0.9799558291546119  0.9156871826301298  0.8987419504031493  1.0000
  H   H18       1.0  0.5808633417398427  0.017121977916794203  0.10151075500091626  1.0000
  H   H19       1.0  0.9408331408607895  0.7585460367735735  0.0363651245556298  1.0000
  H   H20       1.0  0.4043727307216826  0.7221753072353393  0.9637477209181284  1.0000
  H   H21       1.0  0.9981902567971233  0.22036740817497247  0.925171390855752  1.0000
  H   H22       1.0  0.5739209952575095  0.2953416473554356  0.07438006054015027  1.0000
  H   H23       1.0  0.060160097985033155  0.7179119447626049  0.438909262046586  1.0000
  H   H24       1.0  0.121007873335401  0.27878180719254436  0.5611092274362903  1.0000
  C   C1        1.0  0.9740544244430325  0.2223529670494031  0.09941534602677386  1.0000
  C   C2        1.0  0.3747004574351108  0.12300834766948299  0.9004519074197503  1.0000
  C   C3        1.0  0.9589898058907166  0.4468841033514507  0.012500019273829769  1.0000
  C   C4        1.0  0.44687671736046747  0.43458200756318627  0.9874281382409437  1.0000
  C   C5        1.0  0.9790008253892991  0.29639357678973977  0.0033595424539213485  1.0000
  C   C6        1.0  0.4761028863863856  0.29319029682070413  0.9963992959504113  1.0000
  C   C7        1.0  0.7208760109480039  0.36319789141433734  0.38877024138503213  1.0000
  C   C8        1.0  0.8318253413140297  0.9742231302052744  0.6113321545763527  1.0000
  C   C9        1.0  0.6530429322742323  0.47172151504700116  0.46616818189708914  1.0000
  C   C10       1.0  0.6867650919079652  0.005507382383591205  0.533889499651835  1.0000
  C   C11       1.0  0.4794166898865909  0.666533532096615  0.611258619346664  1.0000
  C   C12       1.0  0.3684111601313589  0.05560828860800629  0.3888776658373346  1.0000
  C   C13       1.0  0.5050840727842143  0.49996749055816286  0.4191596790116421  1.0000
  C   C14       1.0  0.5860176337218448  0.0810301915227214  0.5809487549631598  1.0000
  C   C15       1.0  0.4198567000462035  0.5956769933619414  0.485604871086423  1.0000
  C   C16       1.0  0.4343462847318946  0.1103227221695491  0.5145333499345456  1.0000
  C   C17       1.0  0.38862345503865464  0.7538460907942406  0.6670587022447593  1.0000
  C   C18       1.0  0.221712531618742  0.08689182851386329  0.33300377193737773  1.0000
  C   C19       1.0  0.26675707437275514  0.6159406084368939  0.4224626061530401  1.0000
  C   C20       1.0  0.34409615044661024  0.19338205321935217  0.5776092184417153  1.0000
  C   C21       1.0  0.1810060504407005  0.7024617846370803  0.4846766325802676  1.0000
  C   C22       1.0  0.1961218366244708  0.21760225981942938  0.5153505296894636  1.0000
  C   C23       1.0  0.9822389329879256  0.7871488351449684  0.876715370164952  1.0000
  C   C24       1.0  0.605441924481319  0.9105917312662298  0.12341491710901657  1.0000
  C   C25       1.0  0.960434808337176  0.6974026401628137  0.9537517748831663  1.0000
  C   C26       1.0  0.5067623350189763  0.7438113302396445  0.046284969584547794  1.0000
  C   C27       1.0  0.9685645965972897  0.5333581215615908  0.9261831152501685  1.0000
  C   C28       1.0  0.5428052184185007  0.6073962276243137  0.07371129392449662  1.0000
  C   C29       1.0  0.011345040464284738  0.5609112084378366  0.7435801032996067  1.0000
  C   C30       1.0  0.7683486180408465  0.8175128221355266  0.256204439221456  1.0000
  C   C31       1.0  0.9908159597605959  0.46368578335422933  0.8160534076905606  1.0000
  C   C32       1.0  0.6754436781007414  0.6478022274122351  0.18373463040585847  1.0000
  N   N1        1.0  0.2409253791942803  0.7714150174387768  0.6048404345806162  1.0000
  N   N2        1.0  0.1360749875355936  0.16652284927620545  0.39519253695238626  1.0000
  N   N3        1.0  0.00993708430502241  0.7214627474204818  0.773783793154152  1.0000
  N   N4        1.0  0.7363357971536286  0.9478321990491735  0.22619786398463754  1.0000
  O   O1        1.0  0.9567732646328436  0.3147171662433266  0.19483204011667965  1.0000
  O   O2        1.0  0.26156229472631765  0.11984199163276799  0.8052200064032038  1.0000
  O   O3        1.0  0.868006408091027  0.34770000721678684  0.44265662694219543  1.0000
  O   O4        1.0  0.9250036600642346  0.9047583580175954  0.5574377167233636  1.0000
  O   O5        1.0  0.9862526298409762  0.0787099227643182  0.08458455886830053  1.0000
  O   O6        1.0  0.40191626302156885  0.9942452157239359  0.9152626389475813  1.0000
  O   O7        1.0  0.6381975897064364  0.2901820338576542  0.27856308168449573  1.0000
  O   O8        1.0  0.8593317829047249  0.011519503216810298  0.7215579163628761  1.0000
