data_image0
_chemical_formula_structural       Zn2H32C50S4N6O8
_chemical_formula_sum              "Zn2 H32 C50 S4 N6 O8"
_cell_length_a       9.994047568231132
_cell_length_b       10.948986419678008
_cell_length_c       12.103
_cell_angle_alpha    104.47496336743492
_cell_angle_beta     101.15633854909595
_cell_angle_gamma    109.8769397269666

_space_group_name_H-M_alt    "P 1"
_space_group_IT_number       1

loop_
  _space_group_symop_operation_xyz
  'x, y, z'

loop_
  _atom_site_type_symbol
  _atom_site_label
  _atom_site_symmetry_multiplicity
  _atom_site_fract_x
  _atom_site_fract_y
  _atom_site_fract_z
  _atom_site_occupancy
  Zn  Zn1       1.0  0.6004220864042651  0.0158976465784164  0.1130673450341177  1.0000
  Zn  Zn2       1.0  0.3995800948324942  0.9841026693900261  0.886934810020577  1.0000
  H   H1        1.0  0.41722129577983214  0.59888887369776  0.09026618131904482  1.0000
  H   H2        1.0  0.5827783888522049  0.40111040868075776  0.9097320361641719  1.0000
  H   H3        1.0  0.2773295086193102  0.3491725151390241  0.06565588021225469  1.0000
  H   H4        1.0  0.7226715466179243  0.6508298680092537  0.93434325741228  1.0000
  H   H5        1.0  0.02098765968841579  0.21573295553866248  0.920515304696053  1.0000
  H   H6        1.0  0.9790124818120136  0.7842673604297801  0.07948569822521998  1.0000
  H   H7        1.0  0.051137935921914845  0.573276515449713  0.8209927357241256  1.0000
  H   H8        1.0  0.9488601658421913  0.4267238005187224  0.1790071150637331  1.0000
  H   H9        1.0  0.5262539414008671  0.19664048251372884  0.5587405125242879  1.0000
  H   H10       1.0  0.4737472199677272  0.8033598334547135  0.44125982710155387  1.0000
  H   H11       1.0  0.578317793051994  0.011918325381685697  0.6540238076886523  1.0000
  H   H12       1.0  0.4216833683166002  0.9880819905867496  0.34597735817861514  1.0000
  H   H13       1.0  0.0903636846158236  0.0895533315450052  0.03117037277531409  1.0000
  H   H14       1.0  0.9096374767527777  0.9104469844234373  0.9688299668505279  1.0000
  H   H15       1.0  0.934097583349164  0.1892926917637112  0.12990919185204314  1.0000
  H   H16       1.0  0.06590210128286601  0.8107065906148064  0.8700915043554571  1.0000
  H   H17       1.0  0.028951455174805605  0.3192738594876516  0.3475976707340393  1.0000
  H   H18       1.0  0.9710492493253895  0.680725422890866  0.65240236217803  1.0000
  H   H19       1.0  0.4257156289283088  0.23922438726834366  0.37030624188837885  1.0000
  H   H20       1.0  0.5742850755718862  0.760774895110174  0.6296937910236906  1.0000
  H   H21       1.0  0.5512916789153692  0.4747743623667162  0.7547956825375266  1.0000
  H   H22       1.0  0.4487090255848258  0.5252249200118015  0.24520517661596838  1.0000
  H   H23       1.0  0.36491520082367407  0.599735383843246  0.7862854802605594  1.0000
  H   H24       1.0  0.6350864174133194  0.4002659657151142  0.2137151660790551  1.0000
  H   H25       1.0  0.7187732026285545  0.1635904111925228  0.3820287027915014  1.0000
  H   H26       1.0  0.28122978621363615  0.8364140391355973  0.6179728636894309  1.0000
  H   H27       1.0  0.8951259410746532  0.1638746484208582  0.555623183938124  1.0000
  H   H28       1.0  0.10487409429440932  0.8361277347274196  0.44437992194755077  1.0000
  H   H29       1.0  0.9564913242994066  0.8388336731411953  0.30889957890357067  1.0000
  H   H30       1.0  0.04350097664980981  0.1611604412877128  0.6911062051779381  1.0000
  H   H31       1.0  0.7758902653357751  0.8522372672396868  0.1470472665763793  1.0000
  H   H32       1.0  0.22410498908656964  0.1477589143690636  0.8529594568246636  1.0000
  C   C1        1.0  0.32716015208210086  0.7467635501379988  0.9713309622054495  1.0000
  C   C2        1.0  0.6728404462867276  0.2532377994203614  0.028670347429596198  1.0000
  C   C3        1.0  0.24045281483375186  0.5994914566218339  0.9582922156891056  1.0000
  C   C4        1.0  0.7595467636669113  0.4005098929365261  0.04170893099993828  1.0000
  C   C5        1.0  0.30556872829780707  0.537059524609866  0.026996961040509894  1.0000
  C   C6        1.0  0.694430956334223  0.46293975776865176  0.9730029089255651  1.0000
  C   C7        1.0  0.22757521977400336  0.3988044695664996  0.012692220596413492  1.0000
  C   C8        1.0  0.7724254847261919  0.6011948128120181  0.9873069860742304  1.0000
  C   C9        1.0  0.08480243310413021  0.3230692016784005  0.9311799996823777  1.0000
  C   C10       1.0  0.915197708396299  0.676931114290042  0.06882100323889519  1.0000
  C   C11       1.0  0.019021605302207017  0.3839807229162417  0.860094292776807  1.0000
  C   C12       1.0  0.9809795560663872  0.6160195930522008  0.13990687309046723  1.0000
  C   C13       1.0  0.09851267944522143  0.5227742783085673  0.8745609452172188  1.0000
  C   C14       1.0  0.9014873559238411  0.4772281048397105  0.12544050818559777  1.0000
  C   C15       1.0  0.8701843986095739  0.3006351324381312  0.7736255646633123  1.0000
  C   C16       1.0  0.12981574289086242  0.699365183530304  0.22637543825796058  1.0000
  C   C17       1.0  0.6270045540606617  0.20885958256248927  0.6221796597808336  1.0000
  C   C18       1.0  0.3729960443081737  0.7911417669958709  0.3778216498542121  1.0000
  C   C19       1.0  0.6557520135696677  0.1177920417828844  0.6730379637959416  1.0000
  C   C20       1.0  0.34424960466733273  0.8822093077754758  0.3269643350265312  1.0000
  C   C21       1.0  0.35654576160854395  0.0977662370590835  0.13196335101892487  1.0000
  C   C22       1.0  0.6434549428916513  0.9022330453194342  0.868039160617428  1.0000
  C   C23       1.0  0.26457943425166525  0.1550798317811299  0.19489466181163098  1.0000
  C   C24       1.0  0.7354197935119657  0.8449184170074701  0.8051065539235223  1.0000
  C   C25       1.0  0.12700553949608212  0.1427201635030784  0.1274432470695999  1.0000
  C   C26       1.0  0.8729957280038861  0.8572780852855216  0.8725574683161241  1.0000
  C   C27       1.0  0.04172022090871511  0.2000564972033843  0.18236591579182707  1.0000
  C   C28       1.0  0.9582804835914801  0.7999427851751334  0.8176349433616679  1.0000
  C   C29       1.0  0.09519684083742422  0.2727540443129968  0.30514336147248133  1.0000
  C   C30       1.0  0.9048028437946058  0.727245238065521  0.694857334735019  1.0000
  C   C31       1.0  0.2334916425516838  0.28696383855004365  0.37426274347816957  1.0000
  C   C32       1.0  0.7665100818166762  0.713035443828474  0.6257382786213269  1.0000
  C   C33       1.0  0.3170181167672581  0.2261329373260637  0.31807634257896916  1.0000
  C   C34       1.0  0.6829825877329369  0.7738663450524539  0.6819253428159583  1.0000
  C   C35       1.0  0.29540574257045193  0.3672872120984749  0.5021154483013461  1.0000
  C   C36       1.0  0.7045954187981424  0.6327131038699605  0.49788654380735403  1.0000
  C   C37       1.0  0.45233956639115297  0.4597252931136281  0.6872437367615234  1.0000
  C   C38       1.0  0.5476615949774484  0.5402750228548072  0.31275742910575116  1.0000
  C   C39       1.0  0.35845745424463626  0.5242688493346677  0.7058506812137466  1.0000
  C   C40       1.0  0.6415447269921231  0.47573146663377486  0.2941498213580899  1.0000
  C   C41       1.0  0.7744787960395457  0.0932721880815848  0.37036991093938804  1.0000
  C   C42       1.0  0.2255222591976819  0.9067301950667002  0.6296325316508629  1.0000
  C   C43       1.0  0.874272375556437  0.0924380810151533  0.46732105346953284  1.0000
  C   C44       1.0  0.12572720294423337  0.9075632685432069  0.5326817457023765  1.0000
  C   C45       1.0  0.945249095699495  0.0012496102147636998  0.44966894177767347  1.0000
  C   C46       1.0  0.054747529328047155  0.9987496721637541  0.5503362230404107  1.0000
  C   C47       1.0  0.9073075071658181  0.912623724797541  0.33162363364120034  1.0000
  C   C48       1.0  0.0926877472565266  0.08737245681120949  0.6683814372769915  1.0000
  C   C49       1.0  0.8061291881767261  0.9192635064515144  0.23937968207165033  1.0000
  C   C50       1.0  0.19386754298217573  0.0807337087471609  0.7606242060234507  1.0000
  S   S1        1.0  0.7767701843895622  0.3662556893570894  0.6824731346044215  1.0000
  S   S2        1.0  0.2232299571108669  0.633744626611346  0.3175278683168514  1.0000
  S   S3        1.0  0.2190035160765689  0.47336041135447715  0.5753500407236345  1.0000
  S   S4        1.0  0.7809961685554612  0.5266388710240406  0.42465065548386594  1.0000
  N   N1        1.0  0.7924556107397863  0.1695201165706095  0.7572331249115791  1.0000
  N   N2        1.0  0.20754600749720709  0.8304812329877506  0.24276917391089364  1.0000
  N   N3        1.0  0.4164613263448374  0.3719993485493589  0.5731262040205252  1.0000
  N   N4        1.0  0.5835393781553577  0.6279999338291589  0.4268746551329697  1.0000
  N   N5        1.0  0.741017103196711  0.008715230215798897  0.2576062342310976  1.0000
  N   N6        1.0  0.2589830383037254  0.9912850857526365  0.7423980736558845  1.0000
  O   O1        1.0  0.4410384886598564  0.8176430125761698  0.06322631891931957  1.0000
  O   O2        1.0  0.5589626727087379  0.1823573033922727  0.9367748469479479  1.0000
  O   O3        1.0  0.2819259600181141  0.7875748481777123  0.8870643555171397  1.0000
  O   O4        1.0  0.7180761150872783  0.2124275349705727  0.11293742377767295  1.0000
  O   O5        1.0  0.47342888481257733  0.0970489256537519  0.1960322302677255  1.0000
  O   O6        1.0  0.5265718196876251  0.9029503567247659  0.803969455127202  1.0000
  O   O7        1.0  0.3114169780998566  0.0563213483976668  0.01780805184535689  1.0000
  O   O8        1.0  0.6885841832687377  0.9436789675707756  0.9821931140219107  1.0000
