data_image0
_chemical_formula_structural       CdAg2H32C28N10O4
_chemical_formula_sum              "Cd1 Ag2 H32 C28 N10 O4"
_cell_length_a       7.197856688522284
_cell_length_b       9.3950352735907
_cell_length_c       12.78394535677302
_cell_angle_alpha    75.6316512270921
_cell_angle_beta     86.68607828090708
_cell_angle_gamma    70.54863458423225

_space_group_name_H-M_alt    "P 1"
_space_group_IT_number       1

loop_
  _space_group_symop_operation_xyz
  'x, y, z'

loop_
  _atom_site_type_symbol
  _atom_site_label
  _atom_site_symmetry_multiplicity
  _atom_site_fract_x
  _atom_site_fract_y
  _atom_site_fract_z
  _atom_site_occupancy
  Cd  Cd1       1.0  0.5000036688036503  0.49999707285041944  1.4879874043362744e-07  1.0000
  Ag  Ag1       1.0  0.8052429366078185  0.9505378336332698  0.9463739275601742  1.0000
  Ag  Ag2       1.0  0.1947565214206862  0.04946132549753201  0.05362154479970371  1.0000
  H   H1        1.0  0.15267340422302317  0.4046144665581225  0.11790177693154652  1.0000
  H   H2        1.0  0.8473265652376227  0.595387068311375  0.8820979170920185  1.0000
  H   H3        1.0  0.04426227469065222  0.29621188985775865  0.3000481584864049  1.0000
  H   H4        1.0  0.9557395846974761  0.7037884980226536  0.6999516723132545  1.0000
  H   H5        1.0  0.5723150410232448  0.31731121490349784  0.43358619913433943  1.0000
  H   H6        1.0  0.427686927827182  0.6826856601760198  0.5664135109966041  1.0000
  H   H7        1.0  0.6560246560946226  0.42558884514096473  0.24577254636267304  1.0000
  H   H8        1.0  0.34397823757324647  0.574409220811681  0.7542284630530036  1.0000
  H   H9        1.0  0.379029313667921  0.9055982570829573  0.7367371964993554  1.0000
  H   H10       1.0  0.6209692714768381  0.09440326115601042  0.2632625598686716  1.0000
  H   H11       1.0  0.26405577190891455  0.0030064639152201  0.8379736288034467  1.0000
  H   H12       1.0  0.7359419114749743  0.9969938687620967  0.16202560865473  1.0000
  H   H13       1.0  0.49659610757053235  0.012483086876628104  0.7899609470405696  1.0000
  H   H14       1.0  0.5034002606671776  0.987517245104613  0.21004069388671104  1.0000
  H   H15       1.0  0.3975483436850383  0.2960357311939319  0.7332104599372687  1.0000
  H   H16       1.0  0.6024474728279402  0.7039657537839618  0.2667894211196897  1.0000
  H   H17       1.0  0.16960217274663592  0.3049809874079586  0.7955515756850817  1.0000
  H   H18       1.0  0.8303955336938246  0.6950193505808501  0.20444844214797098  1.0000
  H   H19       1.0  0.1732892443802285  0.4106559986130948  0.6585217466634179  1.0000
  H   H20       1.0  0.8267084851168038  0.5893443446871914  0.34147905154451774  1.0000
  H   H21       1.0  0.9004107994947431  0.024278115723525704  0.5953039014816925  1.0000
  H   H22       1.0  0.09958965252091916  0.9757222502148649  0.4046952112875602  1.0000
  H   H23       1.0  0.03730465200237636  0.9386890597443694  0.7192380696170847  1.0000
  H   H24       1.0  0.962694438753971  0.061311294874968815  0.28076188587150613  1.0000
  H   H25       1.0  0.1632284296902994  0.942863354959528  0.5947984642328168  1.0000
  H   H26       1.0  0.8367715397703465  0.05713817990996971  0.40520122979074824  1.0000
  H   H27       1.0  0.8641018661112626  0.37519173973109343  0.6878122855695853  1.0000
  H   H28       1.0  0.13589584032919078  0.6248085982577153  0.3121877322634676  1.0000
  H   H29       1.0  0.8771151975247025  0.19538978974164684  0.7799379486348744  1.0000
  H   H30       1.0  0.12288666186341861  0.8046105981387585  0.22006188216479228  1.0000
  H   H31       1.0  0.7358328054499881  0.2564088469565747  0.657661593858997  1.0000
  H   H32       1.0  0.2641663314195029  0.743591518285733  0.3423399223793526  1.0000
  C   C1        1.0  0.5914934218523484  0.1544929612148493  0.951474383550597  1.0000
  C   C2        1.0  0.40850654178774476  0.8455050342963305  0.04852128792984441  1.0000
  C   C3        1.0  0.03395148523044615  0.7555078011580463  0.9428609332304992  1.0000
  C   C4        1.0  0.9660579799807252  0.24448800938898074  0.057141005423325536  1.0000
  C   C5        1.0  0.24073077834620454  0.38339670847803126  0.19014505831948014  1.0000
  C   C6        1.0  0.7592650612233526  0.616604781811347  0.8098556031123538  1.0000
  C   C7        1.0  0.18104757205008326  0.3225788642711792  0.29172402556360316  1.0000
  C   C8        1.0  0.8189534086337389  0.6774203433590672  0.708276066701089  1.0000
  C   C9        1.0  0.2992970180430917  0.2972275792682454  0.3827380617513826  1.0000
  C   C10       1.0  0.7007035895480201  0.7027692844922201  0.617262491098899  1.0000
  C   C11       1.0  0.47409384337315424  0.33506188053412  0.3664863077352934  1.0000
  C   C12       1.0  0.5259081485338442  0.6649349998568823  0.6335141827705261  1.0000
  C   C13       1.0  0.5215399543544593  0.3955721170494826  0.2617992703232091  1.0000
  C   C14       1.0  0.478461554997523  0.6044259322726334  0.7382018014369296  1.0000
  C   C15       1.0  0.24073950825933824  0.2382189395374611  0.4910460243023565  1.0000
  C   C16       1.0  0.7592606167767569  0.7617790931541181  0.5089551098022371  1.0000
  C   C17       1.0  0.25167890236673446  0.1578961276646069  0.6817162074813299  1.0000
  C   C18       1.0  0.7483188040737189  0.8421042103242017  0.3182838103517228  1.0000
  C   C19       1.0  0.04873744472175902  0.167041135645519  0.6389688531880043  1.0000
  C   C20       1.0  0.9512597330505415  0.8329603606514198  0.361030185149609  1.0000
  C   C21       1.0  0.35414580455425687  0.0102869646436474  0.7658472330493356  1.0000
  C   C22       1.0  0.6458514193311868  0.989714542276268  0.23415336603803652  1.0000
  C   C23       1.0  0.2459309795380591  0.3023461084839243  0.7188845050354404  1.0000
  C   C24       1.0  0.7540672094574105  0.697653060573771  0.28111493154329287  1.0000
  C   C25       1.0  0.038127466222889  0.007760199342577302  0.6363343180349548  1.0000
  C   C26       1.0  0.961871601476887  0.9922401499652765  0.36366485707875296  1.0000
  C   C27       1.0  0.8707131971651381  0.255357115664097  0.6939991943811707  1.0000
  C   C28       1.0  0.12928453233188725  0.744643227636189  0.3060016038267649  1.0000
  N   N1        1.0  0.4774116444781954  0.27376489956247957  0.9593942146781348  1.0000
  N   N2        1.0  0.5225904727197844  0.7262378056302838  0.04060125366154213  1.0000
  N   N3        1.0  0.16847691416042923  0.6425930070633328  0.9442961283483984  1.0000
  N   N4        1.0  0.8315256986410163  0.35740273626547764  0.05570846315237793  1.0000
  N   N5        1.0  0.407831477474751  0.4190808541573007  0.1751434891552109  1.0000
  N   N6        1.0  0.592170887524965  0.5809183701034826  0.8248565407650194  1.0000
  N   N7        1.0  0.36550362860629804  0.16437748557433454  0.5783745989510225  1.0000
  N   N8        1.0  0.6344973520775241  0.8356217220559119  0.42162549331366983  1.0000
  N   N9        1.0  0.05236835430578422  0.2551667393106953  0.5223856450623502  1.0000
  N   N10       1.0  0.9476302308389747  0.7448347789282652  0.47761411130567694  1.0000
  O   O1        1.0  0.5537146283126331  0.11670389264185843  0.578392941589762  1.0000
  O   O2        1.0  0.4462845085568504  0.8832964726004491  0.4216085746485876  1.0000
  O   O3        1.0  0.8952238645921112  0.3288185078695705  0.46383529249132505  1.0000
  O   O4        1.0  0.10477540338890637  0.6711912215328226  0.5361652241240125  1.0000
