data_image0
_chemical_formula_structural       Rb12H16C24N12O32
_chemical_formula_sum              "Rb12 H16 C24 N12 O32"
_cell_length_a       6.879953518001344
_cell_length_b       10.399420368479648
_cell_length_c       18.159619149429897
_cell_angle_alpha    92.69210122573416
_cell_angle_beta     90.0000332888272
_cell_angle_gamma    89.99993459284563

_space_group_name_H-M_alt    "P 1"
_space_group_IT_number       1

loop_
  _space_group_symop_operation_xyz
  'x, y, z'

loop_
  _atom_site_type_symbol
  _atom_site_label
  _atom_site_symmetry_multiplicity
  _atom_site_fract_x
  _atom_site_fract_y
  _atom_site_fract_z
  _atom_site_occupancy
  Rb  Rb1       1.0  0.9647957929541418  0.7073704151125638  0.8199346517368655  1.0000
  Rb  Rb2       1.0  0.4647965920442515  0.7926332138851466  0.6800648413474732  1.0000
  Rb  Rb3       1.0  0.03520506766077599  0.29263134695526816  0.18006554905526437  1.0000
  Rb  Rb4       1.0  0.5352028150749604  0.20736662649344592  0.31993641116703503  1.0000
  Rb  Rb5       1.0  0.6791740722741364  0.8569635510753598  0.21292522057680696  1.0000
  Rb  Rb6       1.0  0.17917529782995698  0.6430331411085888  0.2870749751271973  1.0000
  Rb  Rb7       1.0  0.3208253348437751  0.14303628387955308  0.7870743797777069  1.0000
  Rb  Rb8       1.0  0.8208197487954436  0.3569647703502596  0.7129251262294007  1.0000
  Rb  Rb9       1.0  0.7270910686019151  0.3964859890011426  0.9489466166425375  1.0000
  Rb  Rb10      1.0  0.22709199271152164  0.103515139756972  0.5510545231997952  1.0000
  Rb  Rb11      1.0  0.272908338514803  0.6035157730672296  0.05105358414945021  1.0000
  Rb  Rb12      1.0  0.772907414408877  0.8964827735081682  0.4489461288772318  1.0000
  H   H1        1.0  0.5224179086690129  0.6196258331725775  0.8564020210215804  1.0000
  H   H2        1.0  0.022417045331785304  0.8803733123274782  0.6435983627223296  1.0000
  H   H3        1.0  0.4775814984497657  0.3803740053981244  0.14359868077292504  1.0000
  H   H4        1.0  0.9775823617881867  0.11962459912976439  0.3564017386346947  1.0000
  H   H5        1.0  0.5167841600222829  0.5395915810200833  0.7812433126503253  1.0000
  H   H6        1.0  0.0167818224945151  0.9604085312868591  0.7187570948507657  1.0000
  H   H7        1.0  0.48321524709731273  0.46040729489783416  0.2187573642854446  1.0000
  H   H8        1.0  0.9832175846230198  0.0395922681287288  0.2812430810824864  1.0000
  H   H9        1.0  0.19173853452135597  0.410821603632705  0.8626930846831444  1.0000
  H   H10       1.0  0.6917391072403873  0.0891766614234939  0.6373074229513807  1.0000
  H   H11       1.0  0.8082594190987961  0.5891782331306316  0.137307066391223  1.0000
  H   H12       1.0  0.30825884638177564  0.9108202855736135  0.3626921028267631  1.0000
  H   H13       1.0  0.2234334067552624  0.46587615366927804  0.7839097534327879  1.0000
  H   H14       1.0  0.7234341981566317  0.034125940438329394  0.7160914105531833  1.0000
  H   H15       1.0  0.7765630933667039  0.5341236830945986  0.2160903976414374  1.0000
  H   H16       1.0  0.2765652089600863  0.9658758216300426  0.2839087902388044  1.0000
  C   C1        1.0  0.7688997994001027  0.8638767005739181  0.0038594548960019922  1.0000
  C   C2        1.0  0.2688984574923908  0.636125697760221  0.49613980606192604  1.0000
  C   C3        1.0  0.23110396820828064  0.1361269813747299  0.9961391434539028  1.0000
  C   C4        1.0  0.7311024031265915  0.3638712510437045  0.5038602704365047  1.0000
  C   C5        1.0  0.7855772311877162  0.024190647678267403  0.9238087478914995  1.0000
  C   C6        1.0  0.2855746436334599  0.47581139699831704  0.576191326803503  1.0000
  C   C7        1.0  0.21442362942552506  0.9758120734265603  0.07619037631938141  1.0000
  C   C8        1.0  0.7144247634881393  0.5241845891533643  0.423808724836043  1.0000
  C   C9        1.0  0.7019785531247817  0.06968319929123369  0.042823025766033106  1.0000
  C   C10       1.0  0.20197664122661504  0.4303184963885016  0.45717741433611553  1.0000
  C   C11       1.0  0.29802376098751177  0.9303195254288495  0.9571771998849813  1.0000
  C   C12       1.0  0.7980242193911166  0.5696794132603099  0.542822136301055  1.0000
  C   C13       1.0  0.7885207077121237  0.720698905224758  0.019651032517323596  1.0000
  C   C14       1.0  0.2885176398714577  0.7793025105677458  0.4803465552576611  1.0000
  C   C15       1.0  0.21148305989496655  0.279304771300211  0.9803459136725867  1.0000
  C   C16       1.0  0.7114817672497153  0.22069347377604487  0.5196529456618891  1.0000
  C   C17       1.0  0.8180773501431273  0.0693632141766471  0.8452493184277828  1.0000
  C   C18       1.0  0.31807641732440567  0.430640731843681  0.6547508123387618  1.0000
  C   C19       1.0  0.1819235104672856  0.9306433593472009  0.154750455938057  1.0000
  C   C20       1.0  0.6819200828004242  0.5693562187697411  0.3452498148792388  1.0000
  C   C21       1.0  0.6429025365166295  0.16777041157120454  0.1050538847607285  1.0000
  C   C22       1.0  0.14290215029812  0.33222940778077265  0.39494814623449775  1.0000
  C   C23       1.0  0.3570997775964742  0.8322313504960872  0.8949463160315434  1.0000
  C   C24       1.0  0.8570972568239127  0.6677665801787995  0.6050524561250441  1.0000
  N   N1        1.0  0.7152482469691251  0.9456467978164794  0.0594661707398885  1.0000
  N   N2        1.0  0.21524695939253044  0.5543546792281759  0.4405336055902184  1.0000
  N   N3        1.0  0.2847569741386877  0.054355923286742304  0.9405329534714189  1.0000
  N   N4        1.0  0.7847539012260185  0.445642267767859  0.5594659201882166  1.0000
  N   N5        1.0  0.8090490258857057  0.8989429125337123  0.9353406521817291  1.0000
  N   N6        1.0  0.3090470685653201  0.6010598686389201  0.5646587855945172  1.0000
  N   N7        1.0  0.19095038122766542  0.10106076760865079  0.0646573954477532  1.0000
  N   N8        1.0  0.6909494315603268  0.3989361193217249  0.43534181676474765  1.0000
  N   N9        1.0  0.7336960301369261  0.1134690637932891  0.9756841531019448  1.0000
  N   N10       1.0  0.2336949692458816  0.38653398359360847  0.5243164870289762  1.0000
  N   N11       1.0  0.26630628397455064  0.886534623579571  0.024316097407812293  1.0000
  N   N12       1.0  0.7663058913730934  0.6134629652103172  0.4756835894694549  1.0000
  O   O1        1.0  0.6915884421877009  0.6829421744019939  0.0742163835151146  1.0000
  O   O2        1.0  0.1915823165399502  0.8170544977846245  0.42578051029524033  1.0000
  O   O3        1.0  0.3084182324186385  0.31705861597145457  0.9257810388188548  1.0000
  O   O4        1.0  0.8084170905824164  0.1829395594457068  0.5742183901868289  1.0000
  O   O5        1.0  0.899876918631918  0.6550106297794328  0.9777508157803324  1.0000
  O   O6        1.0  0.3998672053728924  0.8449959278113609  0.5222465363073213  1.0000
  O   O7        1.0  0.1001326629671766  0.3449949756647399  0.022247281567622703  1.0000
  O   O8        1.0  0.6001292947478234  0.15500486979740907  0.4777530889056436  1.0000
  O   O9        1.0  0.85803173478849  0.9813389306800392  0.7963379720273809  1.0000
  O   O10       1.0  0.35803013780252957  0.5186695848722209  0.7036599723176524  1.0000
  O   O11       1.0  0.1419720328153957  0.018669562724625204  0.20366019989622697  1.0000
  O   O12       1.0  0.641969269317009  0.4813283247771311  0.2963395783193761  1.0000
  O   O13       1.0  0.7991396123550131  0.1876596231844445  0.8356507325899827  1.0000
  O   O14       1.0  0.2991447132178492  0.31234531029593166  0.6643527236534796  1.0000
  O   O15       1.0  0.2008539807670218  0.8123469611894406  0.1643523460951357  1.0000
  O   O16       1.0  0.7008503334108979  0.6876506830889184  0.3356495308656307  1.0000
  O   O17       1.0  0.598191366502725  0.2790174539404759  0.08475705095391112  1.0000
  O   O18       1.0  0.0981912045376703  0.22098335922030538  0.4152444454388728  1.0000
  O   O19       1.0  0.4018109476091353  0.7209852689717097  0.9152426239771003  1.0000
  O   O20       1.0  0.9018082025822591  0.7790135859683716  0.5847545296194171  1.0000
  O   O21       1.0  0.6475843384637869  0.12894186627970333  0.16974928894463662  1.0000
  O   O22       1.0  0.1475866907006775  0.37105698335096793  0.3302516166674323  1.0000
  O   O23       1.0  0.3524150686533218  0.8710589313279868  0.8302503362686126  1.0000
  O   O24       1.0  0.8524141699166776  0.6289418907585185  0.6697485095484768  1.0000
  O   O25       1.0  0.6011263174070364  0.5580285209744957  0.8243106985224885  1.0000
  O   O26       1.0  0.10112539779402847  0.9419696074596047  0.6756907771904681  1.0000
  O   O27       1.0  0.39887308971174207  0.44197131759619873  0.17569000327202394  1.0000
  O   O28       1.0  0.898874009326377  0.0580283058055286  0.3243098748865592  1.0000
  O   O29       1.0  0.12147782324159098  0.44357376418778216  0.819494888661396  1.0000
  O   O30       1.0  0.62147852030629  0.05642455266914941  0.6805056052369026  1.0000
  O   O31       1.0  0.8785186768808017  0.5564260743839851  0.18050581313283232  1.0000
  O   O32       1.0  0.37852088681368207  0.9435733587880932  0.31949449612012165  1.0000
