data_image0
_chemical_formula_structural       Mn2H38C52N12O8
_chemical_formula_sum              "Mn2 H38 C52 N12 O8"
_cell_length_a       8.207630175773694
_cell_length_b       10.16023849985229
_cell_length_c       15.663985012159719
_cell_angle_alpha    88.80906251088294
_cell_angle_beta     75.0120482603525
_cell_angle_gamma    79.49038469546025

_space_group_name_H-M_alt    "P 1"
_space_group_IT_number       1

loop_
  _space_group_symop_operation_xyz
  'x, y, z'

loop_
  _atom_site_type_symbol
  _atom_site_label
  _atom_site_symmetry_multiplicity
  _atom_site_fract_x
  _atom_site_fract_y
  _atom_site_fract_z
  _atom_site_occupancy
  Mn  Mn1       1.0  0.3341885482144349  0.3712441338034226  0.04362349851518842  1.0000
  Mn  Mn2       1.0  0.6658065627273471  0.6287550192337009  0.9563839482854846  1.0000
  H   H1        1.0  0.5233678226353717  0.23162015896307503  0.864670773002203  1.0000
  H   H2        1.0  0.4766056358269708  0.7683747751943812  0.1353409349651571  1.0000
  H   H3        1.0  0.5115106286761913  0.24754529577647602  0.7064288883340383  1.0000
  H   H4        1.0  0.4884829895602962  0.752454816155641  0.2935806708109041  1.0000
  H   H5        1.0  0.1015083092926403  0.5905034841002603  0.7878776052988812  1.0000
  H   H6        1.0  0.8984905945455921  0.40950576708252134  0.21212733809848316  1.0000
  H   H7        1.0  0.1280224350464606  0.5598166073805758  0.9393158815504066  1.0000
  H   H8        1.0  0.8719615972876085  0.44018649695659917  0.06069113420402062  1.0000
  H   H9        1.0  0.19310012020559236  0.5265532561689241  0.6325189165607271  1.0000
  H   H10       1.0  0.8069093758679032  0.4734590740466586  0.3674858367524081  1.0000
  H   H11       1.0  0.5653358573142739  0.2620615164025253  0.43811665009383205  1.0000
  H   H12       1.0  0.43465873209755296  0.7379396920625965  0.5618876613155095  1.0000
  H   H13       1.0  0.638509506947983  0.1928662194853317  0.28592667747702194  1.0000
  H   H14       1.0  0.36147970598624113  0.8071108933121849  0.7140766204581084  1.0000
  H   H15       1.0  0.5894324549430578  0.2212226874158176  0.13380224446238742  1.0000
  H   H16       1.0  0.41055321589313826  0.7787534236948376  0.8661996285090936  1.0000
  H   H17       1.0  0.15813906104078512  0.5130550482959748  0.22538674061145514  1.0000
  H   H18       1.0  0.8418685990835683  0.48694934513755334  0.7746119341945743  1.0000
  H   H19       1.0  0.18586225450472676  0.49507229962988225  0.3816597630465637  1.0000
  H   H20       1.0  0.814151729415741  0.5049371327657824  0.6183399289409479  1.0000
  H   H21       1.0  0.8630253351287819  0.1525318972314409  0.15436569144746673  1.0000
  H   H22       1.0  0.13696728696409377  0.8474616597730815  0.8456153194076707  1.0000
  H   H23       1.0  0.732663079286219  0.9457388508094557  0.1915057543789231  1.0000
  H   H24       1.0  0.2673114631753323  0.05425601211975111  0.8084502615420774  1.0000
  H   H25       1.0  0.9162086236803546  0.7211630175830024  0.14572553993036758  1.0000
  H   H26       1.0  0.08378901861919992  0.2788306139157584  0.8542528699833625  1.0000
  H   H27       1.0  0.34776063059128137  0.9095032667088107  0.027696669578944025  1.0000
  H   H28       1.0  0.652247774237736  0.0904930739615963  0.9723038751264211  1.0000
  H   H29       1.0  0.26818893650084147  0.08805715526019502  0.5939733452309497  1.0000
  H   H30       1.0  0.7318285213999688  0.9119534267667784  0.406018841769864  1.0000
  H   H31       1.0  0.28788554284747647  0.0417954054379805  0.3493079595358068  1.0000
  H   H32       1.0  0.7121296922400331  0.9582241565447231  0.6506863834707275  1.0000
  H   H33       1.0  0.03703272796857961  0.12624407134846652  0.2870816495952724  1.0000
  H   H34       1.0  0.9629799994483648  0.8737754481033947  0.7129143128087707  1.0000
  H   H35       1.0  0.7372367256022441  0.2855099580869691  0.5305110452058344  1.0000
  H   H36       1.0  0.26277042162460157  0.714491420762556  0.4694877206303687  1.0000
  H   H37       1.0  0.9756785817025033  0.2080911400910921  0.6027698536339229  1.0000
  H   H38       1.0  0.024325769229619668  0.791906233185543  0.3972274064236601  1.0000
  C   C1        1.0  0.4328830075883942  0.309839433548099  0.8438632813596385  1.0000
  C   C2        1.0  0.5670977361142917  0.6901616572394147  0.15614292034641147  1.0000
  C   C3        1.0  0.4255306622809059  0.3185901183015929  0.756628171121335  1.0000
  C   C4        1.0  0.5744579611753052  0.6814149151760491  0.24338522751867944  1.0000
  C   C5        1.0  0.3062679329216564  0.4220445906953856  0.7327940808029894  1.0000
  C   C6        1.0  0.6937339649595912  0.5779576726854003  0.2672098643273415  1.0000
  C   C7        1.0  0.19772879867235824  0.509138660788139  0.8007654495386517  1.0000
  C   C8        1.0  0.8022673575266525  0.49086647914713666  0.19924436661604972  1.0000
  C   C9        1.0  0.21274508152461638  0.4931879744793335  0.8865497227498125  1.0000
  C   C10       1.0  0.7872447265505401  0.5068121793311207  0.1134558869554212  1.0000
  C   C11       1.0  0.288482525963822  0.4415850594885314  0.643857592822684  1.0000
  C   C12       1.0  0.7115184186347178  0.5584312222881068  0.3561476614610939  1.0000
  C   C13       1.0  0.4479571404436342  0.328940975004997  0.4323805715080767  1.0000
  C   C14       1.0  0.5520460161384478  0.671061299073756  0.5676232017770957  1.0000
  C   C15       1.0  0.41697097405118916  0.34317765842914827  0.3458233186571391  1.0000
  C   C16       1.0  0.5830291522317165  0.6568215796696678  0.6541808893485239  1.0000
  C   C17       1.0  0.5293757326822401  0.263482256624151  0.2747490226321858  1.0000
  C   C18       1.0  0.47061778008175287  0.7365029305934171  0.7252529937301802  1.0000
  C   C19       1.0  0.5035206035276687  0.27895227590045113  0.19094395245137719  1.0000
  C   C20       1.0  0.49646866512490834  0.7210348184091515  0.8090624604446861  1.0000
  C   C21       1.0  0.26117514861061153  0.4426761788299629  0.2425873341267248  1.0000
  C   C22       1.0  0.738830788570887  0.5573250836469866  0.7574179820906011  1.0000
  C   C23       1.0  0.27730781218371436  0.43277710845973166  0.32826130300724543  1.0000
  C   C24       1.0  0.722706613220602  0.567220339833149  0.6717352201426863  1.0000
  C   C25       1.0  0.18633476089577533  0.16656871508477877  0.07155905694330039  1.0000
  C   C26       1.0  0.8136639602617207  0.833431291694744  0.9284587447713691  1.0000
  C   C27       1.0  0.112136655163809  0.0424764642735909  0.0905375055827022  1.0000
  C   C28       1.0  0.8878727197418782  0.9575159240527499  0.9094597421013758  1.0000
  C   C29       1.0  0.9387686814842054  0.052755630085115995  0.1359654484345185  1.0000
  C   C30       1.0  0.06122372606640879  0.9472388542425207  0.8640200543341194  1.0000
  C   C31       1.0  0.8676103894163276  0.9378057224467186  0.15637213051115845  1.0000
  C   C32       1.0  0.13237939369055599  0.06218897296913892  0.8435996831686765  1.0000
  C   C33       1.0  0.9692397756839669  0.812144465097596  0.1307752360834655  1.0000
  C   C34       1.0  0.03075562700832529  0.18784808030512323  0.8692073177038181  1.0000
  C   C35       1.0  0.1419253483440315  0.8011255060734186  0.08378498823438461  1.0000
  C   C36       1.0  0.8580812410966985  0.19886790442217964  0.9162100786639514  1.0000
  C   C37       1.0  0.21351040470826624  0.9166980629265495  0.06393165334308291  1.0000
  C   C38       1.0  0.7864919454866025  0.08329724409362171  0.936068447942546  1.0000
  C   C39       1.0  0.24936271102843927  0.6670308133654999  0.052622608144595504  1.0000
  C   C40       1.0  0.7506368709663461  0.3329553757999335  0.9473817651982942  1.0000
  C   C41       1.0  0.29142509236896785  0.07217770497896939  0.5222747422823488  1.0000
  C   C42       1.0  0.7085574505557872  0.9278415048844405  0.4777285336734138  1.0000
  C   C43       1.0  0.151262927018756  0.11777490261815166  0.4814507811862683  1.0000
  C   C44       1.0  0.8487462269095474  0.8822335807974613  0.5185438305611783  1.0000
  C   C45       1.0  0.1674072948182612  0.09533011047909669  0.39113874462442777  1.0000
  C   C46       1.0  0.8326077003005853  0.9046853827869582  0.6088588517419425  1.0000
  C   C47       1.0  0.027860386770718986  0.1426257475356962  0.35707521756426536  1.0000
  C   C48       1.0  0.9721457682490213  0.8573897342493666  0.6429197545966189  1.0000
  C   C49       1.0  0.8616037653405257  0.23143124802454207  0.4920842652766737  1.0000
  C   C50       1.0  0.13839733808192992  0.7685741249168956  0.5079133821326707  1.0000
  C   C51       1.0  0.9940350990235413  0.18798694836829807  0.5324344519094383  1.0000
  C   C52       1.0  0.005979122668271888  0.8120164549898589  0.4675658881468721  1.0000
  N   N1        1.0  0.33090265688775844  0.3973920298278202  0.9084356115661409  1.0000
  N   N2        1.0  0.6690771156395882  0.6026079644266886  0.09157583787551725  1.0000
  N   N3        1.0  0.38139618720735763  0.36142136328999197  0.5784420251202533  1.0000
  N   N4        1.0  0.6186079708420137  0.6385869927940746  0.42155837683657893  1.0000
  N   N5        1.0  0.33815426730447473  0.39277319196254723  0.5008156934692352  1.0000
  N   N6        1.0  0.6618501501757593  0.6072391905683219  0.49918400654215117  1.0000
  N   N7        1.0  0.3743281042136672  0.3697044952321065  0.17374668616351135  1.0000
  N   N8        1.0  0.6256764893553566  0.6302868384395667  0.8262518598164661  1.0000
  N   N9        1.0  0.8763083619470322  0.20944064321930972  0.40590026914219385  1.0000
  N   N10       1.0  0.12370006077460968  0.7905708123799542  0.5940963369810178  1.0000
  N   N11       1.0  0.4415254654996588  0.0169993204659207  0.4749037183038354  1.0000
  N   N12       1.0  0.5585105274724567  0.9829924285993102  0.5250816015968951  1.0000
  O   O1        1.0  0.090004040113854  0.2805946484041968  0.09275106850026299  1.0000
  O   O2        1.0  0.909998878709665  0.7193939109911015  0.9072930548987088  1.0000
  O   O3        1.0  0.34748791783394495  0.15818594342297843  0.03551466135981229  1.0000
  O   O4        1.0  0.6525103990248908  0.8418154028106459  0.9644827559780965  1.0000
  O   O5        1.0  0.3956171825059655  0.662875528049355  0.9994059122276441  1.0000
  O   O6        1.0  0.6043841337323458  0.3370986137390375  0.000599585407677162  1.0000
  O   O7        1.0  0.18618355593242336  0.56249617403693  0.079450688295104  1.0000
  O   O8        1.0  0.8138034985393005  0.4374948302164015  0.9205611070281848  1.0000
