data_image0
_chemical_formula_structural       Zn4H44C90N4O26F4
_chemical_formula_sum              "Zn4 H44 C90 N4 O26 F4"
_cell_length_a       16.493085726793513
_cell_length_b       17.890605095434033
_cell_length_c       33.21219985796819
_cell_angle_alpha    90.24138335781316
_cell_angle_beta     89.82227840268835
_cell_angle_gamma    89.9229256778508

_space_group_name_H-M_alt    "P 1"
_space_group_IT_number       1

loop_
  _space_group_symop_operation_xyz
  'x, y, z'

loop_
  _atom_site_type_symbol
  _atom_site_label
  _atom_site_symmetry_multiplicity
  _atom_site_fract_x
  _atom_site_fract_y
  _atom_site_fract_z
  _atom_site_occupancy
  Zn  Zn1       1.0  0.5840338892073973  0.49921334037300363  0.5006374332105992  1.0000
  Zn  Zn2       1.0  0.4153180768999433  0.5009084912949006  0.5000398074705645  1.0000
  Zn  Zn3       1.0  0.4160330168881927  0.50147696139215  0.9615060974766652  1.0000
  Zn  Zn4       1.0  0.5846623289010396  0.5029159018493343  0.9620469529722374  1.0000
  H   H1        1.0  0.2893550848608442  0.5818536282658683  0.5454277480934098  1.0000
  H   H2        1.0  0.13680995340327226  0.5881122651778055  0.5483892297979411  1.0000
  H   H3        1.0  0.2844121513367739  0.4185654026476015  0.4563486427296228  1.0000
  H   H4        1.0  0.715343179744956  0.5822292128539174  0.5439143314266275  1.0000
  H   H5        1.0  0.709503252788764  0.4175579880211868  0.45561441942381736  1.0000
  H   H6        1.0  0.8620831588599743  0.4113953998503277  0.4522156133918785  1.0000
  H   H7        1.0  0.6312631195785986  0.7346513096330581  0.5006236768824766  1.0000
  H   H8        1.0  0.6360139266032903  0.8746848288137555  0.5000365508517178  1.0000
  H   H9        1.0  0.3706137338841344  0.7417564540207449  0.5003204765334177  1.0000
  H   H10       1.0  0.6301611118705495  0.257635435095139  0.5000072554578027  1.0000
  H   H11       1.0  0.3695517860880529  0.2662503372725381  0.4998419349026267  1.0000
  H   H12       1.0  0.3638811212961314  0.126219201866256  0.49970166862606674  1.0000
  H   H13       1.0  0.36887819221257706  0.5005241682461301  0.6289577534101769  1.0000
  H   H14       1.0  0.6289651809311323  0.5000224891016884  0.6280069362571015  1.0000
  H   H15       1.0  0.6308880728416071  0.501243318519485  0.8330843940465942  1.0000
  H   H16       1.0  0.3707814228538737  0.5008629749103335  0.8340691138545753  1.0000
  H   H17       1.0  0.36840548892051567  0.5028860577368022  0.08831105689719723  1.0000
  H   H18       1.0  0.36334002848320784  0.5023918699158471  0.16377286031659827  1.0000
  H   H19       1.0  0.6290276153726992  0.5023621309227052  0.09184998191641823  1.0000
  H   H20       1.0  0.37095795382739283  0.5000227051277688  0.3702840899793714  1.0000
  H   H21       1.0  0.6315900299298889  0.5003556606913405  0.3738414602323844  1.0000
  H   H22       1.0  0.6366508341661188  0.5012282622765554  0.29836906000662117  1.0000
  H   H23       1.0  0.7103788538189164  0.5838925151539482  0.9168735890125534  1.0000
  H   H24       1.0  0.8629226157531705  0.5902914892492318  0.913995856817458  1.0000
  H   H25       1.0  0.7159036103500256  0.4212945444043398  0.005583252664692402  1.0000
  H   H26       1.0  0.28462343413728053  0.584239021007839  0.9183268661064548  1.0000
  H   H27       1.0  0.2906413521702119  0.42030652382283745  0.006267822154910603  1.0000
  H   H28       1.0  0.1380541260660237  0.41448897443800786  0.009659062915261502  1.0000
  H   H29       1.0  0.36854265960059246  0.7374056801404192  0.9609441177241256  1.0000
  H   H30       1.0  0.3641865989020446  0.8775058547084736  0.961063841667951  1.0000
  H   H31       1.0  0.6292309787245145  0.74330858345332  0.9612378478639914  1.0000
  H   H32       1.0  0.3701757512681709  0.2600052204786891  0.9617298384292641  1.0000
  H   H33       1.0  0.6307685364408258  0.2680030851199858  0.96180191735661  1.0000
  H   H34       1.0  0.6364579036634694  0.12795167085693038  0.9615874509644444  1.0000
  H   H35       1.0  0.0681343240139682  0.4133486551297024  0.4530971302777972  1.0000
  H   H36       1.0  0.9316012083068584  0.5867422298804781  0.5471176419483899  1.0000
  H   H37       1.0  0.3716581578948848  0.940790207938697  0.49973663284737324  1.0000
  H   H38       1.0  0.6277633340727959  0.05858351748825898  0.4998666593193734  1.0000
  H   H39       1.0  0.6275221693963858  0.501877777071371  0.19905735124768859  1.0000
  H   H40       1.0  0.3724990081343266  0.5012046263291196  0.2630724970418613  1.0000
  H   H41       1.0  0.9321658564335563  0.4164182243083231  0.008969895549974202  1.0000
  H   H42       1.0  0.0683797977483209  0.5891740565491829  0.91510502654635  1.0000
  H   H43       1.0  0.628633728091508  0.942392670533472  0.9610881163278155  1.0000
  H   H44       1.0  0.3725662589394716  0.06097357213326398  0.9612858995521594  1.0000
  C   C1        1.0  0.49900499291850764  0.6466691400282014  0.5011173656204592  1.0000
  C   C2        1.0  0.49875972969469723  0.5005582742719951  0.5794250151986235  1.0000
  C   C3        1.0  0.5026338104683745  0.3534553889812813  0.4998151113370924  1.0000
  C   C4        1.0  0.4987030300180422  0.4994277717403718  0.4213520471642554  1.0000
  C   C5        1.0  0.5007931733956001  0.6488249711404421  0.9609302979374594  1.0000
  C   C6        1.0  0.5010920048769735  0.5017502640674888  0.8826543461797701  1.0000
  C   C7        1.0  0.49766464598624793  0.35554333595815274  0.962129235262687  1.0000
  C   C8        1.0  0.5012591808177832  0.5021488193670294  0.04078508317749652  1.0000
  C   C9        1.0  0.2513026319062064  0.5469476198554233  0.5263181801237736  1.0000
  C   C10       1.0  0.16747490997848052  0.5499853440074033  0.5277197134084732  1.0000
  C   C11       1.0  0.12206937463010799  0.5032204318503942  0.5021290714752028  1.0000
  C   C12       1.0  0.1646959882982202  0.45444398089308163  0.4757573220128891  1.0000
  C   C13       1.0  0.2494671060787397  0.4550730883715204  0.47629354798549184  1.0000
  C   C14       1.0  0.036551873292310695  0.5026127903129448  0.5015704222840471  1.0000
  C   C15       1.0  0.9627969710842876  0.4973932399636779  0.4985787479307151  1.0000
  C   C16       1.0  0.8772744686666484  0.4968387241246076  0.4981448762455546  1.0000
  C   C17       1.0  0.8348810351090351  0.5458576865933009  0.5244933607240869  1.0000
  C   C18       1.0  0.7500902973137399  0.5453359300169466  0.5240916872892571  1.0000
  C   C19       1.0  0.7477877380576742  0.4528439568697777  0.4744047518209201  1.0000
  C   C20       1.0  0.8316101270475401  0.44983358424139647  0.47279312263664525  1.0000
  C   C21       1.0  0.500920452513583  0.7304534309706978  0.5007400648247116  1.0000
  C   C22       1.0  0.5758514988189701  0.7677547340187086  0.5005826557666497  1.0000
  C   C23       1.0  0.5782154393726414  0.8451516791298842  0.5002095619632244  1.0000
  C   C24       1.0  0.5057686069796432  0.8872137024623254  0.5000230614199951  1.0000
  C   C25       1.0  0.43032760567107436  0.8488935665095595  0.5001259136782894  1.0000
  C   C26       1.0  0.4284486562734173  0.7710498527776933  0.5004332252670594  1.0000
  C   C27       1.0  0.5044753939770955  0.9660388132462638  0.499764690530448  1.0000
  C   C28       1.0  0.49495264448376003  0.03410903370290439  0.4996623612718454  1.0000
  C   C29       1.0  0.4940357648052895  0.11294469386020009  0.4996461841267818  1.0000
  C   C30       1.0  0.5697505741333516  0.15082823134859064  0.4997139171032502  1.0000
  C   C31       1.0  0.5721410018374514  0.22866235216369546  0.4997659976636586  1.0000
  C   C32       1.0  0.499929245106408  0.26968914176124764  0.4997307429681046  1.0000
  C   C33       1.0  0.4247389421361945  0.23282666796723112  0.4997145410123168  1.0000
  C   C34       1.0  0.42186782281874  0.15542812443736406  0.49966979975110365  1.0000
  C   C35       1.0  0.4253792620853787  0.5006798276415548  0.6457799066088513  1.0000
  C   C36       1.0  0.4248297671490421  0.500778948598466  0.6879801284425542  1.0000
  C   C37       1.0  0.35147492507189787  0.5009992071643692  0.7110258141281282  1.0000
  C   C38       1.0  0.572769503032099  0.50045158623805  0.6452463426480579  1.0000
  C   C39       1.0  0.5740562880754821  0.5007960788210892  0.687422030006559  1.0000
  C   C40       1.0  0.6478670153298866  0.5011185009342256  0.7098903261660328  1.0000
  C   C41       1.0  0.5743660974096727  0.501341434659885  0.81627487531852  1.0000
  C   C42       1.0  0.5748785988456007  0.5012490327599223  0.7740756219403625  1.0000
  C   C43       1.0  0.6482307516474394  0.5012708025352096  0.7510238520954291  1.0000
  C   C44       1.0  0.4269702978424448  0.5011029515059775  0.8168263816572792  1.0000
  C   C45       1.0  0.42563769610014646  0.501071488193986  0.7746448260783724  1.0000
  C   C46       1.0  0.3518302315815376  0.5010967340533837  0.7521622410949862  1.0000
  C   C47       1.0  0.4988853728316087  0.5005319932277529  0.6246994176080778  1.0000
  C   C48       1.0  0.4996399192101037  0.5008868348599691  0.7096547129866269  1.0000
  C   C49       1.0  0.5008698403574954  0.5013411452327857  0.8373712818167081  1.0000
  C   C50       1.0  0.5000454420952208  0.50109755817423  0.7524187366467675  1.0000
  C   C51       1.0  0.4987970819494763  0.5021993266626124  0.08591774477314834  1.0000
  C   C52       1.0  0.42374727973748344  0.502417893665779  0.10607703294289912  1.0000
  C   C53       1.0  0.4211909485596337  0.5022324718583205  0.14778194461831623  1.0000
  C   C54       1.0  0.4935568411333193  0.5019298823777232  0.17034325585047583  1.0000
  C   C55       1.0  0.5690967009873945  0.5019419104463337  0.1496264871025872  1.0000
  C   C56       1.0  0.5711451393640701  0.5020933508679946  0.10769938081219983  1.0000
  C   C57       1.0  0.49489865865795224  0.5016796766654466  0.21278552457849298  1.0000
  C   C58       1.0  0.5050678964473363  0.5014306972150351  0.24937547263605359  1.0000
  C   C59       1.0  0.5064282759610066  0.5008523755202176  0.29180614974123403  1.0000
  C   C60       1.0  0.4308857888801398  0.5004781430784887  0.3125194096834107  1.0000
  C   C61       1.0  0.42884560123692944  0.5000002672274986  0.35443765193851123  1.0000
  C   C62       1.0  0.5012047115058992  0.4997696402626344  0.3762180934835443  1.0000
  C   C63       1.0  0.5762611005980034  0.5001698379485049  0.3560622750043836  1.0000
  C   C64       1.0  0.5788006547402419  0.5007219410414905  0.3143569942059231  1.0000
  C   C65       1.0  0.7485322491373337  0.5491629817593876  0.9359130360386632  1.0000
  C   C66       1.0  0.83236158027767  0.5522944813125219  0.9345603976160607  1.0000
  C   C67       1.0  0.8779524989987664  0.5057821522806093  0.9600678647136437  1.0000
  C   C68       1.0  0.8354849350679956  0.4571741414229534  0.9863121468262084  1.0000
  C   C69       1.0  0.7507168198913946  0.4576897710620215  0.9857375043326969  1.0000
  C   C70       1.0  0.9634657494820827  0.5052769177377455  0.9606653038105509  1.0000
  C   C71       1.0  0.037269750938769206  0.5002132843619548  0.9635197113781618  1.0000
  C   C72       1.0  0.12278566017639041  0.49962025821032086  0.9639317794104303  1.0000
  C   C73       1.0  0.16511667505428557  0.548339544745744  0.9376933491574067  1.0000
  C   C74       1.0  0.24990946991276525  0.54757010394308  0.9380698779445571  1.0000
  C   C75       1.0  0.2523265331132052  0.4555238284706035  0.9875624601443111  1.0000
  C   C76       1.0  0.1685112220362655  0.4527014758966387  0.989171995643588  1.0000
  C   C77       1.0  0.4988879228790281  0.7326244853151135  0.9609478402979834  1.0000
  C   C78       1.0  0.4240345506563231  0.7702569844057477  0.9609393673244074  1.0000
  C   C79       1.0  0.42189256270147274  0.8476794422894609  0.9610548079137335  1.0000
  C   C80       1.0  0.4944690669424077  0.8893665427330429  0.9611680535702052  1.0000
  C   C81       1.0  0.5698250747908987  0.8507104183282691  0.9610730098166373  1.0000
  C   C82       1.0  0.5714805919342041  0.7728677903348069  0.9610452190358176  1.0000
  C   C83       1.0  0.4959130514702609  0.9681668647717102  0.961387958866958  1.0000
  C   C84       1.0  0.5054394639868889  0.036194928537256  0.9614923882849387  1.0000
  C   C85       1.0  0.5063104962589833  0.11500324570119595  0.9616766577184994  1.0000
  C   C86       1.0  0.4306023037742079  0.15307368025629126  0.961714276789515  1.0000
  C   C87       1.0  0.42821001884000515  0.23091208798256693  0.9618746378810459  1.0000
  C   C88       1.0  0.5004115353207012  0.27175304450827287  0.9620012720937015  1.0000
  C   C89       1.0  0.5755929791122724  0.23469894295264737  0.9618880353211028  1.0000
  C   C90       1.0  0.5784704269469502  0.15729861146877502  0.961742738995071  1.0000
  N   N1        1.0  0.29072842726152  0.5002807350978029  0.5009848967597608  1.0000
  N   N2        1.0  0.708614457871711  0.49985674229780114  0.49964993664913504  1.0000
  N   N3        1.0  0.709281491291904  0.5026169003296771  0.9611184380074393  1.0000
  N   N4        1.0  0.2914479173605359  0.5022398828368608  0.9624109043134228  1.0000
  O   O1        1.0  0.5672801728599809  0.6132611385562398  0.5017029713726302  1.0000
  O   O2        1.0  0.429721732992796  0.6152305847988231  0.5007519683314285  1.0000
  O   O3        1.0  0.4300712305557965  0.5022307130561073  0.5621161352613343  1.0000
  O   O4        1.0  0.5676809848492964  0.49893912996686407  0.5620645063767143  1.0000
  O   O5        1.0  0.4346302718245667  0.38744755759558547  0.4999831661652722  1.0000
  O   O6        1.0  0.5721866221793874  0.3843046440875638  0.4997723593519867  1.0000
  O   O7        1.0  0.5668109256479923  0.49869637066487366  0.4393785989895847  1.0000
  O   O8        1.0  0.4292412394296078  0.5000006248486526  0.4382340392836569  1.0000
  O   O9        1.0  0.4325518796292089  0.615506308893515  0.9605009063015263  1.0000
  O   O10       1.0  0.5701147330762594  0.6172773867754556  0.9613505928609458  1.0000
  O   O11       1.0  0.5698058281910079  0.5034969577083429  0.8999445722031115  1.0000
  O   O12       1.0  0.4322074249318675  0.5003460019645373  0.9000502594341244  1.0000
  O   O13       1.0  0.5656352285681551  0.38944722020040234  0.962074626601144  1.0000
  O   O14       1.0  0.42809476573372524  0.3865108934127333  0.9622183473971619  1.0000
  O   O15       1.0  0.4331389130122644  0.5014593547728976  0.022762626246319008  1.0000
  O   O16       1.0  0.5706965804161612  0.5028073535801596  0.023882668320503307  1.0000
  O   O17       1.0  0.12686457917919822  0.407223393804628  0.4500096452649276  1.0000
  O   O18       1.0  0.8728894385154576  0.5932458721604802  0.5500562963882417  1.0000
  O   O19       1.0  0.3588725635711754  0.8872622509159667  0.4999353014205001  1.0000
  O   O20       1.0  0.6409503276554034  0.11203367329753884  0.49976181631573297  1.0000
  O   O21       1.0  0.640453779347922  0.5017695005100151  0.17020705385665022  1.0000
  O   O22       1.0  0.3595499435322083  0.5006527786690353  0.2919192478754838  1.0000
  O   O23       1.0  0.8734578226066532  0.41021174246895237  0.011984260836889903  1.0000
  O   O24       1.0  0.1270850424273178  0.5956119748163784  0.9122366063380628  1.0000
  O   O25       1.0  0.6413518910321513  0.8888115412032815  0.9610322007875924  1.0000
  O   O26       1.0  0.3593963408845369  0.11446265073154646  0.9615475714567696  1.0000
  F   F1        1.0  0.28046710473444847  0.5014165128166538  0.7726292779582595  1.0000
  F   F2        1.0  0.2797243633410815  0.5012808535852853  0.6910837417870258  1.0000
  F   F3        1.0  0.7199806682169267  0.5015699135063868  0.7709672120863048  1.0000
  F   F4        1.0  0.719212618633165  0.5013023453353608  0.6894069655271552  1.0000
