data_image0
_chemical_formula_structural       Al3H36C81Br9O18
_chemical_formula_sum              "Al3 H36 C81 Br9 O18"
_cell_length_a       4.030878624544884
_cell_length_b       27.796089140147043
_cell_length_c       27.832900239915354
_cell_angle_alpha    60.103075237691726
_cell_angle_beta     91.0851911513132
_cell_angle_gamma    90.32485607643936

_space_group_name_H-M_alt    "P 1"
_space_group_IT_number       1

loop_
  _space_group_symop_operation_xyz
  'x, y, z'

loop_
  _atom_site_type_symbol
  _atom_site_label
  _atom_site_symmetry_multiplicity
  _atom_site_fract_x
  _atom_site_fract_y
  _atom_site_fract_z
  _atom_site_occupancy
  Al  Al1       1.0  0.0038878984868659936  0.4992114977025395  0.5003601382301495  1.0000
  Al  Al2       1.0  0.9436542767974744  0.8326686346250725  0.8329670967336182  1.0000
  Al  Al3       1.0  0.0529339467524679  0.1660353086428543  0.16728731967165802  1.0000
  H   H1        1.0  0.521654238790383  0.07670090346738329  0.9218209572019588  1.0000
  H   H2        1.0  0.5054785748517289  0.25496433500001814  0.83451172797821  1.0000
  H   H3        1.0  0.5176266608978111  0.16732546971218207  0.7437598252300431  1.0000
  H   H4        1.0  0.7211689262174446  0.9263292788319929  0.9083365064258186  1.0000
  H   H5        1.0  0.7624063502193223  0.014208669192854066  0.9098673634494644  1.0000
  H   H6        1.0  0.22318850464362333  0.09784858151016361  0.7537589073266345  1.0000
  H   H7        1.0  0.2883652701940989  0.08605240517408694  0.9837927734875648  1.0000
  H   H8        1.0  0.7929949008636257  0.24307381046310886  0.9956561345099361  1.0000
  H   H9        1.0  0.7976864800754341  0.24329982430035807  0.9068213351026984  1.0000
  H   H10       1.0  0.786159069535941  0.31426190913708063  0.7646144510063663  1.0000
  H   H11       1.0  0.22944113575143632  0.3330742047626387  0.5961819818658043  1.0000
  H   H12       1.0  0.22572944630207556  0.2420151131257455  0.6829375706504308  1.0000
  H   H13       1.0  0.4960712224277657  0.4993526002776036  0.07805904839214853  1.0000
  H   H14       1.0  0.517768067494508  0.5894719897873416  0.16637385832555648  1.0000
  H   H15       1.0  0.502410823694639  0.4112286962877788  0.2561667368480725  1.0000
  H   H16       1.0  0.2860998949608983  0.3364130349219252  0.08985951449395907  1.0000
  H   H17       1.0  0.250763928285295  0.42535121219194144  0.08927331476127871  1.0000
  H   H18       1.0  0.7838967113849904  0.3516728459945924  0.2460410389888565  1.0000
  H   H19       1.0  0.7344253335906926  0.5714067713464885  0.01654625320096405  1.0000
  H   H20       1.0  0.2087357752220171  0.737671914176147  0.005355702205108134  1.0000
  H   H21       1.0  0.21484158126710176  0.6492376342775258  0.09427425009506145  1.0000
  H   H22       1.0  0.23381140045503201  0.5776613713366957  0.23628976550938305  1.0000
  H   H23       1.0  0.787172606808774  0.428661957173084  0.40468918954192645  1.0000
  H   H24       1.0  0.7988851609576244  0.4252755008366904  0.3173919458130499  1.0000
  H   H25       1.0  0.4999443629989814  0.9219406592387285  0.5003935978251732  1.0000
  H   H26       1.0  0.47252519152321776  0.8336455317926477  0.4102981215133779  1.0000
  H   H27       1.0  0.4871230780123811  0.7436568588350454  0.5883527677718163  1.0000
  H   H28       1.0  0.6986153749339507  0.9091475080799541  0.6645044305589493  1.0000
  H   H29       1.0  0.733003179468298  0.9103896242829989  0.5754167526999935  1.0000
  H   H30       1.0  0.21444078989999577  0.7540678547975119  0.6469403412621587  1.0000
  H   H31       1.0  0.2732641201652868  0.9850211079044727  0.4277040220315412  1.0000
  H   H32       1.0  0.7888168162354033  0.993178143349084  0.2634107643494372  1.0000
  H   H33       1.0  0.7751796454910077  0.9039870248968286  0.3515151506729594  1.0000
  H   H34       1.0  0.7533971353482086  0.763721958684201  0.42240769301937314  1.0000
  H   H35       1.0  0.2218287892887503  0.5951642523470183  0.5698892895912306  1.0000
  H   H36       1.0  0.20348211771396046  0.6821814345222705  0.5739523509206704  1.0000
  C   C1        1.0  0.5021532779239308  0.5745044115254174  0.49761487724308034  1.0000
  C   C2        1.0  0.508291349914998  0.4269439984863511  0.5755203871820953  1.0000
  C   C3        1.0  0.499937340573794  0.5005023919524376  0.4259007219901249  1.0000
  C   C4        1.0  0.4452027119567105  0.9080008604742673  0.8304094489223243  1.0000
  C   C5        1.0  0.4530771706436454  0.7592653889219535  0.9072509351438995  1.0000
  C   C6        1.0  0.4366619616388193  0.8306058645639994  0.7603233268334859  1.0000
  C   C7        1.0  0.5449618681202396  0.1654651462787911  0.09358008340121418  1.0000
  C   C8        1.0  0.5558346252307658  0.23978895323845256  0.16777354518074358  1.0000
  C   C9        1.0  0.5556037622948793  0.09295758841865626  0.24140597643640396  1.0000
  C   C10       1.0  0.5262807914216907  0.1657969884887578  0.8844782737501615  1.0000
  C   C11       1.0  0.5190099046802388  0.1160994136154585  0.8830100217288575  1.0000
  C   C12       1.0  0.5069051527275974  0.1158312936090269  0.832786085986605  1.0000
  C   C13       1.0  0.509447453925965  0.16684819989658456  0.7831128053204707  1.0000
  C   C14       1.0  0.5132173038007649  0.21729643816993877  0.783062736505414  1.0000
  C   C15       1.0  0.5181984366522485  0.21602975811503475  0.8340898004041077  1.0000
  C   C16       1.0  0.6104908568488341  0.9641224972459952  0.87467334253904  1.0000
  C   C17       1.0  0.6303810081945754  0.013626859349393965  0.8756203233747399  1.0000
  C   C18       1.0  0.4929449024338268  0.06289916058010908  0.8322068070175489  1.0000
  C   C19       1.0  0.3404041897427348  0.060913818140157686  0.7874653824695983  1.0000
  C   C20       1.0  0.3298226233763515  0.011567330339026785  0.7860406923944224  1.0000
  C   C21       1.0  0.4588948498496919  0.9622502294276957  0.8299037767927898  1.0000
  C   C22       1.0  0.4058600858132094  0.12043129479022248  0.9857186411861105  1.0000
  C   C23       1.0  0.4166803942496813  0.1196769055201941  0.03609931560048098  1.0000
  C   C24       1.0  0.5450665189764764  0.16440942474486767  0.040157028379127276  1.0000
  C   C25       1.0  0.6799741935124572  0.20892127769849386  0.9926354275232893  1.0000
  C   C26       1.0  0.679124696900999  0.20917046718508908  0.9425087674226518  1.0000
  C   C27       1.0  0.5364730670817152  0.16532387832686632  0.9378922685471238  1.0000
  C   C28       1.0  0.6608874742616139  0.3176293047088663  0.7280551333399785  1.0000
  C   C29       1.0  0.6605041827266334  0.36868974298934626  0.679197366498407  1.0000
  C   C30       1.0  0.510348156675299  0.37479520979503894  0.6303799835215997  1.0000
  C   C31       1.0  0.3550158678244628  0.3278891420741702  0.6334927202871227  1.0000
  C   C32       1.0  0.3560781590929949  0.2769032814548923  0.682039221522963  1.0000
  C   C33       1.0  0.5109402495066959  0.2708291836481892  0.7304619515633988  1.0000
  C   C34       1.0  0.49513491767030626  0.5506393645206131  0.1159859512936875  1.0000
  C   C35       1.0  0.500291161724924  0.49969308807817475  0.11703660759224725  1.0000
  C   C36       1.0  0.5111315075789945  0.4491189836951505  0.16703461393933583  1.0000
  C   C37       1.0  0.511539634666981  0.4501438615832285  0.216924192265587  1.0000
  C   C38       1.0  0.5103369767872011  0.5003404629565936  0.21733610259963132  1.0000
  C   C39       1.0  0.5052103540966755  0.550227987250004  0.16652948009628693  1.0000
  C   C40       1.0  0.397647160925395  0.3402134691824444  0.12380897396550236  1.0000
  C   C41       1.0  0.3809247601588979  0.39040535825784417  0.1233823100504025  1.0000
  C   C42       1.0  0.5192225375808023  0.3958586948398093  0.16716997140238024  1.0000
  C   C43       1.0  0.6673602066536404  0.3489470636619388  0.211866308701822  1.0000
  C   C44       1.0  0.6741915825271505  0.2984382280055797  0.21281675070222408  1.0000
  C   C45       1.0  0.546651151155487  0.293449906143934  0.1684208300782187  1.0000
  C   C46       1.0  0.6123699041789336  0.6071276623436291  0.014753223559253542  1.0000
  C   C47       1.0  0.5942902644918746  0.6565042220745241  0.9643004894979227  1.0000
  C   C48       1.0  0.4601580696806877  0.7046510800599394  0.9604719309936767  1.0000
  C   C49       1.0  0.32677622176340293  0.7010772135913683  0.008279749244806534  1.0000
  C   C50       1.0  0.33382348022954744  0.6513221269367193  0.058443044825785995  1.0000
  C   C51       1.0  0.48212464857281395  0.6036150320834962  0.06277373210795632  1.0000
  C   C52       1.0  0.35902024230491497  0.5446707225915333  0.27280586550100583  1.0000
  C   C53       1.0  0.35508338528858024  0.5464498007667801  0.3219013471488309  1.0000
  C   C54       1.0  0.503572381470967  0.5038098920051085  0.37077717107136  1.0000
  C   C55       1.0  0.6622566694947949  0.4606600617020932  0.36739679461005886  1.0000
  C   C56       1.0  0.6657957314604488  0.4587017947326616  0.3185565912282583  1.0000
  C   C57       1.0  0.5117139147941498  0.5008732196839816  0.27015236337878423  1.0000
  C   C58       1.0  0.498682560535201  0.8839454592303682  0.449183500466951  1.0000
  C   C59       1.0  0.4932812053975724  0.8829303986635538  0.5000533805929948  1.0000
  C   C60       1.0  0.48019946350523673  0.8329419873761169  0.5505218688219313  1.0000
  C   C61       1.0  0.4786557936253217  0.7829922405532131  0.549462991052266  1.0000
  C   C62       1.0  0.480187787200947  0.7825513110029619  0.49935543868507876  1.0000
  C   C63       1.0  0.48578057987746354  0.833408094672798  0.4495492710961173  1.0000
  C   C64       1.0  0.590740349188671  0.8754109833967193  0.6601648088736312  1.0000
  C   C65       1.0  0.6066672911222213  0.8761769571131028  0.6098831210329791  1.0000
  C   C66       1.0  0.4721713964121435  0.8326924095515338  0.6037820918016478  1.0000
  C   C67       1.0  0.32829061316369484  0.7879721087374136  0.6501732116366339  1.0000
  C   C68       1.0  0.323080432054546  0.7865978116962611  0.700788812455016  1.0000
  C   C69       1.0  0.4469998446258003  0.8306523480821754  0.7064229893081161  1.0000
  C   C70       1.0  0.3945336147219293  0.9860802609126722  0.39256847043089493  1.0000
  C   C71       1.0  0.41862175496786597  0.0365915577061316  0.34356767546197625  1.0000
  C   C72       1.0  0.5508969518082835  0.03976927479407519  0.2959463936106914  1.0000
  C   C73       1.0  0.6753877041047858  0.9910071747062544  0.2997075110482681  1.0000
  C   C74       1.0  0.6632975712874156  0.940693576743186  0.3492383263620622  1.0000
  C   C75       1.0  0.5172735811711319  0.9371601070698717  0.3963856140460534  1.0000
  C   C76       1.0  0.6324941399116852  0.7272003828648367  0.4550214782845145  1.0000
  C   C77       1.0  0.6394955561588134  0.6782939515982491  0.45280645025351846  1.0000
  C   C78       1.0  0.49692935087042395  0.6293944877204892  0.49496079730806025  1.0000
  C   C79       1.0  0.3415142598794533  0.632539930308127  0.5381822002172  1.0000
  C   C80       1.0  0.3343915195804428  0.6812401205197889  0.5405089684275948  1.0000
  C   C81       1.0  0.48185464343810486  0.7297297569148499  0.498712333307928  1.0000
  Br  Br1       1.0  0.13877050163314664  0.012786263173531235  0.7224486436156283  1.0000
  Br  Br2       1.0  0.2528455842982851  0.05601428476256132  0.0998128732830637  1.0000
  Br  Br3       1.0  0.8544754604157775  0.4284842374159511  0.6845896033024275  1.0000
  Br  Br4       1.0  0.8561205277798507  0.23576312602808971  0.27648368594216066  1.0000
  Br  Br5       1.0  0.7512090199229392  0.6567339983820092  0.9003498007046672  1.0000
  Br  Br6       1.0  0.1581847552639601  0.6108641843089941  0.316768166774743  1.0000
  Br  Br7       1.0  0.14786060064754028  0.7227414043696359  0.7627935330653057  1.0000
  Br  Br8       1.0  0.2702149204522756  0.10148183505096141  0.3431320559516564  1.0000
  Br  Br9       1.0  0.8324485322083105  0.6838380430209199  0.3884347517266846  1.0000
  O   O1        1.0  0.7336604570955743  0.47305700229041747  0.46045756818853784  1.0000
  O   O2        1.0  0.7370306913591805  0.5644698411838363  0.47397006980945366  1.0000
  O   O3        1.0  0.746022226792242  0.46072260304079304  0.5654015478914615  1.0000
  O   O4        1.0  0.26132865295348756  0.5239343091512937  0.4356180494050363  1.0000
  O   O5        1.0  0.2707591206838771  0.43345269518316343  0.541697150635045  1.0000
  O   O6        1.0  0.27189314837900713  0.540353423843122  0.5248157330247807  1.0000
  O   O7        1.0  0.6717390926205482  0.8058727377793745  0.7949977400120217  1.0000
  O   O8        1.0  0.6751232448740935  0.8979138872559814  0.806137606403098  1.0000
  O   O9        1.0  0.6875054951702495  0.7932042955246246  0.8997005999626989  1.0000
  O   O10       1.0  0.1973803918472186  0.8563101108041026  0.7669590809764486  1.0000
  O   O11       1.0  0.2105849676445999  0.7682424504280477  0.8741293559248573  1.0000
  O   O12       1.0  0.2080863717299337  0.8753866423332753  0.8564892023146624  1.0000
  O   O13       1.0  0.7950957533711928  0.12598404550498546  0.23241260485506388  1.0000
  O   O14       1.0  0.7833982594466777  0.1409927859401137  0.12749647220825014  1.0000
  O   O15       1.0  0.7906792136574765  0.23278273975326166  0.14183713620311517  1.0000
  O   O16       1.0  0.3181136158307112  0.10040063263353717  0.20744089454738196  1.0000
  O   O17       1.0  0.3233079008131626  0.20569725373615472  0.19215570353284048  1.0000
  O   O18       1.0  0.3091292589475644  0.1915154408863131  0.10057443491663778  1.0000
