data_image0
_chemical_formula_structural       Zn20H124C144N36O52
_chemical_formula_sum              "Zn20 H124 C144 N36 O52"
_cell_length_a       15.460683210001784
_cell_length_b       19.380440092012165
_cell_length_c       25.27230066501315
_cell_angle_alpha    89.99988341007686
_cell_angle_beta     90.000008082671
_cell_angle_gamma    89.99994584390302

_space_group_name_H-M_alt    "P 1"
_space_group_IT_number       1

loop_
  _space_group_symop_operation_xyz
  'x, y, z'

loop_
  _atom_site_type_symbol
  _atom_site_label
  _atom_site_symmetry_multiplicity
  _atom_site_fract_x
  _atom_site_fract_y
  _atom_site_fract_z
  _atom_site_occupancy
  Zn  Zn1       1.0  0.9525691522147637  0.1594088258825082  0.7697976599511378  1.0000
  Zn  Zn2       1.0  0.5474294182522215  0.8405918008568419  0.2697967283972034  1.0000
  Zn  Zn3       1.0  0.4525678511712312  0.3405912280823599  0.7302023679209027  1.0000
  Zn  Zn4       1.0  0.047430271134317095  0.6594078188705621  0.23020369742916807  1.0000
  Zn  Zn5       1.0  0.04742951757197739  0.8405920429305024  0.2302035561226105  1.0000
  Zn  Zn6       1.0  0.45256860473291727  0.15940803599125525  0.7302021135365279  1.0000
  Zn  Zn7       1.0  0.5474295250126033  0.6594075767971503  0.2697968697037325  1.0000
  Zn  Zn8       1.0  0.9525683986533833  0.3405915019894579  0.7697979143359175  1.0000
  Zn  Zn9       1.0  0.9751225375361868  0.0347339250959777  0.5474369183566451  1.0000
  Zn  Zn10      1.0  0.5248785696857537  0.9652657439784561  0.047434603286348  1.0000
  Zn  Zn11      1.0  0.475121140020228  0.46526559578688864  0.9525635071835409  1.0000
  Zn  Zn12      1.0  0.0248809135488273  0.5347359567820148  0.4525646334906952  1.0000
  Zn  Zn13      1.0  0.0248787194590392  0.9652659117466977  0.4525650890982931  1.0000
  Zn  Zn14      1.0  0.47512139370513035  0.03473409286995379  0.9525634472672023  1.0000
  Zn  Zn15      1.0  0.5248781765681443  0.5347352730295541  0.047434939059307596  1.0000
  Zn  Zn16      1.0  0.9751216370486374  0.4652664599825086  0.5474361868918861  1.0000
  Zn  Zn17      1.0  0.8229706777431358  0.24999979773734538  0.6939588214318774  1.0000
  Zn  Zn18      1.0  0.6770278755169626  0.749999482373802  0.19395804254757107  1.0000
  Zn  Zn19      1.0  0.32297079427051045  0.24999983848883997  0.8060415907668526  1.0000
  Zn  Zn20      1.0  0.17702734524191743  0.750000555092285  0.3060419989521108  1.0000
  H   H1        1.0  0.8381142630531925  0.24999965946143018  0.7938112270451396  1.0000
  H   H2        1.0  0.6618830192588873  0.750000387546791  0.29381044683209717  1.0000
  H   H3        1.0  0.3381130633204918  0.2499994493009864  0.7061891864818148  1.0000
  H   H4        1.0  0.1618831131298748  0.7500006933689676  0.20618919764869048  1.0000
  H   H5        1.0  0.10272965876443149  0.05198498465274067  0.6750350636982816  1.0000
  H   H6        1.0  0.3972697446272946  0.9480142087519496  0.1750339952603142  1.0000
  H   H7        1.0  0.6027286918053105  0.44801430255037633  0.8249657248789859  1.0000
  H   H8        1.0  0.8972705379817754  0.5519856617507413  0.3249668569317166  1.0000
  H   H9        1.0  0.8972696578252127  0.9480143362070378  0.3249665480668326  1.0000
  H   H10       1.0  0.6027302187640302  0.05198511211072799  0.8249652423640369  1.0000
  H   H11       1.0  0.39727127158610637  0.5519850183112565  0.1750343041256244  1.0000
  H   H12       1.0  0.1027294254092581  0.4480146910765723  0.6750351505227599  1.0000
  H   H13       1.0  0.0319838511052666  0.9839354915821017  0.6575978523825297  1.0000
  H   H14       1.0  0.4680155483296033  0.016064264096868893  0.15759626536299007  1.0000
  H   H15       1.0  0.5319827503427064  0.5160638445052611  0.8424029414663677  1.0000
  H   H16       1.0  0.9680164834008874  0.4839360735062499  0.3424041858668758  1.0000
  H   H17       1.0  0.9680148186818227  0.0160648612462282  0.342403759381753  1.0000
  H   H18       1.0  0.5319844150611174  0.9839360887341184  0.842402972260558  1.0000
  H   H19       1.0  0.4680159194453707  0.4839344443890708  0.1575966918488589  1.0000
  H   H20       1.0  0.031982833188457994  0.5160637633376766  0.6575974258978405  1.0000
  H   H21       1.0  0.02876788091303689  0.019234402370315692  0.7232867278316206  1.0000
  H   H22       1.0  0.4712321802294354  0.9807636309763549  0.22328482341494996  1.0000
  H   H23       1.0  0.5287675112116332  0.48076545688596883  0.7767140542598979  1.0000
  H   H24       1.0  0.9712330012301961  0.51923618345711  0.27671563957238016  1.0000
  H   H25       1.0  0.9712314356766496  0.9807649184889297  0.27671527962363024  1.0000
  H   H26       1.0  0.5287684299637903  0.0192356898866066  0.7767140185192928  1.0000
  H   H27       1.0  0.4712330989810738  0.5192348959442511  0.22328557905380814  1.0000
  H   H28       1.0  0.028766315359142397  0.48076365338681626  0.723285972192336  1.0000
  H   H29       1.0  0.7696651637687705  0.19233202482727302  0.585488328034053  1.0000
  H   H30       1.0  0.730334658482505  0.8076685752035215  0.08548588111153778  1.0000
  H   H31       1.0  0.26966588375059797  0.3076666198393808  0.914512870871654  1.0000
  H   H32       1.0  0.23033422078113114  0.692331421850987  0.4145145607525151  1.0000
  H   H33       1.0  0.2303341528203546  0.8076683279997637  0.41451407511052457  1.0000
  H   H34       1.0  0.2696653049082158  0.19233177762747283  0.9145133565120103  1.0000
  H   H35       1.0  0.7303334328398633  0.6923306370884957  0.0854851796838787  1.0000
  H   H36       1.0  0.7696676830163796  0.30766738302627766  0.5854850725624557  1.0000
  H   H37       1.0  0.7953438907788098  0.11307534523004388  0.552141605051851  1.0000
  H   H38       1.0  0.7046559239059249  0.8869258593068775  0.052140219322218684  1.0000
  H   H39       1.0  0.29534452492508484  0.3869232799700057  0.9478595961055092  1.0000
  H   H40       1.0  0.20465494037129153  0.6130741572139512  0.4478606159802893  1.0000
  H   H41       1.0  0.2046560726118756  0.8869255235819509  0.44786000671209075  1.0000
  H   H42       1.0  0.29534468628678207  0.1130744935233423  0.9478594139914873  1.0000
  H   H43       1.0  0.7046547916655116  0.6130739769563004  0.05213964152041939  1.0000
  H   H44       1.0  0.7953476102285606  0.3869241316778655  0.5521398087153742  1.0000
  H   H45       1.0  0.8601339975708768  0.18602362704062606  0.5412026972852857  1.0000
  H   H46       1.0  0.6398658146319959  0.8139770905523847  0.0412002325900147  1.0000
  H   H47       1.0  0.36013536696899706  0.31397443305917244  0.9587981138635228  1.0000
  H   H48       1.0  0.1398653944130288  0.6860234910692569  0.4588002013408213  1.0000
  H   H49       1.0  0.13986531901790036  0.8139772417710843  0.4587993101687573  1.0000
  H   H50       1.0  0.3601354423622638  0.18602377826279334  0.9587986093430487  1.0000
  H   H51       1.0  0.6398639496218052  0.6860223078840306  0.041200332382544495  1.0000
  H   H52       1.0  0.8601378029884186  0.3139753138069921  0.5411998276643359  1.0000
  H   H53       1.0  0.0357008378793466  0.13850721804462296  0.3458295081809978  1.0000
  H   H54       1.0  0.46429601705583673  0.8614941018899526  0.8458245973622454  1.0000
  H   H55       1.0  0.535697993725023  0.36149293130665666  0.1541709051413633  1.0000
  H   H56       1.0  0.9642973164996886  0.6385038744992426  0.6541762343950809  1.0000
  H   H57       1.0  0.9642978319077498  0.8614936507641883  0.6541748734138082  1.0000
  H   H58       1.0  0.5357000655234927  0.1385052189778762  0.15417187043100708  1.0000
  H   H59       1.0  0.4642993824590178  0.6385048416092686  0.8458247712728876  1.0000
  H   H60       1.0  0.035697472476463994  0.3614954463606707  0.3458265644402303  1.0000
  H   H61       1.0  0.04809995991762859  0.25000010290982294  0.2965798494227698  1.0000
  H   H62       1.0  0.4518968838439861  0.7499997998093162  0.7965770898763436  1.0000
  H   H63       1.0  0.5480998455372441  0.24999952105879691  0.2034189822268004  1.0000
  H   H64       1.0  0.9518980630683058  0.7499992179483428  0.7034233451028199  1.0000
  H   H65       1.0  0.9943498857145343  0.25000413060469373  0.49057568357155645  1.0000
  H   H66       1.0  0.5056487348438309  0.7500005539109508  0.990571697827967  1.0000
  H   H67       1.0  0.4943492881409454  0.24999928294134574  0.009423978584706599  1.0000
  H   H68       1.0  0.005646843666070799  0.7499977701736851  0.5094283023322318  1.0000
  H   H69       1.0  0.9928740745292685  0.0051995474714629985  0.9014177735377727  1.0000
  H   H70       1.0  0.5071303470210751  0.9947986659249252  0.4014173892948491  1.0000
  H   H71       1.0  0.49287320869255064  0.4947994439693557  0.5985830492495267  1.0000
  H   H72       1.0  0.007128117756238298  0.505203048291925  0.09858184592573586  1.0000
  H   H73       1.0  0.007129769675472598  0.9947966774858652  0.09858067270889849  1.0000
  H   H74       1.0  0.49287349718353807  0.005198075014462199  0.5985826397119496  1.0000
  H   H75       1.0  0.5071280483043665  0.5051972969699605  0.4014177711374244  1.0000
  H   H76       1.0  0.9928731392354635  0.49480246437854436  0.9014185787642431  1.0000
  H   H77       1.0  0.9525234389149588  0.9426518485695753  0.9844482623690708  1.0000
  H   H78       1.0  0.5474797078711615  0.0573461444107366  0.4844485525320863  1.0000
  H   H79       1.0  0.45252695057614284  0.5573471687127449  0.5155517769749949  1.0000
  H   H80       1.0  0.04747694424167289  0.4426539960116643  0.015551466132976097  1.0000
  H   H81       1.0  0.04747975848697189  0.05734592433994119  0.015550579566493599  1.0000
  H   H82       1.0  0.4525228427295999  0.9426505965286153  0.5155518721647852  1.0000
  H   H83       1.0  0.5474814212408815  0.4426516361615496  0.48444825203038977  1.0000
  H   H84       1.0  0.9525223723466638  0.5573473887857787  0.9844493542502659  1.0000
  H   H85       1.0  0.8006451734611417  0.9484368559285129  0.0175358863958976  1.0000
  H   H86       1.0  0.6993578673836183  0.051560828581443695  0.517536172586709  1.0000
  H   H87       1.0  0.3006487978803206  0.5515636038099528  0.48246258318248175  1.0000
  H   H88       1.0  0.1993558496809342  0.44843735340250374  0.9824638330839548  1.0000
  H   H89       1.0  0.19935931754385897  0.05156246493192638  0.9824637469187817  1.0000
  H   H90       1.0  0.3006453300187032  0.948436428342866  0.4824634607295265  1.0000
  H   H91       1.0  0.699358280331161  0.4484377809871771  0.5175362587504394  1.0000
  H   H92       1.0  0.8006447605125188  0.5515619674578289  0.0175369873009572  1.0000
  H   H93       1.0  0.7297918678156847  0.07397158574603678  0.8845003724408399  1.0000
  H   H94       1.0  0.770211256292228  0.9260266725601977  0.3845001185375238  1.0000
  H   H95       1.0  0.22978979325804258  0.4260296690729105  0.6154984488256261  1.0000
  H   H96       1.0  0.2702095966229123  0.5739732942665299  0.11549913975267857  1.0000
  H   H97       1.0  0.27021003598261467  0.9260261871608148  0.11550084363546625  1.0000
  H   H98       1.0  0.2297912943074465  0.07397161633371499  0.6154987233976144  1.0000
  H   H99       1.0  0.7702088765275192  0.5739727476957198  0.3845003931061227  1.0000
  H   H100      1.0  0.7297916603708287  0.42602860651590646  0.8845004935598483  1.0000
  H   H101      1.0  0.7209545750410484  0.10995754988690722  0.7384396410493677  1.0000
  H   H102      1.0  0.7790426947083445  0.8900410961578658  0.23844063112206723  1.0000
  H   H103      1.0  0.22095386963817984  0.3900416476911557  0.7615615535846557  1.0000
  H   H104      1.0  0.27904296617774077  0.609958863970007  0.261561002083404  1.0000
  H   H105      1.0  0.2790428011423174  0.8900422869593283  0.2615607836448604  1.0000
  H   H106      1.0  0.22095532827719205  0.10995874068549938  0.7615617720228512  1.0000
  H   H107      1.0  0.7790428597433702  0.609958189153751  0.2384400581799397  1.0000
  H   H108      1.0  0.7209544100056318  0.39004097287622835  0.7384394226108313  1.0000
  H   H109      1.0  0.6177405184219323  0.0863477378274951  0.7114769336154793  1.0000
  H   H110      1.0  0.8822567452093251  0.9136514957776283  0.2114778959112016  1.0000
  H   H111      1.0  0.1177391445113685  0.4136515379952285  0.7885246476582777  1.0000
  H   H112      1.0  0.3822583442243752  0.5863489020889714  0.2885237463443033  1.0000
  H   H113      1.0  0.3822581513653275  0.9136520990182576  0.2885234910788128  1.0000
  H   H114      1.0  0.11774063097391257  0.08634885705066608  0.788524111543154  1.0000
  H   H115      1.0  0.8822582316721749  0.586348298848911  0.21147735979648266  1.0000
  H   H116      1.0  0.6177396787608984  0.4136509347575484  0.7114762826598234  1.0000
  H   H117      1.0  0.7037632180993824  0.11013359933806299  0.6688721708841852  1.0000
  H   H118      1.0  0.796235329468814  0.8898657473661158  0.168873558428551  1.0000
  H   H119      1.0  0.20376317549055759  0.3898656112733007  0.831128230862177  1.0000
  H   H120      1.0  0.29623626331749614  0.6101352316968798  0.3311276805935535  1.0000
  H   H121      1.0  0.2962360984903896  0.8898652055396563  0.3311278581208015  1.0000
  H   H122      1.0  0.20376269351638135  0.1101346054619299  0.831128449025833  1.0000
  H   H123      1.0  0.7962354942964395  0.6101347415560807  0.16887258952184675  1.0000
  H   H124      1.0  0.7037630532710111  0.38986563711798533  0.6688719527196909  1.0000
  C   C1        1.0  0.0373166503874316  0.031249146071601803  0.6811734180286634  1.0000
  C   C2        1.0  0.4626827543970363  0.9687500310385527  0.1811719272923327  1.0000
  C   C3        1.0  0.5373156575985191  0.4687507067047605  0.8188269691222985  1.0000
  C   C4        1.0  0.962683570795427  0.5312497898760924  0.3188285349453395  1.0000
  C   C5        1.0  0.9626826662019069  0.9687506907723245  0.3188281937360458  1.0000
  C   C6        1.0  0.5373172089939828  0.031249805808279494  0.8188273103316135  1.0000
  C   C7        1.0  0.4626836589905991  0.5312491301417949  0.18117266419175587  1.0000
  C   C8        1.0  0.03731639259586219  0.46875004696759237  0.6811730768194052  1.0000
  C   C9        1.0  0.9709176636271406  0.08162744445538549  0.6636024036436794  1.0000
  C   C10       1.0  0.5290815295469216  0.9183719162421583  0.16360055777738575  1.0000
  C   C11       1.0  0.470916941818153  0.4183720796148691  0.8363980215278204  1.0000
  C   C12       1.0  0.0290824981861917  0.581628233378602  0.33639986643974135  1.0000
  C   C13       1.0  0.029082299763537392  0.9183734243566091  0.3363992081202554  1.0000
  C   C14       1.0  0.47091843384405496  0.08162792060520728  0.8363982841564236  1.0000
  C   C15       1.0  0.5290830215737755  0.5816262092794986  0.16360121609733363  1.0000
  C   C16       1.0  0.9709181120073465  0.41837108748067897  0.6636017453254368  1.0000
  C   C17       1.0  0.8782309064606932  0.1372666301228449  0.6160313013811063  1.0000
  C   C18       1.0  0.6217689227214649  0.8627328568582513  0.11602955042855709  1.0000
  C   C19       1.0  0.3782309078172971  0.36273193224317163  0.8839691156639515  1.0000
  C   C20       1.0  0.12176918978346409  0.6372672224979397  0.38397088191587864  1.0000
  C   C21       1.0  0.12176905693029028  0.8627337227049948  0.38397031038323337  1.0000
  C   C22       1.0  0.3782310406692062  0.13726749597326193  0.8839692915048545  1.0000
  C   C23       1.0  0.6217697023768877  0.6372658406667995  0.11603012196163578  1.0000
  C   C24       1.0  0.8782327140144871  0.36273106639359287  0.616029938469893  1.0000
  C   C25       1.0  0.8221259941350352  0.15898861144125928  0.5715018972234914  1.0000
  C   C26       1.0  0.6778738249430701  0.8410115097337965  0.0714997893820524  1.0000
  C   C27       1.0  0.322127324797961  0.34100999345596944  0.9284989105921608  1.0000
  C   C28       1.0  0.17787342970849804  0.6589890430750954  0.4285002521914122  1.0000
  C   C29       1.0  0.1778733224536992  0.841012257370977  0.42849971454041474  1.0000
  C   C30       1.0  0.32212743205149497  0.15898884309722655  0.9284990525514158  1.0000
  C   C31       1.0  0.6778726385945362  0.6589872634706209  0.0714999313436664  1.0000
  C   C32       1.0  0.8221297676926081  0.3410102777858341  0.5714993811232104  1.0000
  C   C33       1.0  0.00653914822297  0.11969276041398298  0.45013660603744643  1.0000
  C   C34       1.0  0.49346290479395793  0.8803103465563921  0.9501328554979833  1.0000
  C   C35       1.0  0.5065375518314141  0.38031050694718965  0.04986499179589289  1.0000
  C   C36       1.0  0.9934596751280083  0.6196922515872599  0.5498632305314501  1.0000
  C   C37       1.0  0.9934614619695309  0.8803086243798149  0.549866588486644  1.0000
  C   C38       1.0  0.5065383522007777  0.11968949029205324  0.049864799365494185  1.0000
  C   C39       1.0  0.49346241155878084  0.619690877851063  0.9501350372071116  1.0000
  C   C40       1.0  0.0065422286634487  0.3803158410116224  0.4501312588045535  1.0000
  C   C41       1.0  0.0133492828423769  0.18720209931664294  0.4210477892807844  1.0000
  C   C42       1.0  0.48664952956449514  0.8128010848760707  0.9210433520654815  1.0000
  C   C43       1.0  0.5133464790052926  0.3128006468992268  0.07895301776978408  1.0000
  C   C44       1.0  0.986648814151806  0.6871973905521924  0.578957481651436  1.0000
  C   C45       1.0  0.9866493869442081  0.8127998014594267  0.5789573836934849  1.0000
  C   C46       1.0  0.5133478466181174  0.18719926795957056  0.0789531157270247  1.0000
  C   C47       1.0  0.4866502503759876  0.6871986739683534  0.9210434500234895  1.0000
  C   C48       1.0  0.013347915228926898  0.3128039942441276  0.4210449214922248  1.0000
  C   C49       1.0  0.0288938675666941  0.1876412685459029  0.3663467943156886  1.0000
  C   C50       1.0  0.4711049324292843  0.8123610288881266  0.866343543493464  1.0000
  C   C51       1.0  0.5288923702628665  0.3123609499017448  0.1336536184082462  1.0000
  C   C52       1.0  0.9711048757107861  0.6876379743097302  0.6336561017896472  1.0000
  C   C53       1.0  0.9711048022196633  0.8123606322327955  0.6336564002079185  1.0000
  C   C54       1.0  0.528893090555627  0.18763880796259258  0.1336533199895982  1.0000
  C   C55       1.0  0.4711062995240809  0.6876388869476812  0.8663440364551107  1.0000
  C   C56       1.0  0.028892500471059193  0.31236444245728007  0.36634432290257724  1.0000
  C   C57       1.0  0.03611149065903869  0.2500021149088169  0.3391331571303908  1.0000
  C   C58       1.0  0.46388665636062837  0.7499997387824064  0.8391307943269763  1.0000
  C   C59       1.0  0.5361113666242829  0.25000009806831963  0.1608660691560928  1.0000
  C   C60       1.0  0.9638865323262421  0.7499982379181843  0.6608696417042663  1.0000
  C   C61       1.0  0.0053353727764076  0.2500040459735259  0.44802747594771825  1.0000
  C   C62       1.0  0.4946640925536696  0.7500000985637952  0.948024720154059  1.0000
  C   C63       1.0  0.5053339304308437  0.25000025427213757  0.0519713519483389  1.0000
  C   C64       1.0  0.994662650207651  0.7499983707900879  0.5519753228853261  1.0000
  C   C65       1.0  0.8876341695850626  0.08473965759463908  0.8405384058562929  1.0000
  C   C66       1.0  0.6123682977450782  0.9152602653667752  0.340538550597536  1.0000
  C   C67       1.0  0.38763276449378026  0.41526250953253896  0.6594620120104152  1.0000
  C   C68       1.0  0.11236663536205067  0.5847408530854421  0.15946148523158138  1.0000
  C   C69       1.0  0.1123664406085112  0.9152591472836417  0.15946083176849155  1.0000
  C   C70       1.0  0.3876336060521339  0.08473905549464429  0.65946108271703  1.0000
  C   C71       1.0  0.6123678456980598  0.5847393912496202  0.3405380169922195  1.0000
  C   C72       1.0  0.8876339748291355  0.4152620796655454  0.8405381480801138  1.0000
  C   C73       1.0  0.8638849253187145  0.0436363056628508  0.8881265063531527  1.0000
  C   C74       1.0  0.6361188464127776  0.9563640069527248  0.38812698475329194  1.0000
  C   C75       1.0  0.3638847545946362  0.45636536348519735  0.6118727223611486  1.0000
  C   C76       1.0  0.13611463446321176  0.5436381254649091  0.11187226177722209  1.0000
  C   C77       1.0  0.1361163316773286  0.9563614672479229  0.11187193989219679  1.0000
  C   C78       1.0  0.3638843509880659  0.04363582989183359  0.6118730442510625  1.0000
  C   C79       1.0  0.6361152087964256  0.5436344733611093  0.3881269109529342  1.0000
  C   C80       1.0  0.8638846821237319  0.45636532327125684  0.8881269758438817  1.0000
  C   C81       1.0  0.9266422031089333  0.006101493368824198  0.9161164712844395  1.0000
  C   C82       1.0  0.5733609281722991  0.9938971969930459  0.4161156985653561  1.0000
  C   C83       1.0  0.4266432754051407  0.4938985802499473  0.5838835543142976  1.0000
  C   C84       1.0  0.07335804770821139  0.5061044670151843  0.08388393815279467  1.0000
  C   C85       1.0  0.07336034749143748  0.9938957635557271  0.08388316203176768  1.0000
  C   C86       1.0  0.4266422692296246  0.006100575916470099  0.5838831433702083  1.0000
  C   C87       1.0  0.5733599219959585  0.5061007406109822  0.41611607900033215  1.0000
  C   C88       1.0  0.9266419156802498  0.4939000136869466  0.9161168822280601  1.0000
  C   C89       1.0  0.9037513186660956  0.9714092412156105  0.9624027577578005  1.0000
  C   C90       1.0  0.5962505295138811  0.02858881028948449  0.4624019099829794  1.0000
  C   C91       1.0  0.4037529288129704  0.5285903290254764  0.5375968816190451  1.0000
  C   C92       1.0  0.09624838379887278  0.47141129316135255  0.037597321578346096  1.0000
  C   C93       1.0  0.09625058513167768  0.028589047678025295  0.037596479867438894  1.0000
  C   C94       1.0  0.40375072748220475  0.9714089626207707  0.5375969319524998  1.0000
  C   C95       1.0  0.596251562192073  0.4714089918344369  0.4624031473857712  1.0000
  C   C96       1.0  0.903750285987172  0.5285906076210124  0.9624031031143332  1.0000
  C   C97       1.0  0.8187259692109591  0.974166152287111  0.9808577396621274  1.0000
  C   C98       1.0  0.6812765299578346  0.025832882194251297  0.48085729933239907  1.0000
  C   C99       1.0  0.3187282252202408  0.5258350303641278  0.5191407051876523  1.0000
  C   C100      1.0  0.18127437680806213  0.4741666408134789  0.0191435224454111  1.0000
  C   C101      1.0  0.18127658138833166  0.025833168572489695  0.0191430807228699  1.0000
  C   C102      1.0  0.31872537383928545  0.9741664386682126  0.5191415426019005  1.0000
  C   C103      1.0  0.6812769125846572  0.47416738640362127  0.480856949673985  1.0000
  C   C104      1.0  0.8187249397813685  0.5258331960294029  0.9808588806995713  1.0000
  C   C105      1.0  0.755148489795772  0.010272725879460197  0.9525808889876615  1.0000
  C   C106      1.0  0.7448552965601392  0.9897279316169187  0.45258172057134516  1.0000
  C   C107      1.0  0.2551502055342141  0.48973005766754324  0.5474183301913058  1.0000
  C   C108      1.0  0.24485175610804782  0.5102715384467443  0.0474187225662206  1.0000
  C   C109      1.0  0.2448540608030783  0.9897271109658726  0.04741874432653499  1.0000
  C   C110      1.0  0.2551485476426052  0.010271905227916999  0.5474179127429011  1.0000
  C   C111      1.0  0.744853638667571  0.5102713271302901  0.45258090743160295  1.0000
  C   C112      1.0  0.7551482072833196  0.48972778241541437  0.9525809107482599  1.0000
  C   C113      1.0  0.7783997004933026  0.04495258955714829  0.906273642437739  1.0000
  C   C114      1.0  0.7216040753562396  0.9550466429176511  0.4062729433172478  1.0000
  C   C115      1.0  0.27840017400439615  0.4550496603808438  0.5937247874000988  1.0000
  C   C116      1.0  0.22160050453990007  0.544953876741239  0.0937271020905897  1.0000
  C   C117      1.0  0.22160349690849293  0.9550456993344194  0.0937267822579528  1.0000
  C   C118      1.0  0.2783997688469739  0.044952161960452486  0.5937255029274127  1.0000
  C   C119      1.0  0.7216010829884212  0.5449532723735826  0.40627207608068966  1.0000
  C   C120      1.0  0.7784001056520322  0.4550480240398683  0.9062737182923113  1.0000
  C   C121      1.0  0.6626972083541885  0.011044132790658499  0.970996303101664  1.0000
  C   C122      1.0  0.8373065821821226  0.9889528639325176  0.47099556123750813  1.0000
  C   C123      1.0  0.1627008612272931  0.4889607847848936  0.5289977639974168  1.0000
  C   C124      1.0  0.3373049770444679  0.5110470520250486  0.029007659837311895  1.0000
  C   C125      1.0  0.3373066358503464  0.9889531241302618  0.029005704355398593  1.0000
  C   C126      1.0  0.1626979088244767  0.011043361025620898  0.5290020936289253  1.0000
  C   C127      1.0  0.837309450986538  0.5110509197093335  0.4709896029137467  1.0000
  C   C128      1.0  0.662697573553146  0.4889558807183859  0.9709971174461953  1.0000
  C   C129      1.0  0.6732445130158949  0.12095168378350248  0.7072287797980435  1.0000
  C   C130      1.0  0.8267527496514686  0.879047561098858  0.20722979120249357  1.0000
  C   C131      1.0  0.173244474452666  0.3790480659461791  0.7927728063422633  1.0000
  C   C132      1.0  0.32675366204866657  0.6209528788441716  0.29277224187621437  1.0000
  C   C133      1.0  0.3267535099694214  0.8790481530624913  0.292771644896213  1.0000
  C   C134      1.0  0.17324527333406783  0.12095227574450718  0.7927726119424248  1.0000
  C   C135      1.0  0.8267535485325224  0.6209522868818664  0.20722920111212767  1.0000
  C   C136      1.0  0.6732443609366925  0.3790469580012965  0.7072285785081787  1.0000
  C   C137      1.0  0.644568506001967  0.19395209722132017  0.7100017180563256  1.0000
  C   C138      1.0  0.8554287572946747  0.8060471402986946  0.21000363722231438  1.0000
  C   C139      1.0  0.14456855283849274  0.30604767424820517  0.7899990741892465  1.0000
  C   C140      1.0  0.35542893623173194  0.693952761922688  0.2899976069909727  1.0000
  C   C141      1.0  0.35542887018122116  0.8060477396270184  0.28999712387737725  1.0000
  C   C142      1.0  0.14456926569086184  0.1939526965446774  0.7899987659226041  1.0000
  C   C143      1.0  0.8554288233447522  0.6939526785800894  0.21000293326510897  1.0000
  C   C144      1.0  0.6445690867537478  0.3060465589407286  0.7100016306332932  1.0000
  N   N1        1.0  0.9359088364886219  0.12997100393656774  0.6946557303178762  1.0000
  N   N2        1.0  0.5640897169291463  0.8700287903105348  0.1946535672376228  1.0000
  N   N3        1.0  0.4359088114069039  0.37002906265720964  0.805344691783489  1.0000
  N   N4        1.0  0.0640899747491446  0.6299718487565468  0.3053460686685199  1.0000
  N   N5        1.0  0.0640898332982047  0.8700298648753985  0.30534627713613816  1.0000
  N   N6        1.0  0.43590895285789333  0.12997104653783956  0.8053448790060074  1.0000
  N   N7        1.0  0.5640911519844138  0.6299702582054678  0.19465454584086214  1.0000
  N   N8        1.0  0.9359099886420521  0.37002798808818926  0.6946547517159588  1.0000
  N   N9        1.0  0.876904951338993  0.16544291334616187  0.664263136675167  1.0000
  N   N10       1.0  0.6230942419855765  0.8345554136294026  0.16426103409929735  1.0000
  N   N11       1.0  0.3769049749569645  0.3345556500239795  0.8357380716338837  1.0000
  N   N12       1.0  0.12309446489723538  0.6654451807067827  0.33573900267082013  1.0000
  N   N13       1.0  0.123095012052346  0.8345569234969972  0.3357388707797071  1.0000
  N   N14       1.0  0.37690507460375494  0.1654439072340494  0.8357378078348958  1.0000
  N   N15       1.0  0.6230956352366517  0.6654431548537757  0.16426156168103026  1.0000
  N   N16       1.0  0.8769061452958695  0.33455465613823065  0.6642614220235571  1.0000
  N   N17       1.0  0.9364114189589684  0.08504179012704328  0.6142998046422717  1.0000
  N   N18       1.0  0.5635877630283088  0.914957701451435  0.11429757143714878  1.0000
  N   N19       1.0  0.4364113591625908  0.41495724411743834  0.8857006175039711  1.0000
  N   N20       1.0  0.063588092028148  0.5850434539802976  0.38570206442457783  1.0000
  N   N21       1.0  0.06358789763011428  0.914958562700519  0.3857022028121761  1.0000
  N   N22       1.0  0.4364122003623122  0.08504265138060417  0.8857008748061331  1.0000
  N   N23       1.0  0.5635879574273941  0.5850410447771779  0.1142986201211542  1.0000
  N   N24       1.0  0.9364138117688866  0.4149563828637001  0.6142987559599858  1.0000
  N   N25       1.0  0.564106332844311  0.2144934436384034  0.7200090976507098  1.0000
  N   N26       1.0  0.9358909327233603  0.7855052513309386  0.22001145160317745  1.0000
  N   N27       1.0  0.06410640161782769  0.28550587284457407  0.7799912918497682  1.0000
  N   N28       1.0  0.43589173198358105  0.7144945898931211  0.27998979966550047  1.0000
  N   N29       1.0  0.4358916901411262  0.7855058772255387  0.27998974428342643  1.0000
  N   N30       1.0  0.0641070902621834  0.21449458551243336  0.7799909515417409  1.0000
  N   N31       1.0  0.93589097456546  0.7144944799832017  0.2200111112947241  1.0000
  N   N32       1.0  0.564106937803757  0.2855047309710982  0.7200086465785276  1.0000
  N   N33       1.0  0.696875345666754  0.24999931706025785  0.7033675358757207  1.0000
  N   N34       1.0  0.8031232097283691  0.7499999380720722  0.20336835080787097  1.0000
  N   N35       1.0  0.19687481325682646  0.2500004147559806  0.796633656646513  1.0000
  N   N36       1.0  0.30312332412072607  0.7500000038023912  0.2966320974387031  1.0000
  O   O1        1.0  0.9852759778069853  0.12158237478593747  0.4988096992987892  1.0000
  O   O2        1.0  0.5147291126384133  0.8784228038580931  0.9988019528259426  1.0000
  O   O3        1.0  0.48527781423160826  0.37842052965380896  0.0011899620623339  1.0000
  O   O4        1.0  0.014721549716753695  0.6215775772805685  0.5011988395088807  1.0000
  O   O5        1.0  0.014727866395048698  0.878420041970223  0.501197056435835  1.0000
  O   O6        1.0  0.4852760251662502  0.12157909693180362  0.0011909537545023  1.0000
  O   O7        1.0  0.5147286171787185  0.6215782752311937  0.9988025488304544  1.0000
  O   O8        1.0  0.9852745328622206  0.37842432349437866  0.49880791622580734  1.0000
  O   O9        1.0  0.022662656287749897  0.06515274829877168  0.4236622095817992  1.0000
  O   O10       1.0  0.47733162909785404  0.9348514609265238  0.9236556027243308  1.0000
  O   O11       1.0  0.5226558272142866  0.4348494748731043  0.076339389665911  1.0000
  O   O12       1.0  0.9773310569257063  0.5651465055828665  0.5763440431055499  1.0000
  O   O13       1.0  0.9773327794887973  0.9348496684626821  0.576342963391923  1.0000
  O   O14       1.0  0.5226618662722939  0.0651499238810089  0.0763392823066624  1.0000
  O   O15       1.0  0.47733184694069297  0.5651482980449244  0.9236574738183092  1.0000
  O   O16       1.0  0.0226663192591516  0.43485126732360135  0.4236587557310827  1.0000
  O   O17       1.0  0.6074383109634807  0.0388712197542347  0.9404450438422315  1.0000
  O   O18       1.0  0.8925615918310186  0.961123794127779  0.4404506812719261  1.0000
  O   O19       1.0  0.10743876955397269  0.4611311597910728  0.5595502054837169  1.0000
  O   O20       1.0  0.39255802042178084  0.5388765959293663  0.05955056619680479  1.0000
  O   O21       1.0  0.39256100562792534  0.9611239732401838  0.05955063257412259  1.0000
  O   O22       1.0  0.1074390183666054  0.03886881893591718  0.5595521175688773  1.0000
  O   O23       1.0  0.8925586066257338  0.5388743528845479  0.4404474493751636  1.0000
  O   O24       1.0  0.6074380621537613  0.4611289167498923  0.94044471452122  1.0000
  O   O25       1.0  0.6466532518234304  0.9828736995269902  0.0154719330556503  1.0000
  O   O26       1.0  0.8533472013416342  0.017130182272239794  0.5154726821493654  1.0000
  O   O27       1.0  0.14665821089559467  0.5171304888378286  0.48452731439736846  1.0000
  O   O28       1.0  0.3533483775415931  0.4828678829710211  0.9845293154747307  1.0000
  O   O29       1.0  0.3533473583668467  0.017130781176469205  0.9845277002548369  1.0000
  O   O30       1.0  0.14665534925521226  0.9828727504801192  0.48452536840188287  1.0000
  O   O31       1.0  0.8533514545235047  0.48287141194089855  0.5154727146056572  1.0000
  O   O32       1.0  0.646652879457498  0.5171252460786916  0.015471900605170699  1.0000
  O   O33       1.0  0.8314173546873886  0.12021568603644534  0.8160107314772345  1.0000
  O   O34       1.0  0.6685844602741824  0.8797863659748298  0.31601014510177083  1.0000
  O   O35       1.0  0.331415350166793  0.3797870396906048  0.6839908685300387  1.0000
  O   O36       1.0  0.16858340845354283  0.6202147098605832  0.18398989565671536  1.0000
  O   O37       1.0  0.16858260870212396  0.8797872467116432  0.18399127597522374  1.0000
  O   O38       1.0  0.3314167967201627  0.12021450283930324  0.6839894882115586  1.0000
  O   O39       1.0  0.6685820260156559  0.6202143451081027  0.31600955616298165  1.0000
  O   O40       1.0  0.8314159081343604  0.3797871909225916  0.8160097376557258  1.0000
  O   O41       1.0  0.9679792584455739  0.08557089734634359  0.8256719347604644  1.0000
  O   O42       1.0  0.5320232055119758  0.9144280331118254  0.32567207375399926  1.0000
  O   O43       1.0  0.46797785770765893  0.41443017690471606  0.6743280944620195  1.0000
  O   O44       1.0  0.032021545522198394  0.5855715982967877  0.1743275593410871  1.0000
  O   O45       1.0  0.032020058145363406  0.9144253276148079  0.1743249287254827  1.0000
  O   O46       1.0  0.46797934508804656  0.08556973979741399  0.6743271638716664  1.0000
  O   O47       1.0  0.5320208120792955  0.5855701759251913  0.3256723302318676  1.0000
  O   O48       1.0  0.9679790646695564  0.4144303024864229  0.8256716782812744  1.0000
  O   O49       1.0  0.8809959353184451  0.2500007126965328  0.7655431258549186  1.0000
  O   O50       1.0  0.6190013405793025  0.7499999253373486  0.2655423418829841  1.0000
  O   O51       1.0  0.3809953888020273  0.24999991151018713  0.7344572914309565  1.0000
  O   O52       1.0  0.11900208766630269  0.7500001561172451  0.23445769452867177  1.0000
