data_image0
_chemical_formula_structural       Zn2H14C32N2O16
_chemical_formula_sum              "Zn2 H14 C32 N2 O16"
_cell_length_a       12.75247524967004
_cell_length_b       13.858113549631
_cell_length_c       17.03142569893309
_cell_angle_alpha    89.35893486525752
_cell_angle_beta     84.94455581557915
_cell_angle_gamma    86.05596691755237

_space_group_name_H-M_alt    "P 1"
_space_group_IT_number       1

loop_
  _space_group_symop_operation_xyz
  'x, y, z'

loop_
  _atom_site_type_symbol
  _atom_site_label
  _atom_site_symmetry_multiplicity
  _atom_site_fract_x
  _atom_site_fract_y
  _atom_site_fract_z
  _atom_site_occupancy
  Zn  Zn1       1.0  0.3940286924513926  0.49041413265322115  0.5022803530878832  1.0000
  Zn  Zn2       1.0  0.6095772347373652  0.5099184530039337  0.4965806940456475  1.0000
  H   H1        1.0  0.591246841560064  0.6448774891140657  0.7212234536254982  1.0000
  H   H2        1.0  0.015506743141337188  0.42185551019903034  0.4311881718261006  1.0000
  H   H3        1.0  0.31912687609253243  0.8310622794722916  0.0893605135704405  1.0000
  H   H4        1.0  0.5777099983834686  0.8482161069352189  0.9102072961468011  1.0000
  H   H5        1.0  0.2684496091731603  0.14197681635011608  0.5550244183948791  1.0000
  H   H6        1.0  0.7298105974200835  0.8589205114275413  0.44570571314318397  1.0000
  H   H7        1.0  0.3678386720324126  0.6300637832498663  0.2785812734515432  1.0000
  H   H8        1.0  0.6795389184794869  0.4924261597790787  0.23445382422664102  1.0000
  H   H9        1.0  0.3273274339259799  0.4690426654816022  0.7637913952244304  1.0000
  H   H10       1.0  0.6021391483820153  0.6234442755459498  0.9868935915685597  1.0000
  H   H11       1.0  0.3622182840470173  0.6076560468222498  0.0123123883589287  1.0000
  H   H12       1.0  0.31114279445115045  0.5157796509681843  0.9056123717241107  1.0000
  H   H13       1.0  0.6799673007161147  0.5401554765515754  0.09282395069906361  1.0000
  H   H14       1.0  0.9894491054093706  0.573524260750382  0.5666627795620798  1.0000
  C   C1        1.0  0.46201100278592816  0.6874345614432115  0.49989842033972565  1.0000
  C   C2        1.0  0.966439115717854  0.5261075244865053  0.521279634866609  1.0000
  C   C3        1.0  0.8576858599393516  0.5265169662010151  0.5108401722200853  1.0000
  C   C4        1.0  0.14702084914874547  0.46970783718919046  0.48695460660758283  1.0000
  C   C5        1.0  0.47851005808126945  0.5186044029658702  0.6505461538636723  1.0000
  C   C6        1.0  0.5171693621565154  0.5208532370095325  0.3484460493227459  1.0000
  C   C7        1.0  0.463389428540509  0.5503677885082467  0.7345823934237004  1.0000
  C   C8        1.0  0.5216001596393055  0.5540980948138737  0.2644988873204496  1.0000
  C   C9        1.0  0.5301305788206604  0.616138478103629  0.7618999035709706  1.0000
  C   C10       1.0  0.4361565111224976  0.6098716065428036  0.23763218729151706  1.0000
  C   C11       1.0  0.5171735230914222  0.6481529054111944  0.8398013413771253  1.0000
  C   C12       1.0  0.5416535482377469  0.3145014424326219  0.500579433432776  1.0000
  C   C13       1.0  0.43873871599281233  0.643156973829072  0.1598315329428743  1.0000
  C   C14       1.0  0.4411831689596609  0.6079821745071926  0.8941908175860578  1.0000
  C   C15       1.0  0.5249816644567957  0.6137086776248849  0.1050448332751159  1.0000
  C   C16       1.0  0.37146617312894387  0.5454898768424385  0.8645922058099343  1.0000
  C   C17       1.0  0.6122803140611522  0.5615025098871838  0.1342070711327921  1.0000
  C   C18       1.0  0.3811495504629433  0.5178738305301777  0.7859837546094611  1.0000
  C   C19       1.0  0.611720059087851  0.5331543202316951  0.21272724625218592  1.0000
  C   C20       1.0  0.4383508033342309  0.6178992931964516  0.9795071871334714  1.0000
  C   C21       1.0  0.5244676193140805  0.6236298928323263  0.019747424099705292  1.0000
  C   C22       1.0  0.349565904095293  0.7124663428377147  0.1409545094966376  1.0000
  C   C23       1.0  0.5551688050519771  0.2101278663561104  0.5017591947446647  1.0000
  C   C24       1.0  0.5839855078956262  0.7272636728233408  0.859392202674549  1.0000
  C   C25       1.0  0.3506507682822288  0.04171173438894019  0.500186596650309  1.0000
  C   C26       1.0  0.6491315711496457  0.958936652576092  0.5024960247138495  1.0000
  C   C27       1.0  0.4474453807195146  0.7917247014229075  0.5008714722714487  1.0000
  C   C28       1.0  0.5478049743847961  0.0217519817803122  0.5015191957786413  1.0000
  C   C29       1.0  0.452667080609011  0.9802957249634756  0.5015138368686749  1.0000
  C   C30       1.0  0.4463567142085906  0.8797238036004983  0.5000465187715335  1.0000
  C   C31       1.0  0.5549285530658138  0.12216308874898368  0.5033695167318228  1.0000
  C   C32       1.0  0.03829997043975907  0.4693744917536477  0.476569156939867  1.0000
  N   N1        1.0  0.23629605814703317  0.46992956776723094  0.4955263699513637  1.0000
  N   N2        1.0  0.7682907937202259  0.527626234557438  0.502318200285707  1.0000
  O   O1        1.0  0.3812173618067334  0.6397289843597276  0.5169209035340431  1.0000
  O   O2        1.0  0.38276426096874877  0.7897722385879573  0.0976750505404382  1.0000
  O   O3        1.0  0.6775960333520957  0.7307891687816976  0.8374390679882353  1.0000
  O   O4        1.0  0.5275680198117029  0.7998458973561567  0.9011231078051978  1.0000
  O   O5        1.0  0.29095021564602763  0.03632103223061729  0.448649958181754  1.0000
  O   O6        1.0  0.33344630759604144  0.10219771174384108  0.5625117319022194  1.0000
  O   O7        1.0  0.7075284377708541  0.9609392133477211  0.5551839257343119  1.0000
  O   O8        1.0  0.666536680867921  0.9012816571257926  0.4384666996775408  1.0000
  O   O9        1.0  0.6213507884592743  0.3620139900312366  0.5106259815824998  1.0000
  O   O10       1.0  0.556657114677975  0.6540814629055659  0.4819683613858032  1.0000
  O   O11       1.0  0.4486759014067942  0.34848342992216896  0.4891642137485733  1.0000
  O   O12       1.0  0.40162208330063714  0.48146559771056013  0.6216255229464736  1.0000
  O   O13       1.0  0.6044406924078843  0.49796918031888276  0.3776070150494633  1.0000
  O   O14       1.0  0.5676920177434254  0.5325371001309803  0.6135943248983935  1.0000
  O   O15       1.0  0.4256230193889791  0.5191855273004221  0.3849877655978915  1.0000
  O   O16       1.0  0.2571016622824871  0.7051126224885705  0.1647453879646719  1.0000
