data_image0
_chemical_formula_structural       Li4H32C20N4O12
_chemical_formula_sum              "Li4 H32 C20 N4 O12"
_cell_length_a       4.9765006362948006
_cell_length_b       11.884362205312591
_cell_length_c       13.643296260827798
_cell_angle_alpha    70.13279308187145
_cell_angle_beta     79.49999128146345
_cell_angle_gamma    77.91132212358283

_space_group_name_H-M_alt    "P 1"
_space_group_IT_number       1

loop_
  _space_group_symop_operation_xyz
  'x, y, z'

loop_
  _atom_site_type_symbol
  _atom_site_label
  _atom_site_symmetry_multiplicity
  _atom_site_fract_x
  _atom_site_fract_y
  _atom_site_fract_z
  _atom_site_occupancy
  Li  Li1       1.0  0.8579788162140074  0.7283034019049524  0.6936840358425231  1.0000
  Li  Li2       1.0  0.2800360632071914  0.7716946273167621  0.8062551075658464  1.0000
  Li  Li3       1.0  0.14201997744312686  0.2716960881933375  0.3063160061888439  1.0000
  Li  Li4       1.0  0.7199623993857642  0.22830576907206526  0.1937446900904335  1.0000
  H   H1        1.0  0.9123632294610005  0.04527187683433449  0.4069115874447392  1.0000
  H   H2        1.0  0.36442962521415717  0.4547555924493096  0.09311625495450931  1.0000
  H   H3        1.0  0.08763871828501359  0.954729424881279  0.5930882377763143  1.0000
  H   H4        1.0  0.6355729846602073  0.5452438966852141  0.9068840590167047  1.0000
  H   H5        1.0  0.6849605080905901  0.010510448486030598  0.3387620535733122  1.0000
  H   H6        1.0  0.03415041397375526  0.4895592647517902  0.16124026243976894  1.0000
  H   H7        1.0  0.3150382855665439  0.9894890416122593  0.661237988458055  1.0000
  H   H8        1.0  0.9658484490685665  0.5104420402667529  0.8387585572461805  1.0000
  H   H9        1.0  0.8333866573395594  0.5214006822688262  0.6479508007786453  1.0000
  H   H10       1.0  0.0028935622361955836  0.9786408154441022  0.8519527721296429  1.0000
  H   H11       1.0  0.1666094966954218  0.478598805972169  0.35204983887805247  1.0000
  H   H12       1.0  0.9971029922481449  0.021359581426608494  0.1480468895567171  1.0000
  H   H13       1.0  0.3307721126438848  0.4100182449476079  0.6451288604596573  1.0000
  H   H14       1.0  0.38593473652058186  0.0898541796492509  0.8550107778225285  1.0000
  H   H15       1.0  0.6692247729046341  0.5899812456325578  0.354871045601783  1.0000
  H   H16       1.0  0.6140640571365522  0.9101453104490318  0.14498926420883862  1.0000
  H   H17       1.0  0.9663876492162016  0.3401685586411887  0.5884548095475  1.0000
  H   H18       1.0  0.895073472890203  0.15981835282277504  0.9115926183330676  1.0000
  H   H19       1.0  0.03361114444092549  0.659830931457101  0.4115452324838672  1.0000
  H   H20       1.0  0.10492532076693092  0.840181137275515  0.08840742369829967  1.0000
  H   H21       1.0  0.7115580496536752  0.3283221526207711  0.5180973862379832  1.0000
  H   H22       1.0  0.5580555911091453  0.17166608864181404  0.9819460214015907  1.0000
  H   H23       1.0  0.28844041293928746  0.6716782437680563  0.48190241141830387  1.0000
  H   H24       1.0  0.4419451106566046  0.8283334009745926  0.018054156599703258  1.0000
  H   H25       1.0  0.7339939698222648  0.23314798344306098  0.6487361891462985  1.0000
  H   H26       1.0  0.6158209397194268  0.2667560515399146  0.8512791003503682  1.0000
  H   H27       1.0  0.2660048238348693  0.7668515066552288  0.35126385288506873  1.0000
  H   H28       1.0  0.384179430982151  0.7332443443670371  0.14872083327584562  1.0000
  H   H29       1.0  0.6279282959616376  0.8289906375720266  0.4748083181158054  1.0000
  H   H30       1.0  0.9316833543051715  0.6710657956531492  0.025115667390529853  1.0000
  H   H31       1.0  0.3720735823991887  0.1710088492233339  0.5251927294506589  1.0000
  H   H32       1.0  0.06832335821841407  0.32893370001700367  0.9748825817648527  1.0000
  C   C1        1.0  0.4087720860955455  0.5981441450660017  0.6956733315354457  1.0000
  C   C2        1.0  0.7026489394914609  0.9018780865958573  0.8042562531819188  1.0000
  C   C3        1.0  0.5912247994529735  0.401855345514164  0.30432657452600165  1.0000
  C   C4        1.0  0.2973487915879645  0.09812230745380647  0.19574427806961847  1.0000
  C   C5        1.0  0.6177339912004596  0.509007896093209  0.6566303731591179  1.0000
  C   C6        1.0  0.7834941793841566  0.9909783930336503  0.8433347957745954  1.0000
  C   C7        1.0  0.3822667105652896  0.4909915935231979  0.34336980484217616  1.0000
  C   C8        1.0  0.2165057908680623  0.009021094243586002  0.15666611582195605  1.0000
  C   C9        1.0  0.5507954838318694  0.41752948130807255  0.6341655708961371  1.0000
  C   C10       1.0  0.6025510353881527  0.0823880419972483  0.8659157241166329  1.0000
  C   C11       1.0  0.4492029787610862  0.5824709150807622  0.36583422676014277  1.0000
  C   C12       1.0  0.3974477582689814  0.9176114481010417  0.13408431791473419  1.0000
  C   C13       1.0  0.751923655102892  0.3255241276630797  0.5956140427539085  1.0000
  C   C14       1.0  0.6730907339418335  0.1744142513107931  0.9044317164225223  1.0000
  C   C15       1.0  0.24807216786791736  0.6744762668684599  0.40438635252770194  1.0000
  C   C16       1.0  0.3269069971375916  0.8255861427388707  0.095568814829015  1.0000
  C   C17       1.0  0.7707136711277867  0.8853466689958581  0.4814731343129282  1.0000
  C   C18       1.0  0.13742192644821935  0.6146490034376981  0.018482827397193105  1.0000
  C   C19       1.0  0.22929011534166194  0.11465281731761928  0.5185280492234698  1.0000
  C   C20       1.0  0.8625830861223135  0.3853559374750973  0.9815116187520022  1.0000
  N   N1        1.0  0.7936847243365149  0.9862389808219801  0.40210990275423353  1.0000
  N   N2        1.0  0.18191294251545292  0.5137983917904448  0.09789855083647585  1.0000
  N   N3        1.0  0.2063174850884906  0.013759599682835202  0.5978913891873249  1.0000
  N   N4        1.0  0.818089597973717  0.4861992824238257  0.9021029854801628  1.0000
  O   O1        1.0  0.49798186001600414  0.6833047859190701  0.7118087613024999  1.0000
  O   O2        1.0  0.8931469994932545  0.816713580214234  0.7881110201787893  1.0000
  O   O3        1.0  0.5020166025769583  0.3166956104697575  0.2881910363537872  1.0000
  O   O4        1.0  0.10685179416387303  0.18328590988404866  0.21188902185257777  1.0000
  O   O5        1.0  0.15278679843387957  0.5881555283853785  0.7113924671871745  1.0000
  O   O6        1.0  0.452366828309358  0.9118949540468437  0.7885428941797417  1.0000
  O   O7        1.0  0.847211664159076  0.4118448680034489  0.2886073304691125  1.0000
  O   O8        1.0  0.5476297261749821  0.08810544282386701  0.21145676750661838  1.0000
  O   O9        1.0  0.8986312160275743  0.8523155349353644  0.5604278018276788  1.0000
  O   O10       1.0  0.3112451527499544  0.6475730416262381  0.9395111271777028  1.0000
  O   O11       1.0  0.10137106278261851  0.14768486048970433  0.4395722677684547  1.0000
  O   O12       1.0  0.6887563251615133  0.35242553653941394  0.060490898359105906  1.0000
