data_image0
_chemical_formula_structural       Zn8H72C60O26
_chemical_formula_sum              "Zn8 H72 C60 O26"
_cell_length_a       18.08289526296676
_cell_length_b       18.209966553990768
_cell_length_c       18.22046091524205
_cell_angle_alpha    60.65485454288952
_cell_angle_beta     60.517665641511144
_cell_angle_gamma    60.42120325701139

_space_group_name_H-M_alt    "P 1"
_space_group_IT_number       1

loop_
  _space_group_symop_operation_xyz
  'x, y, z'

loop_
  _atom_site_type_symbol
  _atom_site_label
  _atom_site_symmetry_multiplicity
  _atom_site_fract_x
  _atom_site_fract_y
  _atom_site_fract_z
  _atom_site_occupancy
  Zn  Zn1       1.0  0.0491938718424407  0.052097487849046296  0.8563001570178983  1.0000
  Zn  Zn2       1.0  0.047379791156323826  0.058596535049062495  0.03210484071220778  1.0000
  Zn  Zn3       1.0  0.05225528406759846  0.8810981578412368  0.029025578537733916  1.0000
  Zn  Zn4       1.0  0.8738782182575308  0.05390371342072341  0.03242910963772523  1.0000
  Zn  Zn5       1.0  0.46234501294726027  0.46674641882407286  0.6171292407428125  1.0000
  Zn  Zn6       1.0  0.45737722515110585  0.4698118725530591  0.4440541850436547  1.0000
  Zn  Zn7       1.0  0.6387462518767181  0.4666597197647917  0.44449635628409107  1.0000
  Zn  Zn8       1.0  0.4651639005684487  0.6421491928333793  0.4446432594011751  1.0000
  H   H1        1.0  0.22771558194247624  0.19272303169236693  0.6671717633187981  1.0000
  H   H2        1.0  0.30944293205769924  0.11515689203599783  0.7196686471907298  1.0000
  H   H3        1.0  0.39903398046364913  0.20604180039919134  0.6272451456260554  1.0000
  H   H4        1.0  0.31713609367947276  0.28465351850628917  0.5751197273794659  1.0000
  H   H5        1.0  0.39038726297360427  0.21846772209396192  0.765541949303987  1.0000
  H   H6        1.0  0.30401784403511556  0.3060228217644081  0.8062255606913381  1.0000
  H   H7        1.0  0.21223794431710272  0.2168896895318113  0.8977808187960221  1.0000
  H   H8        1.0  0.2992565513686999  0.1288439395013867  0.8582584038622939  1.0000
  H   H9        1.0  0.19322260669162014  0.4090987116565826  0.6344135607674415  1.0000
  H   H10       1.0  0.18667554159957692  0.4181193034810989  0.7301196523034789  1.0000
  H   H11       1.0  0.09635921078608331  0.3280762904779593  0.8206654562844519  1.0000
  H   H12       1.0  0.10341835239868402  0.3181561941349996  0.725238728819427  1.0000
  H   H13       1.0  0.18564806009010934  0.9191441870616474  0.668100661138048  1.0000
  H   H14       1.0  0.1061172425105282  0.8639755017814111  0.723119711045733  1.0000
  H   H15       1.0  0.19552799605514082  0.7733535715338463  0.6331993911087324  1.0000
  H   H16       1.0  0.2754296680281953  0.8281938308975756  0.5776972084002235  1.0000
  H   H17       1.0  0.2091753311539577  0.6353927344486648  0.7710326966172117  1.0000
  H   H18       1.0  0.2979825553901919  0.595618800646804  0.810293094885118  1.0000
  H   H19       1.0  0.20869077405998843  0.6863945387702444  0.9006132626103991  1.0000
  H   H20       1.0  0.11977558571469155  0.7256634157579354  0.8616297264441924  1.0000
  H   H21       1.0  0.40261392056027034  0.7712956794135123  0.634710659058662  1.0000
  H   H22       1.0  0.4120948756973347  0.6755548701850245  0.7306767930310656  1.0000
  H   H23       1.0  0.3227405841019788  0.7658648609531867  0.8206853237688349  1.0000
  H   H24       1.0  0.3131703107187816  0.8618647432022472  0.7248627213218058  1.0000
  H   H25       1.0  0.9179444071853383  0.23588076014959114  0.6718002387557785  1.0000
  H   H26       1.0  0.8639649864586332  0.3146521872731114  0.7273789313275784  1.0000
  H   H27       1.0  0.7760239321140008  0.4076980758179333  0.6347101704431848  1.0000
  H   H28       1.0  0.8287529902048477  0.3288530478913573  0.5794905717456514  1.0000
  H   H29       1.0  0.6348206600310108  0.3987640082447612  0.7718998263296797  1.0000
  H   H30       1.0  0.5903417499317102  0.31481827288733655  0.8096338773401611  1.0000
  H   H31       1.0  0.6795122491376592  0.2203624313347774  0.9016260251924701  1.0000
  H   H32       1.0  0.7234089328918145  0.3045935692087198  0.864143028431755  1.0000
  H   H33       1.0  0.7649562384320918  0.20813182390708823  0.6344575990945883  1.0000
  H   H34       1.0  0.6670561511222175  0.20172176843855988  0.7297245024205025  1.0000
  H   H35       1.0  0.7567909694745725  0.10782398763957701  0.8203830125580466  1.0000
  H   H36       1.0  0.8547974266138427  0.11500981082970442  0.725434535161632  1.0000
  H   H37       1.0  0.2353445095972049  0.9276090583690574  0.17012885096907837  1.0000
  H   H38       1.0  0.31550863725038175  0.8740036088341155  0.08997791252421916  1.0000
  H   H39       1.0  0.40616740838325444  0.7832340073908738  0.18010182914346726  1.0000
  H   H40       1.0  0.32633556055546364  0.8361686591927507  0.26078051757104953  1.0000
  H   H41       1.0  0.3946194270570161  0.6456404529329447  0.18711377773479376  1.0000
  H   H42       1.0  0.30775213615557107  0.6037270834991446  0.2732033287969032  1.0000
  H   H43       1.0  0.21505740834214038  0.6950703336079941  0.18484018973555288  1.0000
  H   H44       1.0  0.3024866264110456  0.7355254531354092  0.09817106381964172  1.0000
  H   H45       1.0  0.20081880013449904  0.7763794762846103  0.3834976319969456  1.0000
  H   H46       1.0  0.19263644062004207  0.6810088250038362  0.3882097858727319  1.0000
  H   H47       1.0  0.10137525887246562  0.7729620191107003  0.2989206897676268  1.0000
  H   H48       1.0  0.11038187223267919  0.8684197628273227  0.29308785382254116  1.0000
  H   H49       1.0  0.9141002429589451  0.19725223045013965  0.21475470526352286  1.0000
  H   H50       1.0  0.8627442240759181  0.11555090529301282  0.2941843920936123  1.0000
  H   H51       1.0  0.7715619358900059  0.2041553952326041  0.38617260442303075  1.0000
  H   H52       1.0  0.8228370021602843  0.2859486918131751  0.30715694566461565  1.0000
  H   H53       1.0  0.6313282715876912  0.21105140461275343  0.37745182989659976  1.0000
  H   H54       1.0  0.5870075493822  0.29748814278707414  0.2927052811523294  1.0000
  H   H55       1.0  0.6782904073838624  0.20910696460963152  0.1999776253832407  1.0000
  H   H56       1.0  0.7219150910375306  0.122630719765553  0.2851309465013187  1.0000
  H   H57       1.0  0.7593080038216725  0.4091214753247031  0.1851488423623877  1.0000
  H   H58       1.0  0.6621578037965606  0.41397971093176983  0.17891208581466592  1.0000
  H   H59       1.0  0.7530319064050134  0.3254301619234568  0.08708752409488334  1.0000
  H   H60       1.0  0.8502979137391764  0.32049662702375764  0.09319911762559484  1.0000
  H   H61       1.0  0.9241086811967778  0.6876061427570619  0.16749102394239654  1.0000
  H   H62       1.0  0.8684352055637277  0.7385383624401882  0.0893583304333204  1.0000
  H   H63       1.0  0.7797256738052029  0.6466227685961029  0.18105945710389887  1.0000
  H   H64       1.0  0.8346815896550127  0.5957873366321851  0.25985758219955807  1.0000
  H   H65       1.0  0.639111549039498  0.7851217464393017  0.1909562452151406  1.0000
  H   H66       1.0  0.5970500108110814  0.8278855213123251  0.2772667518084333  1.0000
  H   H67       1.0  0.6866042699164653  0.9193863931773623  0.1873006065181568  1.0000
  H   H68       1.0  0.7270667193083471  0.877833881758214  0.10050810735694407  1.0000
  H   H69       1.0  0.7755021260454741  0.657808034853524  0.38230359115622303  1.0000
  H   H70       1.0  0.6778024261462504  0.753736383130274  0.39011425380106596  1.0000
  H   H71       1.0  0.7674019306698201  0.8445968506086176  0.2989472424116854  1.0000
  H   H72       1.0  0.8650878173610013  0.7487338357593885  0.2907803015917735  1.0000
  C   C1        1.0  0.1423272509661473  0.15338633705920302  0.8465795023571728  1.0000
  C   C2        1.0  0.20336986348327465  0.2105340229840564  0.7870932329242348  1.0000
  C   C3        1.0  0.26765049351674014  0.18599119384015952  0.701331349964981  1.0000
  C   C4        1.0  0.3271517030969734  0.2464331095498054  0.640287198279367  1.0000
  C   C5        1.0  0.3045194831163299  0.31196058027393303  0.6845158904835104  1.0000
  C   C6        1.0  0.31878811508246235  0.25903187346860085  0.7758230766868051  1.0000
  C   C7        1.0  0.258492408407662  0.199617752097538  0.8366997759841723  1.0000
  C   C8        1.0  0.20378934294654263  0.37022032813563754  0.6994420639322525  1.0000
  C   C9        1.0  0.14371594215683814  0.30991514044204377  0.7600401997024377  1.0000
  C   C10       1.0  0.361758474251026  0.37297817771073477  0.6248291518846827  1.0000
  C   C11       1.0  0.14785177891387488  0.8690423796630216  0.8469440440249796  1.0000
  C   C12       1.0  0.203445517982665  0.8092183634491336  0.7886478346230916  1.0000
  C   C13       1.0  0.17786944419127343  0.852977373574511  0.7037024692208361  1.0000
  C   C14       1.0  0.23724162858849238  0.7928839582340573  0.64390178489797  1.0000
  C   C15       1.0  0.30365364933558664  0.7078275721619891  0.6877511224263059  1.0000
  C   C16       1.0  0.25060035526523455  0.6568877329111656  0.7798587811524623  1.0000
  C   C17       1.0  0.19133042377558235  0.7168903224438241  0.8397427740042857  1.0000
  C   C18       1.0  0.3636044909647039  0.7359331649606989  0.7004973571622342  1.0000
  C   C19       1.0  0.30408991721161993  0.7961354018866801  0.7604542372824028  1.0000
  C   C20       1.0  0.36519589801523716  0.6496432123234326  0.6280409926182812  1.0000
  C   C21       1.0  0.8637013404670386  0.14739401272971256  0.8496250570251075  1.0000
  C   C22       1.0  0.8045449182860196  0.21114339558212697  0.7907700622095319  1.0000
  C   C23       1.0  0.85164884739325  0.27524486015551025  0.7067306817110645  1.0000
  C   C24       1.0  0.7927730140983371  0.33705716756039555  0.6455635236342018  1.0000
  C   C25       1.0  0.7048400265368642  0.31606500441863966  0.6879705341277143  1.0000
  C   C26       1.0  0.6536165060906072  0.3283751230336875  0.7803156984576346  1.0000
  C   C27       1.0  0.7125696524809372  0.2659768617335843  0.8412858402398697  1.0000
  C   C28       1.0  0.7294955276652788  0.2170765199558602  0.7003378356085788  1.0000
  C   C29       1.0  0.7891156645553822  0.1548475352492602  0.7609394921492693  1.0000
  C   C30       1.0  0.6466465577005138  0.3734170359923468  0.6278745898237971  1.0000
  C   C31       1.0  0.14689691417473233  0.8770033401280486  0.12639557082972158  1.0000
  C   C32       1.0  0.20866362460250798  0.8176721314483048  0.1829960220014897  1.0000
  C   C33       1.0  0.27426090314656915  0.8618819009525326  0.16094258930689864  1.0000
  C   C34       1.0  0.3345128287591024  0.8014105784932396  0.22085989021837096  1.0000
  C   C35       1.0  0.3107126316949049  0.7154214996079844  0.2837778801940657  1.0000
  C   C36       1.0  0.3232652225334363  0.6656723160362505  0.22815265488581093  1.0000
  C   C37       1.0  0.2623599822557311  0.7258687314957227  0.16915721188262722  1.0000
  C   C38       1.0  0.21021215232871526  0.7419845781929197  0.34244769672564246  1.0000
  C   C39       1.0  0.14963442316584966  0.8031634607540069  0.28257587876770873  1.0000
  C   C40       1.0  0.3673861248782373  0.6555298419703491  0.3454017430340599  1.0000
  C   C41       1.0  0.86223940259071  0.1530685865446983  0.12864188004073887  1.0000
  C   C42       1.0  0.8021993078795051  0.208968788661636  0.19088603309396737  1.0000
  C   C43       1.0  0.8486385337843174  0.18690236054862203  0.25442107836779115  1.0000
  C   C44       1.0  0.78823808815433  0.24567630519594993  0.31544775547412457  1.0000
  C   C45       1.0  0.7002099431511156  0.30840442542702107  0.2939038415706959  1.0000
  C   C46       1.0  0.650237769130712  0.2525529485841815  0.30690941825163515  1.0000
  C   C47       1.0  0.7105662135578189  0.19384886743033997  0.2457127149887695  1.0000
  C   C48       1.0  0.7246357072102613  0.3680823946076758  0.19471821483145374  1.0000
  C   C49       1.0  0.7852369021750507  0.3090331136648459  0.1335178689806539  1.0000
  C   C50       1.0  0.6415608235407861  0.36953065944552316  0.350896020196373  1.0000
  C   C51       1.0  0.8698579939285838  0.8682403997674584  0.1258125189220321  1.0000
  C   C52       1.0  0.8116117483870086  0.8083647373387349  0.1828900209614446  1.0000
  C   C53       1.0  0.8572533622434334  0.7215382736727918  0.16003069853243085  1.0000
  C   C54       1.0  0.7981565108372451  0.6606738696549783  0.22096186158253053  1.0000
  C   C55       1.0  0.7115386312302121  0.7059853788332334  0.2852977759519885  1.0000
  C   C56       1.0  0.6594518393434184  0.7967264883198268  0.2311627747589499  1.0000
  C   C57       1.0  0.7183434070378851  0.8575432509061544  0.1711596402939151  1.0000
  C   C58       1.0  0.7389716625695898  0.7224968477939057  0.3428729413356136  1.0000
  C   C59       1.0  0.7986236809729307  0.7831234553359749  0.2820257277342218  1.0000
  C   C60       1.0  0.6524682798430775  0.6469196626432705  0.34756379553208905  1.0000
  O   O1        1.0  0.0060520600174883  0.011959479385844001  0.9871652380718173  1.0000
  O   O2        1.0  0.12043501378176563  0.131974916078228  0.9306672564065079  1.0000
  O   O3        1.0  0.1168634978828038  0.13249119792309472  0.8074132484961821  1.0000
  O   O4        1.0  0.37943677567168516  0.3987945643978393  0.5407778049569387  1.0000
  O   O5        1.0  0.3868847698938609  0.3945705566652436  0.6636256983444253  1.0000
  O   O6        1.0  0.12778384165498113  0.8305959059216904  0.9311727495607655  1.0000
  O   O7        1.0  0.12704630773786343  0.9532631060894449  0.807032888445434  1.0000
  O   O8        1.0  0.3914780070388062  0.6899791913630793  0.5442195113150206  1.0000
  O   O9        1.0  0.38728445035519593  0.565281925438093  0.6663440985057603  1.0000
  O   O10       1.0  0.824448323528209  0.1269011087827892  0.9338735128332657  1.0000
  O   O11       1.0  0.9481301857269671  0.11802233298205071  0.8098346376309918  1.0000
  O   O12       1.0  0.6874005823431942  0.39515993231415086  0.5438163872902422  1.0000
  O   O13       1.0  0.561548570990894  0.39324576175062026  0.6662402878445445  1.0000
  O   O14       1.0  0.12464457812168916  0.8371479117038875  0.10316099115418344  1.0000
  O   O15       1.0  0.12098434189456943  0.9613676965733263  0.10779761896002767  1.0000
  O   O16       1.0  0.3926079399716754  0.6937363219557824  0.367664621834777  1.0000
  O   O17       1.0  0.3837025856370743  0.5716808751890741  0.3714620984474663  1.0000
  O   O18       1.0  0.8232474509347015  0.1303177618089961  0.10475415038536068  1.0000
  O   O19       1.0  0.9471679511700729  0.13424027970603453  0.10405983408757168  1.0000
  O   O20       1.0  0.6826778135340988  0.3922688603004687  0.37238261069168005  1.0000
  O   O21       1.0  0.5564044135332651  0.3946816811652171  0.37101508979125697  1.0000
  O   O22       1.0  0.829182834550423  0.9522775334224393  0.10940619810277481  1.0000
  O   O23       1.0  0.9549444830759696  0.8296755433895767  0.10020228185801741  1.0000
  O   O24       1.0  0.692034824052648  0.562520750442637  0.3688676512088802  1.0000
  O   O25       1.0  0.5677114936352154  0.6865581739554117  0.3749741397512592  1.0000
  O   O26       1.0  0.5065087833876731  0.5111047563055422  0.4864540350828077  1.0000
