data_image0
_chemical_formula_structural       Cd4H32C64N8O16
_chemical_formula_sum              "Cd4 H32 C64 N8 O16"
_cell_length_a       8.30168794318413
_cell_length_b       9.627028561687165
_cell_length_c       17.252641037356916
_cell_angle_alpha    89.99931343528263
_cell_angle_beta     90.00028113275594
_cell_angle_gamma    91.05293696971411

_space_group_name_H-M_alt    "P 1"
_space_group_IT_number       1

loop_
  _space_group_symop_operation_xyz
  'x, y, z'

loop_
  _atom_site_type_symbol
  _atom_site_label
  _atom_site_symmetry_multiplicity
  _atom_site_fract_x
  _atom_site_fract_y
  _atom_site_fract_z
  _atom_site_occupancy
  Cd  Cd1       1.0  0.2995776736906706  0.21893294962557516  0.1485160130524079  1.0000
  Cd  Cd2       1.0  0.2004277993241743  0.7810665337993895  0.6485186229868488  1.0000
  Cd  Cd3       1.0  0.7004202998707925  0.781066188628422  0.8514823410551526  1.0000
  Cd  Cd4       1.0  0.7995701561566906  0.2189315654811138  0.3514855273381911  1.0000
  H   H1        1.0  0.9329079869039278  0.14349704377816858  0.07667351886843217  1.0000
  H   H2        1.0  0.5670918528763096  0.8565076406375096  0.5766718320290138  1.0000
  H   H3        1.0  0.0670888363481765  0.8565052077226836  0.9233259944701614  1.0000
  H   H4        1.0  0.4329086024237157  0.14349566017209978  0.42333057941736735  1.0000
  H   H5        1.0  0.6822503372667512  0.2674871988511639  0.037251018153916994  1.0000
  H   H6        1.0  0.8177515453420411  0.7325193715772328  0.5372495925585383  1.0000
  H   H7        1.0  0.3177452813578512  0.7325150491428329  0.9627513932902829  1.0000
  H   H8        1.0  0.1822501145854858  0.2674839327392249  0.4627499207822438  1.0000
  H   H9        1.0  0.6789394541746886  0.528047377987029  0.0482403442169002  1.0000
  H   H10       1.0  0.8210613310014241  0.4719589547479401  0.5482406693323156  1.0000
  H   H11       1.0  0.32105979646674143  0.47195591938366  0.9517585894996542  1.0000
  H   H12       1.0  0.17893671499553682  0.5280443391529629  0.45175768476143213  1.0000
  H   H13       1.0  0.8195144520734557  0.7466442364584011  0.08790964729771389  1.0000
  H   H14       1.0  0.6804878885073009  0.25335917649929474  0.5879116827435948  1.0000
  H   H15       1.0  0.18048596698337596  0.2533569865833414  0.9120875475629473  1.0000
  H   H16       1.0  0.31951134403655607  0.7466430819349695  0.4120895694620258  1.0000
  H   H17       1.0  0.07176751914953171  0.8703554501199448  0.1282146445852845  1.0000
  H   H18       1.0  0.4282354008680755  0.12964757574390257  0.6282169325510407  1.0000
  H   H19       1.0  0.9282328999073003  0.1296457729217977  0.8717825502753768  1.0000
  H   H20       1.0  0.5717662590735914  0.8703557285416677  0.3717854788967472  1.0000
  H   H21       1.0  0.35779458481823684  0.8602827066817935  0.1687977876741868  1.0000
  H   H22       1.0  0.1422074721172066  0.13971633408577588  0.6687999133737887  1.0000
  H   H23       1.0  0.642205816138201  0.1397174774296914  0.831201146054134  1.0000
  H   H24       1.0  0.8577917423319121  0.8602848854058746  0.3312042369422982  1.0000
  H   H25       1.0  0.596812052781985  0.7160968403674558  0.20250817328401638  1.0000
  H   H26       1.0  0.9031877555587471  0.28390204207740766  0.702509949974619  1.0000
  H   H27       1.0  0.4031847342551984  0.28390333330376893  0.7974919196828907  1.0000
  H   H28       1.0  0.0968102361370313  0.7160981350327233  0.2974936207221148  1.0000
  H   H29       1.0  0.5647905841130054  0.45493595456241553  0.20120196272419827  1.0000
  H   H30       1.0  0.9352080249419574  0.545063991179475  0.7012014883814003  1.0000
  H   H31       1.0  0.4352062029213499  0.5450642191149838  0.7987975506213019  1.0000
  H   H32       1.0  0.0647875936713334  0.45493825683923456  0.2987986045771862  1.0000
  C   C1        1.0  0.9258605668207452  0.2561046020938775  0.08195754226853318  1.0000
  C   C2        1.0  0.5741392701792236  0.7438968529742309  0.5819560456770956  1.0000
  C   C3        1.0  0.074136238328137  0.7438966104828992  0.9180431303163203  1.0000
  C   C4        1.0  0.42586109456512133  0.2561012533014448  0.4180440473009383  1.0000
  C   C5        1.0  0.7859004268013337  0.3259860659347069  0.05951246393653519  1.0000
  C   C6        1.0  0.714099245578332  0.6740189841979216  0.5595117648350509  1.0000
  C   C7        1.0  0.2140988057368673  0.6740161925119067  0.9404876290262791  1.0000
  C   C8        1.0  0.2858975595705502  0.3259822283788479  0.4404889077498025  1.0000
  C   C9        1.0  0.783550894261481  0.4689325121838548  0.06616835526710217  1.0000
  C   C10       1.0  0.7164488249334725  0.5310713571984351  0.56616687902396  1.0000
  C   C11       1.0  0.21644468813406806  0.5310676580113948  0.9338317376983907  1.0000
  C   C12       1.0  0.2835504257079578  0.4689319401722615  0.43383205469259417  1.0000
  C   C13       1.0  0.9203736874537825  0.5414435869393299  0.0952739628245283  1.0000
  C   C14       1.0  0.5796250748093995  0.45855758085204446  0.595273228579799  1.0000
  C   C15       1.0  0.07962435854883411  0.45855970694921655  0.904725550512019  1.0000
  C   C16       1.0  0.4203728987605473  0.5414415573834147  0.4047268643919607  1.0000
  C   C17       1.0  0.9271404299665775  0.6894350637428558  0.10234195884844867  1.0000
  C   C18       1.0  0.5728620332831582  0.3105670027483214  0.602342198571712  1.0000
  C   C19       1.0  0.07286121184359474  0.3105672016804063  0.897655815631573  1.0000
  C   C20       1.0  0.4271371811461719  0.6894342167865657  0.3976578943945554  1.0000
  C   C21       1.0  0.06474916791140121  0.7573395232987892  0.125343569865592  1.0000
  C   C22       1.0  0.43525250133639304  0.2426625213906206  0.6253433795493207  1.0000
  C   C23       1.0  0.9352524920132981  0.2426637810238431  0.8746553638537832  1.0000
  C   C24       1.0  0.5647467130957652  0.757338698138092  0.37465729303835354  1.0000
  C   C25       1.0  0.2053395130329534  0.681182078400056  0.1451363223916502  1.0000
  C   C26       1.0  0.2946599218988979  0.31881849861561307  0.6451358707302715  1.0000
  C   C27       1.0  0.794659683279022  0.3188181022416287  0.854862031713864  1.0000
  C   C28       1.0  0.7053380878887907  0.6811827174432992  0.3548642222345889  1.0000
  C   C29       1.0  0.3513070248610147  0.7473108904749778  0.16725868341648453  1.0000
  C   C30       1.0  0.14869627601670032  0.25269130333074935  0.6672583298664916  1.0000
  C   C31       1.0  0.6486934304220497  0.25269241037167933  0.8327402503014837  1.0000
  C   C32       1.0  0.8513041430599275  0.7473099196677565  0.3327429223439893  1.0000
  C   C33       1.0  0.4822178648786988  0.66772741247388  0.18646485912804414  1.0000
  C   C34       1.0  0.017781955096005206  0.33227124487186893  0.6864630849053057  1.0000
  C   C35       1.0  0.5177789221584846  0.3322727611973376  0.8135352338388627  1.0000
  C   C36       1.0  0.9822172412244541  0.6677289357512916  0.31353700806441503  1.0000
  C   C37       1.0  0.46605750282360253  0.5223433164535223  0.1851832037716434  1.0000
  C   C38       1.0  0.033945936689143294  0.4776564175310795  0.6851828136619671  1.0000
  C   C39       1.0  0.5339429343505843  0.4776589454814084  0.8148157299497782  1.0000
  C   C40       1.0  0.9660532415252733  0.5223427241741732  0.3148178589326065  1.0000
  C   C41       1.0  0.2009425389831776  0.5334861928759408  0.14271457333826723  1.0000
  C   C42       1.0  0.2990604681302288  0.4665134072897457  0.6427119848636591  1.0000
  C   C43       1.0  0.7990578800849663  0.46651503014109613  0.8572849400080074  1.0000
  C   C44       1.0  0.7009398966084605  0.5334846989982862  0.35728694887157525  1.0000
  C   C45       1.0  0.056443665005595306  0.46219022518112485  0.11598887814575679  1.0000
  C   C46       1.0  0.4435579310840794  0.5378130578093518  0.6159861535180864  1.0000
  C   C47       1.0  0.943555585638663  0.5378130721833968  0.8840106351921972  1.0000
  C   C48       1.0  0.556441283336767  0.4621881617440664  0.38401220058397456  1.0000
  C   C49       1.0  0.34098478696980555  0.1096963719562893  0.0020107418266590996  1.0000
  C   C50       1.0  0.1590301530036129  0.890309381709727  0.5020154215197508  1.0000
  C   C51       1.0  0.6590325332792163  0.8903069775910093  0.9979847141826067  1.0000
  C   C52       1.0  0.8409675489417056  0.1096741728313049  0.4979864103680284  1.0000
  C   C53       1.0  0.3513298766174486  0.04440637785215529  0.926684474016447  1.0000
  C   C54       1.0  0.1486737448850874  0.9556017082336579  0.4266887526699675  1.0000
  C   C55       1.0  0.6486825888529353  0.9555948799554553  0.07331214123690437  1.0000
  C   C56       1.0  0.8513311305890809  0.04437875041565319  0.5733142384794263  1.0000
  C   C57       1.0  0.35808770126772776  0.9858098343864012  0.8641436617968095  1.0000
  C   C58       1.0  0.14191171433243713  0.014200613027696795  0.36414726615089416  1.0000
  C   C59       1.0  0.6419283962449142  0.014192472742315897  0.13585469232152286  1.0000
  C   C60       1.0  0.8580993110837697  0.9857871354453135  0.6358499287673424  1.0000
  C   C61       1.0  0.3545437816887187  0.9011021349922  0.7948415078989725  1.0000
  C   C62       1.0  0.14544771191602726  0.09890872957944198  0.2948457132274385  1.0000
  C   C63       1.0  0.6454614016052176  0.09889598522441638  0.2051551073562834  1.0000
  C   C64       1.0  0.854554935369265  0.9010821112228553  0.7051584371274088  1.0000
  N   N1        1.0  0.0562086367252448  0.3218968410263158  0.10926921654011318  1.0000
  N   N2        1.0  0.44379048453504305  0.6781065782096147  0.6092672928962697  1.0000
  N   N3        1.0  0.9437881865296872  0.6781054104683546  0.8907308764198874  1.0000
  N   N4        1.0  0.5562087480059931  0.32189568023082415  0.3907333796879512  1.0000
  N   N5        1.0  0.32994711624179734  0.45759865091979884  0.1637743636871107  1.0000
  N   N6        1.0  0.17005370513346207  0.5424015323928442  0.663771542988101  1.0000
  N   N7        1.0  0.6700521162964037  0.5424036075268148  0.8362257292757036  1.0000
  N   N8        1.0  0.8299443046429218  0.4575996836907804  0.3362262314911462  1.0000
  O   O1        1.0  0.25852069515922693  0.04404816852221669  0.0531694084083583  1.0000
  O   O2        1.0  0.2414899977298006  0.9559606366286884  0.5531732638106206  1.0000
  O   O3        1.0  0.741485819541289  0.9559572275462711  0.9468277864455312  1.0000
  O   O4        1.0  0.7585029761989903  0.04402809855474029  0.4468297272970574  1.0000
  O   O5        1.0  0.41101137308522345  0.22659236637821314  0.0124870902900938  1.0000
  O   O6        1.0  0.08899649556434501  0.7734162598940909  0.5124923867498552  1.0000
  O   O7        1.0  0.588993991291794  0.7734161429680168  0.987508365687823  1.0000
  O   O8        1.0  0.911001260710414  0.22657041137594544  0.48751002474895694  1.0000
  O   O9        1.0  0.4429869303861834  0.794977113916488  0.7923136585638133  1.0000
  O   O10       1.0  0.05700698406451472  0.20503588929400957  0.292318684304412  1.0000
  O   O11       1.0  0.5570122296967315  0.20502098892645643  0.20768237706299425  1.0000
  O   O12       1.0  0.9429993496179351  0.794959117502806  0.7076930011190824  1.0000
  O   O13       1.0  0.25604545886187685  0.9382433921070258  0.74240118036095  1.0000
  O   O14       1.0  0.24394674592270602  0.0617696324714245  0.24240180905685083  1.0000
  O   O15       1.0  0.7439598149905606  0.06175992263733578  0.25759833298405244  1.0000
  O   O16       1.0  0.7560561005488966  0.938232636384569  0.7576000227743974  1.0000
