data_image0
_chemical_formula_structural       Hg2P4H36Au4C60Cl8F32
_chemical_formula_sum              "Hg2 P4 H36 Au4 C60 Cl8 F32"
_cell_length_a       10.84212717845759
_cell_length_b       11.492849406009244
_cell_length_c       18.48021967656029
_cell_angle_alpha    91.42982176223136
_cell_angle_beta     107.04707384725062
_cell_angle_gamma    118.13803490369128

_space_group_name_H-M_alt    "P 1"
_space_group_IT_number       1

loop_
  _space_group_symop_operation_xyz
  'x, y, z'

loop_
  _atom_site_type_symbol
  _atom_site_label
  _atom_site_symmetry_multiplicity
  _atom_site_fract_x
  _atom_site_fract_y
  _atom_site_fract_z
  _atom_site_occupancy
  Hg  Hg1       1.0  1.1010572862e-06  1.0030734998e-06  6.535693515e-07  1.0000
  Hg  Hg2       1.0  0.49999748518422393  0.4999992804938671  0.49999980853350934  1.0000
  P   P1        1.0  0.5434879775328414  0.6340274408857953  0.8654835207741486  1.0000
  P   P2        1.0  0.5437985447738994  0.865720736174879  0.6345572088964887  1.0000
  P   P3        1.0  0.4565126419285761  0.3659731326676905  0.1345160259665406  1.0000
  P   P4        1.0  0.45620125917352544  0.13427882821404316  0.36544293236386244  1.0000
  H   H1        1.0  0.43492068343766027  0.4201236159340099  0.9058338549214967  1.0000
  H   H2        1.0  0.6087413044063084  0.07964927900310668  0.5941944523464926  1.0000
  H   H3        1.0  0.5650828886149739  0.5798779656125107  0.09416530277707838  1.0000
  H   H4        1.0  0.39125849954111663  0.9203502853858087  0.40580568891385843  1.0000
  H   H5        1.0  0.6345756639943543  0.5103901228449103  0.947056501342793  1.0000
  H   H6        1.0  0.6769416984762415  0.9894176364541992  0.5529438508262601  1.0000
  H   H7        1.0  0.36542441383429036  0.48961045337929937  0.05294250506678108  1.0000
  H   H8        1.0  0.3230589031934061  0.010581928684317201  0.44705612300730735  1.0000
  H   H9        1.0  0.5446077483487386  0.42452522317838515  0.8489792485353789  1.0000
  H   H10       1.0  0.7708331690623496  0.0752278646131046  0.6510241717331554  1.0000
  H   H11       1.0  0.45539194331573907  0.5754713349884356  0.1510182623097833  1.0000
  H   H12       1.0  0.2291660754605471  0.9247706940315863  0.34897585628895905  1.0000
  H   H13       1.0  0.3765801149427476  0.5205823413051149  0.7350369270976814  1.0000
  H   H14       1.0  0.6208850695487982  0.9793240480529448  0.7650017469969371  1.0000
  H   H15       1.0  0.6234191473719122  0.4794172257545313  0.26496267383155464  1.0000
  H   H16       1.0  0.3791149726963283  0.020674511341347603  0.2349981135983938  1.0000
  H   H17       1.0  0.3650418489880282  0.6621014167403134  0.7653440489896896  1.0000
  H   H18       1.0  0.43752011687221415  0.8378324988202054  0.7347531404033775  1.0000
  H   H19       1.0  0.6349582110488611  0.3378981510689414  0.23465538451276297  1.0000
  H   H20       1.0  0.5624807230951417  0.16216606132368847  0.26524655276516995  1.0000
  H   H21       1.0  0.2749241132542221  0.5108710157802533  0.7984370605859111  1.0000
  H   H22       1.0  0.4655579781112137  0.9890209927238659  0.7015821361631255  1.0000
  H   H23       1.0  0.7250759645744295  0.48912956044395617  0.20156194582365566  1.0000
  H   H24       1.0  0.534441825836204  0.010978571665049197  0.29841800509722566  1.0000
  H   H25       1.0  0.509187019957629  0.7978626077326185  0.928769139114145  1.0000
  H   H26       1.0  0.28237825610948164  0.7017570916085489  0.5713526470691833  1.0000
  H   H27       1.0  0.49081470056107424  0.20213896889436714  0.0712310611958884  1.0000
  H   H28       1.0  0.7176217861356519  0.2982414677857435  0.4286472135261477  1.0000
  H   H29       1.0  0.603690923209399  0.7351468689788305  0.9964641110491571  1.0000
  H   H30       1.0  0.3718954818542314  0.7645194770826296  0.5036337986462271  1.0000
  H   H31       1.0  0.39630967846025555  0.26485269615969287  0.003535862784410366  1.0000
  H   H32       1.0  0.6281037804604281  0.23548008997701692  0.49636580228300897  1.0000
  H   H33       1.0  0.405870478227456  0.6344208594991514  0.9480922295463757  1.0000
  H   H34       1.0  0.32312395850927095  0.8652000265224872  0.5519965092020273  1.0000
  H   H35       1.0  0.5941293435117316  0.36557971330473277  0.05190748462109698  1.0000
  H   H36       1.0  0.6768744882913965  0.1347985313726028  0.44800368624687087  1.0000
  Au  Au1       1.0  0.7556612638463635  0.7742690855437716  0.8408222822915479  1.0000
  Au  Au2       1.0  0.6405162622720013  0.725547053034326  0.6591536287295271  1.0000
  Au  Au3       1.0  0.24434151048403407  0.22573249525314049  0.15917704283381082  1.0000
  Au  Au4       1.0  0.3594837799731252  0.27445150635996646  0.3408462318658039  1.0000
  C   C1        1.0  0.955213935124505  0.8926878573097315  0.8239026472735065  1.0000
  C   C2        1.0  0.7386321516580737  0.6071647260006899  0.6760536747883422  1.0000
  C   C3        1.0  0.04479274904788606  0.10731873735549162  0.1761002805521699  1.0000
  C   C4        1.0  0.26136845001158093  0.39283483913783357  0.32394629904522537  1.0000
  C   C5        1.0  0.06126836838951288  0.8524055971432889  0.8371904113063808  1.0000
  C   C6        1.0  0.8718212623733522  0.6474623672965124  0.6629201214576029  1.0000
  C   C7        1.0  0.9387338937619559  0.14759597681297273  0.1628103293347749  1.0000
  C   C8        1.0  0.12817989872082336  0.3525382035862421  0.3370799656142013  1.0000
  C   C9        1.0  0.994029420353968  0.013605873458892897  0.7983719103729642  1.0000
  C   C10       1.0  0.6818723846189984  0.4861921567361378  0.7015122668921451  1.0000
  C   C11       1.0  0.005970978601503246  0.9863967135041773  0.20162748993985957  1.0000
  C   C12       1.0  0.318126895487417  0.5138084187384706  0.29848690694421265  1.0000
  C   C13       1.0  0.1288551830974782  0.09287462182438591  0.7865840478922125  1.0000
  C   C14       1.0  0.7491012002970763  0.4068314547130356  0.7133802269006609  1.0000
  C   C15       1.0  0.8711462991235164  0.907127959797222  0.21341643308284114  1.0000
  C   C16       1.0  0.25089836535264004  0.5931691146705164  0.2866201950247032  1.0000
  C   C17       1.0  0.23098812715825542  0.047264308936988214  0.8016475150692984  1.0000
  C   C18       1.0  0.8819350316333046  0.45247431072470334  0.6984849246403827  1.0000
  C   C19       1.0  0.7690152655043292  0.9527382585813841  0.19835583498812068  1.0000
  C   C20       1.0  0.11806343295912568  0.5475252555853416  0.301514843715637  1.0000
  C   C21       1.0  0.19925330473812866  0.9266129171214461  0.8276931077886901  1.0000
  C   C22       1.0  0.9450245859987803  0.573192195096972  0.6725238890726005  1.0000
  C   C23       1.0  0.8007500584706334  0.07338965990830809  0.1723082864218171  1.0000
  C   C24       1.0  0.05497521794864464  0.4268073692919501  0.3274762521877506  1.0000
  C   C25       1.0  0.5387247319191671  0.4822971147630639  0.8946289366898768  1.0000
  C   C26       1.0  0.6615544010450806  0.0174481366347408  0.605379763844404  1.0000
  C   C27       1.0  0.46127636413765316  0.5177014488011621  0.10537004872076486  1.0000
  C   C28       1.0  0.33844486126957907  0.9825514304249056  0.39461983708483217  1.0000
  C   C29       1.0  0.3732595862943313  0.5752600858556322  0.7832632686386276  1.0000
  C   C30       1.0  0.5146563574031832  0.9246208049258797  0.7168015216706891  1.0000
  C   C31       1.0  0.6267404737425578  0.4247394819536154  0.2167361648638249  1.0000
  C   C32       1.0  0.4853442442664716  0.0753787602126437  0.28319845216287126  1.0000
  C   C33       1.0  0.5119521305954108  0.706649899774071  0.9419845307120199  1.0000
  C   C34       1.0  0.3630929447896563  0.7929691483273305  0.5581269551894152  1.0000
  C   C35       1.0  0.4880484888660064  0.2933506737794147  0.05801501602866918  1.0000
  C   C36       1.0  0.6369068591577686  0.20703041606159192  0.44187318607093573  1.0000
  C   C37       1.0  0.9466069637756006  0.1487184213772466  0.9646792039535015  1.0000
  C   C38       1.0  0.3335023730747366  0.35093604442042203  0.5352900713332858  1.0000
  C   C39       1.0  0.053393143506880764  0.8512821453355741  0.03532175830297742  1.0000
  C   C40       1.0  0.6664949904604001  0.6490625188161232  0.4647090434533823  1.0000
  C   C41       1.0  0.04440036775805828  0.2631487822317667  0.9447932391819408  1.0000
  C   C42       1.0  0.3367255086237789  0.23651664261797112  0.555223241959773  1.0000
  C   C43       1.0  0.9555989418021937  0.7368517837314599  0.05520789050132878  1.0000
  C   C44       1.0  0.6632729737604136  0.7634839321070358  0.4447760993033683  1.0000
  C   C45       1.0  0.014474638491805329  0.3657822306683727  0.9254487451937268  1.0000
  C   C46       1.0  0.22339015470578985  0.1339582680087545  0.5745453397873562  1.0000
  C   C47       1.0  0.9855224689538673  0.63421632914784  0.074551077350847  1.0000
  C   C48       1.0  0.776608548184349  0.8660402933066607  0.4254541479036432  1.0000
  C   C49       1.0  0.8811920517617724  0.35458336922857114  0.9264379408248049  1.0000
  C   C50       1.0  0.1003001078010826  0.14520020930974906  0.5734601880231979  1.0000
  C   C51       1.0  0.11880401966396184  0.6454161948326701  0.0735623298115726  1.0000
  C   C52       1.0  0.8996999166522882  0.8547973416695812  0.42654009966501866  1.0000
  C   C53       1.0  0.7793254010667783  0.24055420386488185  0.9454712415966713  1.0000
  C   C54       1.0  0.09352267658192663  0.2592424003104625  0.5543797040758777  1.0000
  C   C55       1.0  0.22067116474612897  0.7594443586220622  0.05452804061678048  1.0000
  C   C56       1.0  0.9064781455936739  0.740755151418469  0.4456204161855482  1.0000
  C   C57       1.0  0.813889181086431  0.13998328169319046  0.9638005800606565  1.0000
  C   C58       1.0  0.21041376123733352  0.3597505707534623  0.5360930901435523  1.0000
  C   C59       1.0  0.18611038456328538  0.8600172876903613  0.036199841864714685  1.0000
  C   C60       1.0  0.7895846855633336  0.6402479871416276  0.4639071053053456  1.0000
  Cl  Cl1       1.0  0.32798404770954176  0.8745674819459168  0.8496797526032581  1.0000
  Cl  Cl2       1.0  0.10388454746774299  0.6251518828752796  0.6506113343958547  1.0000
  Cl  Cl3       1.0  0.672016518376587  0.1254300663626893  0.15032107541606618  1.0000
  Cl  Cl4       1.0  0.8961158159042029  0.3748486872578667  0.34938892010273287  1.0000
  Cl  Cl5       1.0  0.1701662119633767  0.2426667018989264  0.7566320374144057  1.0000
  Cl  Cl6       1.0  0.6704161195905981  0.257042567158436  0.7432961815185949  1.0000
  Cl  Cl7       1.0  0.8298393239061282  0.7573378907892234  0.24336870808788547  1.0000
  Cl  Cl8       1.0  0.32958180336906645  0.7429570018223403  0.25670304650630976  1.0000
  F   F1        1.0  0.031403697750519675  0.733948343354534  0.8614843738291713  1.0000
  F   F2        1.0  0.9362483450784821  0.7659226922810729  0.6386624839720768  1.0000
  F   F3        1.0  0.9685974455519003  0.2660512191132582  0.13851614033551124  1.0000
  F   F4        1.0  0.06375391707298664  0.23407888167518107  0.36133825666907887  1.0000
  F   F5        1.0  0.36290685059671557  0.12147898256472443  0.7913593784580258  1.0000
  F   F6        1.0  0.9499006364371283  0.3782360496678336  0.7088566320250181  1.0000
  F   F7        1.0  0.6370967331179854  0.8785215810554449  0.2086421621803325  1.0000
  F   F8        1.0  0.05009703043307221  0.6217635158926101  0.29114330375778513  1.0000
  F   F9        1.0  0.8960959734976159  0.06062264034148509  0.7837368599157345  1.0000
  F   F10       1.0  0.5514937667069193  0.4392837069638277  0.7160812659671196  1.0000
  F   F11       1.0  0.10390313334845304  0.9393809474462886  0.2162636962467986  1.0000
  F   F12       1.0  0.4485046506399187  0.5607148604426513  0.28391697363486657  1.0000
  F   F13       1.0  0.17735797368553124  0.2792201839369853  0.9440029579098593  1.0000
  F   F14       1.0  0.4544331468667762  0.22042646837205374  0.5561264259825762  1.0000
  F   F15       1.0  0.8226453168837439  0.7207894295543867  0.05600006610221434  1.0000
  F   F16       1.0  0.5455658949419372  0.7795751120971843  0.44387302851879434  1.0000
  F   F17       1.0  0.11290198693568966  0.4762819215480222  0.9065219831270498  1.0000
  F   F18       1.0  0.230169673372501  0.0234657360462762  0.5935644803551342  1.0000
  F   F19       1.0  0.8870940194526966  0.5237156351946907  0.09347718584816524  1.0000
  F   F20       1.0  0.7698279757059369  0.9765328210992125  0.4064358825205474  1.0000
  F   F21       1.0  0.8511409092351985  0.4538976110034768  0.9092266046566949  1.0000
  F   F22       1.0  0.988003945762465  0.04595981986855689  0.5906322985557538  1.0000
  F   F23       1.0  0.14885728147600466  0.5461009434712807  0.0907742985501017  1.0000
  F   F24       1.0  0.011994436000847276  0.9540367307079973  0.40936679523198893  1.0000
  F   F25       1.0  0.6502189709120855  0.2300318988533547  0.9461691346588951  1.0000
  F   F26       1.0  0.9742904495602502  0.2698731891843664  0.5536611039294144  1.0000
  F   F27       1.0  0.34977950534241126  0.7699666495303462  0.05383301663692206  1.0000
  F   F28       1.0  0.025708647096180794  0.7301203464083059  0.4463371478632681  1.0000
  F   F29       1.0  0.7124469927154704  0.030451809929140008  0.9827527018919254  1.0000
  F   F30       1.0  0.19966866843634518  0.4693444411821517  0.5171397910546176  1.0000
  F   F31       1.0  0.2875558227308303  0.969548743430046  0.01725096202013526  1.0000
  F   F32       1.0  0.8003259808052834  0.5306521090667289  0.48285943210914456  1.0000
