data_image0
_chemical_formula_structural       Cd2H42C44N6O12
_chemical_formula_sum              "Cd2 H42 C44 N6 O12"
_cell_length_a       9.474054185972749
_cell_length_b       10.450056160317548
_cell_length_c       11.680105754210242
_cell_angle_alpha    116.36187377955137
_cell_angle_beta     97.76351038799234
_cell_angle_gamma    91.74542703350038

_space_group_name_H-M_alt    "P 1"
_space_group_IT_number       1

loop_
  _space_group_symop_operation_xyz
  'x, y, z'

loop_
  _atom_site_type_symbol
  _atom_site_label
  _atom_site_symmetry_multiplicity
  _atom_site_fract_x
  _atom_site_fract_y
  _atom_site_fract_z
  _atom_site_occupancy
  Cd  Cd1       1.0  0.7998373256556944  0.6748566140470731  0.5036116873654705  1.0000
  Cd  Cd2       1.0  0.20016035431011403  0.3251409727026627  0.49638720513442536  1.0000
  H   H1        1.0  0.49066922728689377  0.7249053770056478  0.05199780394614361  1.0000
  H   H2        1.0  0.5093299569643008  0.2750965033502268  0.9480029455071557  1.0000
  H   H3        1.0  0.4383831320319302  0.8020070399125745  0.8770794188177218  1.0000
  H   H4        1.0  0.5616158298405054  0.19799268964539612  0.12291960147830851  1.0000
  H   H5        1.0  0.2584530628879804  0.9756567170261122  0.8944781422537033  1.0000
  H   H6        1.0  0.7415456851212879  0.024340872676326307  0.10552172261343878  1.0000
  H   H7        1.0  0.1343679175061467  0.07320386250441402  0.08595675978222057  1.0000
  H   H8        1.0  0.8656309317576429  0.9267947898308864  0.9140409669804369  1.0000
  H   H9        1.0  0.18804357408191666  0.9990994147492603  0.25984672436141665  1.0000
  H   H10       1.0  0.811954440871304  0.0009014000210570002  0.7401551908291137  1.0000
  H   H11       1.0  0.28141618247792627  0.7122050972593287  0.4299302194512791  1.0000
  H   H12       1.0  0.7185867109038853  0.28779140879397164  0.5700679518041837  1.0000
  H   H13       1.0  0.3596622959287075  0.8578506338437395  0.6690287951084243  1.0000
  H   H14       1.0  0.640337627055608  0.14214802873917176  0.3309716198404118  1.0000
  H   H15       1.0  0.4169530005773652  0.005096337787534801  0.6449158627605057  1.0000
  H   H16       1.0  0.5830438308852095  0.9949033931599448  0.3550829286199432  1.0000
  H   H17       1.0  0.1622819234939641  0.016197801950248406  0.5536693076628507  1.0000
  H   H18       1.0  0.8377136260619907  0.9837997861889893  0.44632935592146344  1.0000
  H   H19       1.0  0.1906769465404281  0.051981537728309504  0.7160418319355556  1.0000
  H   H20       1.0  0.8093206236552675  0.9480149754461991  0.2839566249404299  1.0000
  H   H21       1.0  0.6049620062722951  0.621410816942465  0.6748567321862922  1.0000
  H   H22       1.0  0.39503769149472834  0.37858569119509167  0.32514109569580535  1.0000
  H   H23       1.0  0.6079813718298369  0.6069016317897465  0.8817727169546713  1.0000
  H   H24       1.0  0.3920218622164525  0.39309810957904295  0.11823019281035839  1.0000
  H   H25       1.0  0.0705761793893487  0.669325749685811  0.9403878277211177  1.0000
  H   H26       1.0  0.9294243908615201  0.33067933975862485  0.05961176933330147  1.0000
  H   H27       1.0  0.04703828421928341  0.6839051893185087  0.732037835467217  1.0000
  H   H28       1.0  0.9529611167336042  0.3160988345403696  0.2679629273244331  1.0000
  H   H29       1.0  0.040924950810911326  0.7545853801658569  0.35579819769404963  1.0000
  H   H30       1.0  0.9590739069684773  0.2454132831118088  0.6442021027969955  1.0000
  H   H31       1.0  0.04942551012885592  0.7602971343510277  0.147916435493201  1.0000
  H   H32       1.0  0.9505768782527254  0.23970475486296292  0.8520872310618441  1.0000
  H   H33       1.0  0.6443604070371621  0.4954826542918625  0.9970997385795283  1.0000
  H   H34       1.0  0.35564185738164883  0.5045181431096284  0.0028992028043079315  1.0000
  H   H35       1.0  0.6479504790200608  0.5100740086215865  0.2177683265848458  1.0000
  H   H36       1.0  0.35204837024373603  0.4899246437137137  0.7822294001778187  1.0000
  H   H37       1.0  0.3454409652341753  0.9813819411337051  0.4215616392947297  1.0000
  H   H38       1.0  0.6545578982222792  0.018616729438868204  0.5784403770152406  1.0000
  H   H39       1.0  0.7868287161987909  0.36744357475227235  0.41437352759448487  1.0000
  H   H40       1.0  0.2131713137171047  0.6325561577584083  0.5856264650687918  1.0000
  H   H41       1.0  0.6328650249457014  0.4152805805249643  0.4411314100044237  1.0000
  H   H42       1.0  0.3671359604050082  0.5847180777157419  0.5588682614927335  1.0000
  C   C1        1.0  0.4133935692806148  0.8018676734038481  0.057965999592859564  1.0000
  C   C2        1.0  0.5866076356103278  0.19813313198730503  0.9420345431521039  1.0000
  C   C3        1.0  0.3838318594157784  0.8448446109580491  0.9609069314333494  1.0000
  C   C4        1.0  0.6161661583759682  0.15515620745971864  0.03909584166664362  1.0000
  C   C5        1.0  0.2828667487139853  0.9425384627037375  0.9707651829742757  1.0000
  C   C6        1.0  0.7171321033883373  0.0574601932790131  0.029233401697844368  1.0000
  C   C7        1.0  0.21399942830338156  0.9980620131409669  0.07873898289035731  1.0000
  C   C8        1.0  0.785999542084653  0.0019377273593761011  0.9212626111340609  1.0000
  C   C9        1.0  0.24478789090721884  0.9565571718885054  0.17722902483473754  1.0000
  C   C10       1.0  0.7552132013750779  0.043442556279970304  0.8227702243768601  1.0000
  C   C11       1.0  0.343751217660909  0.8563223607089159  0.1664346374458178  1.0000
  C   C12       1.0  0.6562480763603987  0.1436805932221858  0.8335665476313918  1.0000
  C   C13       1.0  0.3691454795200998  0.7929768024059174  0.25929126039667943  1.0000
  C   C14       1.0  0.6308580399861866  0.20701540865173482  0.740705282820947  1.0000
  C   C15       1.0  0.3610834020724952  0.8065643327176917  0.4704851737320936  1.0000
  C   C16       1.0  0.6389176930483345  0.19343539909824164  0.5295149333889739  1.0000
  C   C17       1.0  0.5067596847729305  0.7495573390661647  0.4845529101009731  1.0000
  C   C18       1.0  0.4932431228193792  0.2504488189165386  0.5154464935834611  1.0000
  C   C19       1.0  0.3371615553956531  0.9116206138264434  0.6072166311186323  1.0000
  C   C20       1.0  0.6628361188930896  0.08837696562837752  0.39278054556233843  1.0000
  C   C21       1.0  0.1896123406664998  0.9654270456782543  0.6175886712967227  1.0000
  C   C22       1.0  0.8103864130198346  0.034570551319092105  0.3824129093893446  1.0000
  C   C23       1.0  0.06404647491628881  0.8566172077237866  0.5900011248993592  1.0000
  C   C24       1.0  0.9359501398445931  0.14338037972070342  0.4099976531427457  1.0000
  C   C25       1.0  0.7053013891020754  0.6329248700360781  0.7378669278531405  1.0000
  C   C26       1.0  0.29469735606866715  0.3670727160189103  0.2621320791045392  1.0000
  C   C27       1.0  0.7084054782095491  0.6248685124186578  0.8534472660349265  1.0000
  C   C28       1.0  0.2915976403895542  0.37513014808000383  0.14655349228726777  1.0000
  C   C29       1.0  0.8398009416436523  0.638214827277203  0.9309649808950337  1.0000
  C   C30       1.0  0.1602003701788703  0.36178704804171974  0.06903513956437732  1.0000
  C   C31       1.0  0.9643915793748263  0.6599604716788151  0.8863917179298892  1.0000
  C   C32       1.0  0.03561091026127631  0.3400424801680303  0.11360981052067842  1.0000
  C   C33       1.0  0.9526517699507764  0.6672611986712624  0.7695718157176828  1.0000
  C   C34       1.0  0.04734527537496551  0.3327406721317487  0.23042613109166143  1.0000
  C   C35       1.0  0.9538870820345766  0.6994399489285431  0.2749028045057644  1.0000
  C   C36       1.0  0.0461094201176593  0.30055656129326286  0.7250946800029751  1.0000
  C   C37       1.0  0.9587905604883389  0.7010464907333543  0.1572544289314522  1.0000
  C   C38       1.0  0.04121171812312951  0.2989543249054166  0.8427488019996898  1.0000
  C   C39       1.0  0.8443046195960805  0.6315065954864921  0.054914630916407275  1.0000
  C   C40       1.0  0.15569540464275627  0.3684931297292735  0.945083645927944  1.0000
  C   C41       1.0  0.7314444251917962  0.5586242545620905  0.07606911237455447  1.0000
  C   C42       1.0  0.26855795183565334  0.44137762006208453  0.9239311225426474  1.0000
  C   C43       1.0  0.734676548891521  0.5633505341815237  0.19718529595640177  1.0000
  C   C44       1.0  0.2653212351673346  0.4366481188485239  0.8028123163484719  1.0000
  N   N1        1.0  0.34809785654302783  0.871820584647445  0.38303611724916914  1.0000
  N   N2        1.0  0.651901333385226  0.12818130300334474  0.6169663480230553  1.0000
  N   N3        1.0  0.8253850144427873  0.6543205640325312  0.6962762366331389  1.0000
  N   N4        1.0  0.17461608067804243  0.3456791677833949  0.3037238704879215  1.0000
  N   N5        1.0  0.8433540772689059  0.6336009316746002  0.2959650562619558  1.0000
  N   N6        1.0  0.1566459526469899  0.3663988008360804  0.704034936401321  1.0000
  O   O1        1.0  0.6204120660179201  0.8167683948488008  0.4819547259821775  1.0000
  O   O2        1.0  0.3795885099100147  0.1832367018905501  0.5180465868911668  1.0000
  O   O3        1.0  0.5083588267637253  0.6410678590526403  0.5059606972438714  1.0000
  O   O4        1.0  0.49164876935679297  0.35893294217000726  0.4940405322478155  1.0000
  O   O5        1.0  0.4042668546779923  0.6680137481706795  0.22057636743907955  1.0000
  O   O6        1.0  0.5957319173118876  0.3319945670363893  0.7794251654809441  1.0000
  O   O7        1.0  0.9402346956462678  0.9011719527608335  0.5933437172307022  1.0000
  O   O8        1.0  0.0597661827728615  0.09882563555210312  0.40665637655201436  1.0000
  O   O9        1.0  0.08111243751039862  0.725255687688126  0.5605356941552841  1.0000
  O   O10       1.0  0.9188872602566248  0.2747408204494306  0.4394621337268204  1.0000
  O   O11       1.0  0.7145128081245034  0.42879087632258023  0.4001347672559844  1.0000
  O   O12       1.0  0.28548710634421337  0.5712077753179657  0.5998630739644638  1.0000
