data_image0
_chemical_formula_structural       Cd2H34C32N4O8
_chemical_formula_sum              "Cd2 H34 C32 N4 O8"
_cell_length_a       8.030964791586984
_cell_length_b       9.00839438071502
_cell_length_c       11.1250635442851
_cell_angle_alpha    82.04146417977782
_cell_angle_beta     73.86080327034082
_cell_angle_gamma    84.86727825371534

_space_group_name_H-M_alt    "P 1"
_space_group_IT_number       1

loop_
  _space_group_symop_operation_xyz
  'x, y, z'

loop_
  _atom_site_type_symbol
  _atom_site_label
  _atom_site_symmetry_multiplicity
  _atom_site_fract_x
  _atom_site_fract_y
  _atom_site_fract_z
  _atom_site_occupancy
  Cd  Cd1       1.0  0.0359472256187061  0.9894892770621274  0.8262645336474392  1.0000
  Cd  Cd2       1.0  0.9640553127887658  0.010510767858214403  0.17373144809078409  1.0000
  H   H1        1.0  0.44455673810308827  0.12011669877139754  0.02504846075231634  1.0000
  H   H2        1.0  0.5554459331709013  0.8798810793038926  0.974950433315371  1.0000
  H   H3        1.0  0.5535300065260955  0.13764717274138863  0.14171667418660408  1.0000
  H   H4        1.0  0.44647272442124836  0.8623494829063106  0.8582823278980315  1.0000
  H   H5        1.0  0.4094908073389902  0.3383389032121543  0.8681172796570636  1.0000
  H   H6        1.0  0.5905054443541785  0.6616577877754468  0.13188393172933394  1.0000
  H   H7        1.0  0.622096714452489  0.38381266133011155  0.17480314298206423  1.0000
  H   H8        1.0  0.37790206205842486  0.616185149677044  0.8251956386423771  1.0000
  H   H9        1.0  0.571930655506229  0.17474599932040752  0.6845998719811845  1.0000
  H   H10       1.0  0.4280693029167395  0.8252540406780329  0.3153993302672475  1.0000
  H   H11       1.0  0.5755140750812869  0.11623702199215563  0.5383543987731798  1.0000
  H   H12       1.0  0.42448576399497284  0.8837652628614879  0.4616445874413627  1.0000
  H   H13       1.0  0.2984921805572398  0.4308381987856579  0.7098530195921455  1.0000
  H   H14       1.0  0.7015051978812322  0.5691618362908815  0.2901494031664882  1.0000
  H   H15       1.0  0.6878425109379975  0.30368161780193503  0.3839399266769804  1.0000
  H   H16       1.0  0.31215740133143305  0.6963195226342693  0.6160618638500923  1.0000
  H   H17       1.0  0.9806966403452577  0.3969611267327694  0.8410906478041654  1.0000
  H   H18       1.0  0.01931090605076951  0.6030422513344933  0.15890396145397293  1.0000
  H   H19       1.0  0.07375584418223717  0.6365978427725101  0.9391813842263516  1.0000
  H   H20       1.0  0.926244343920942  0.3633977221754138  0.06081645255947174  1.0000
  H   H21       1.0  0.7115178210600135  0.5559501161660807  0.6195994282006866  1.0000
  H   H22       1.0  0.2884822015429123  0.4440487940748172  0.3804007808298806  1.0000
  H   H23       1.0  0.7491875798551177  0.3920918561324741  0.7184331760205112  1.0000
  H   H24       1.0  0.2508098492434954  0.6079070711763567  0.2815675572246833  1.0000
  H   H25       1.0  0.9076208291003454  0.35587869848183834  0.5052196894623223  1.0000
  H   H26       1.0  0.092377960930385  0.644119090535476  0.49478178845769344  1.0000
  H   H27       1.0  0.060677973026450616  0.3743042003620475  0.5897957770191411  1.0000
  H   H28       1.0  0.9393208721710237  0.6256924735576136  0.410204910152629  1.0000
  H   H29       1.0  0.7711955919544097  0.9492607908322985  0.6765652836156945  1.0000
  H   H30       1.0  0.228801905830764  0.05073699938904502  0.32343735517682864  1.0000
  H   H31       1.0  0.6605579746922103  0.8057817412975228  0.6418119512939883  1.0000
  H   H32       1.0  0.33944087501187437  0.19421492529218656  0.3581896346429687  1.0000
  H   H33       1.0  0.8700937183345091  0.8492339334768461  0.544755827171791  1.0000
  H   H34       1.0  0.1299050120228671  0.15076497796807337  0.4552455427312836  1.0000
  C   C1        1.0  0.7206381300962478  0.12720795506481863  0.9551130235012054  1.0000
  C   C2        1.0  0.2793643024843178  0.8727943127208775  0.04488543849871721  1.0000
  C   C3        1.0  0.5492367297657381  0.174813144407942  0.0444499023809826  1.0000
  C   C4        1.0  0.45076458958934035  0.8251857572989824  0.9555500445422708  1.0000
  C   C5        1.0  0.4497198016311827  0.4093761737811975  0.9257087335431747  1.0000
  C   C6        1.0  0.550276394895235  0.5906216323040568  0.07429326859146808  1.0000
  C   C7        1.0  0.5194574289589369  0.3428194322415764  0.02368132218669669  1.0000
  C   C8        1.0  0.4805413610717936  0.657178356775738  0.976320155733319  1.0000
  C   C9        1.0  0.5690471995116299  0.43498792561391053  0.09771896067502439  1.0000
  C   C10       1.0  0.43094728705575847  0.5650177386685797  0.9022834462135237  1.0000
  C   C11       1.0  0.33138142881254146  0.11186086778224795  0.6769128238173678  1.0000
  C   C12       1.0  0.6686171867047292  0.8881402811879299  0.3230892288170183  1.0000
  C   C13       1.0  0.5011880281577633  0.185435212850436  0.6110819992319563  1.0000
  C   C14       1.0  0.4988105783463014  0.8145659507796239  0.38891825587204215  1.0000
  C   C15       1.0  0.4938390985753713  0.34751614332185454  0.5548072234387362  1.0000
  C   C16       1.0  0.506160749514095  0.6524861268718994  0.445193560306194  1.0000
  C   C17       1.0  0.38804088337690956  0.46048511675816445  0.61810033829709  1.0000
  C   C18       1.0  0.6119576127936455  0.5395182770672167  0.3819014983033995  1.0000
  C   C19       1.0  0.6054304844507641  0.3900247079422032  0.4356444953568896  1.0000
  C   C20       1.0  0.3945692994587446  0.6099786920090938  0.5643552816059056  1.0000
  C   C21       1.0  0.8682134993465525  0.7309040161798351  0.726924147978771  1.0000
  C   C22       1.0  0.1317865874363306  0.2690937643035128  0.2730770678339312  1.0000
  C   C23       1.0  0.9583521229553611  0.5173265120415566  0.822361033351328  1.0000
  C   C24       1.0  0.041645838696837204  0.48266232074880133  0.17763977328116456  1.0000
  C   C25       1.0  0.004693235532229805  0.6359753936153683  0.868540542018941  1.0000
  C   C26       1.0  0.9953156571885914  0.36402789528851554  0.1314636915490013  1.0000
  C   C27       1.0  0.8114333222266481  0.48862335629828396  0.6561550448512038  1.0000
  C   C28       1.0  0.1885667600496319  0.5113744315150017  0.3438452721963117  1.0000
  C   C29       1.0  0.9603026831929141  0.4360406615088055  0.5493184983417194  1.0000
  C   C30       1.0  0.03969746326332311  0.5639559965469373  0.45068282548792377  1.0000
  C   C31       1.0  0.7885456661070195  0.8388691039938653  0.642651609205025  1.0000
  C   C32       1.0  0.21145306425035673  0.16112980745105437  0.3573497606980496  1.0000
  N   N1        1.0  0.9483519821469031  0.7679036800681448  0.8087345517360872  1.0000
  N   N2        1.0  0.051645391784966  0.23209636233833922  0.1912669722573597  1.0000
  N   N3        1.0  0.8724628253711798  0.5784061455712648  0.7338104866980544  1.0000
  N   N4        1.0  0.1275396623761438  0.42159500711678544  0.26618718455361556  1.0000
  O   O1        1.0  0.7316368567266524  0.11574695417119331  0.841367500486072  1.0000
  O   O2        1.0  0.26836043950545024  0.8842542399826814  0.15863032042965838  1.0000
  O   O3        1.0  0.8552218894461278  0.10082942342047833  0.9987745801484635  1.0000
  O   O4        1.0  0.14478145931344952  0.899179607046591  0.0012184778165221287  1.0000
  O   O5        1.0  0.20375559260977377  0.1886823026922642  0.7422957263032616  1.0000
  O   O6        1.0  0.7962493456746247  0.8113221415710827  0.2577082868044869  1.0000
  O   O7        1.0  0.32241993395227553  0.9729891646983265  0.6709054526614651  1.0000
  O   O8        1.0  0.6775720333914705  0.0270143450963616  0.3290887068236756  1.0000
