data_image0
_chemical_formula_structural       Cu12H60C84N24
_chemical_formula_sum              "Cu12 H60 C84 N24"
_cell_length_a       21.993747779397687
_cell_length_b       24.076944745212252
_cell_length_c       24.122983590518032
_cell_angle_alpha    94.57978321208108
_cell_angle_beta     95.12405911730461
_cell_angle_gamma    94.93343360999796

_space_group_name_H-M_alt    "P 1"
_space_group_IT_number       1

loop_
  _space_group_symop_operation_xyz
  'x, y, z'

loop_
  _atom_site_type_symbol
  _atom_site_label
  _atom_site_symmetry_multiplicity
  _atom_site_fract_x
  _atom_site_fract_y
  _atom_site_fract_z
  _atom_site_occupancy
  Cu  Cu1       1.0  0.19951491481583625  0.23357714214404982  0.11611882138132053  1.0000
  Cu  Cu2       1.0  0.2273139330901444  0.165727995417349  0.22242419127308474  1.0000
  Cu  Cu3       1.0  0.0967962336787167  0.2108694656296279  0.19675667696033375  1.0000
  Cu  Cu4       1.0  0.8086698787401261  0.22426439335857404  0.8616267915583935  1.0000
  Cu  Cu5       1.0  0.8045144760168341  0.1100174066110711  0.7827509731683051  1.0000
  Cu  Cu6       1.0  0.8793666733347577  0.2204594041862507  0.7536440886153173  1.0000
  Cu  Cu7       1.0  0.2135503945437947  0.7742357935409885  0.8749334248515839  1.0000
  Cu  Cu8       1.0  0.23579051884235716  0.8540618299909398  0.7795859653828928  1.0000
  Cu  Cu9       1.0  0.1048587068720934  0.7838318913472618  0.7848971274768317  1.0000
  Cu  Cu10      1.0  0.7533422382851781  0.765694548943557  0.13638847606673474  1.0000
  Cu  Cu11      1.0  0.7617164875013459  0.8246019337102127  0.2595790231580466  1.0000
  Cu  Cu12      1.0  0.8544435421235974  0.7370623724830737  0.22902323907160851  1.0000
  H   H1        1.0  0.31657535782543533  0.21323719356131218  0.05234736102016771  1.0000
  H   H2        1.0  0.355038025936679  0.12330088195251679  0.19808431805119403  1.0000
  H   H3        1.0  0.9945955801197073  0.2841737698330462  0.14772102528862527  1.0000
  H   H4        1.0  0.1385074934124759  0.31970624891845734  0.040610857739857016  1.0000
  H   H5        1.0  0.20736854381695477  0.1092454900592585  0.3351545774357874  1.0000
  H   H6        1.0  0.027035325580826004  0.1630290144668365  0.29420502694170386  1.0000
  H   H7        1.0  0.7155527113050297  0.18766637732348096  0.9469055150763952  1.0000
  H   H8        1.0  0.7043111789743008  0.03480194370110469  0.837273529292311  1.0000
  H   H9        1.0  0.909066199515763  0.3509500939199555  0.7443017659516686  1.0000
  H   H10       1.0  0.8347125960506145  0.3537528825650256  0.9046557458147719  1.0000
  H   H11       1.0  0.8463932096533711  0.02079619258162069  0.6914689538064351  1.0000
  H   H12       1.0  0.9504559339108525  0.1725626042368944  0.6553906389590695  1.0000
  H   H13       1.0  0.31640169685099545  0.8266439757932602  0.9671224983998744  1.0000
  H   H14       1.0  0.3587036843784546  0.9266760284944908  0.8316960206772422  1.0000
  H   H15       1.0  0.0019255952025077168  0.6968355031479379  0.8255443672182569  1.0000
  H   H16       1.0  0.16028219486204162  0.6733601876286386  0.9386832842322621  1.0000
  H   H17       1.0  0.20693695993649894  0.9174119666218485  0.6724007359576804  1.0000
  H   H18       1.0  0.02713668983727052  0.8348304189432624  0.6881548242034798  1.0000
  H   H19       1.0  0.6682909232879268  0.8452173493677152  0.07272093464197842  1.0000
  H   H20       1.0  0.6660227781923352  0.9141371153761781  0.24400254868672996  1.0000
  H   H21       1.0  0.9084728905219278  0.6347703104127405  0.16513939146373255  1.0000
  H   H22       1.0  0.7776481040175725  0.679989433060612  0.035212262932176906  1.0000
  H   H23       1.0  0.8243345039418344  0.8828407683492472  0.3732146594356395  1.0000
  H   H24       1.0  0.9660074431399719  0.78270145698324  0.31893519971718126  1.0000
  H   H25       1.0  0.040060280966194704  0.12095197908772802  0.49284813155685486  1.0000
  H   H26       1.0  0.9857855179061373  0.9619328857713826  0.5547260848532717  1.0000
  H   H27       1.0  0.1649541546308839  0.014320499987611902  0.5051966084820948  1.0000
  H   H28       1.0  0.024350989455214717  0.9874238215294255  0.3858572658191549  1.0000
  H   H29       1.0  0.5245955142036607  0.026302878761939003  0.1452135111080395  1.0000
  H   H30       1.0  0.5751241380025505  0.9880007231995408  0.97820906953136  1.0000
  H   H31       1.0  0.53586190312528  0.15119692143113636  0.04826667055748861  1.0000
  H   H32       1.0  0.3979085797807543  0.03324550706218331  0.019805227454043  1.0000
  H   H33       1.0  0.09495934812257192  0.4882739145162915  0.993585031313437  1.0000
  H   H34       1.0  0.9274966977999027  0.5628408226901414  0.9489711005685851  1.0000
  H   H35       1.0  0.9576801647979776  0.45793665866853667  0.08391696997423281  1.0000
  H   H36       1.0  0.9535170696870238  0.3867084387476111  0.9272008319959756  1.0000
  H   H37       1.0  0.4152910086526233  0.1515069975714809  0.04628378506208721  1.0000
  H   H38       1.0  0.4415639164400389  0.08553140170501192  0.14851952564375645  1.0000
  H   H39       1.0  0.632879474890018  0.028496201972970404  0.927182809914939  1.0000
  H   H40       1.0  0.6194583978585513  0.1465574416920532  0.9813054156267571  1.0000
  H   H41       1.0  0.3889217719843074  0.9271172439094286  0.9984856995089831  1.0000
  H   H42       1.0  0.4689556578128133  0.9578224507374956  0.9053195503826788  1.0000
  H   H43       1.0  0.5995543480135552  0.9686361429318635  0.16887189630183747  1.0000
  H   H44       1.0  0.6138295644500218  0.9312787627146049  0.046106602621158316  1.0000
  H   H45       1.0  0.9728182095490041  0.3686034780146983  0.07931712115479432  1.0000
  H   H46       1.0  0.0748964887985863  0.3892167879589579  0.0020564195706712007  1.0000
  H   H47       1.0  0.8703324506011682  0.6082395435418277  0.9998747894051835  1.0000
  H   H48       1.0  0.9025743206241186  0.5436572439373037  0.1020433532615712  1.0000
  H   H49       1.0  0.8639825310422535  0.4559759572067179  0.7896882804117596  1.0000
  H   H50       1.0  0.8943509383598  0.5218378282749043  0.8634772092654543  1.0000
  H   H51       1.0  0.9796248068350831  0.6197260636218331  0.9053801795404155  1.0000
  H   H52       1.0  0.10300053185139997  0.5847051923381769  0.955372739992619  1.0000
  H   H53       1.0  0.0335401615447921  0.1034955002548799  0.3846901903474206  1.0000
  H   H54       1.0  0.15985420901036917  0.064054671119969  0.41899952145047353  1.0000
  H   H55       1.0  0.027793263250586585  0.9124835736998094  0.6096768287723223  1.0000
  H   H56       1.0  0.15895648267186152  0.9547082860456868  0.5875284050374178  1.0000
  H   H57       1.0  0.006751549541682792  0.882824579312647  0.3876452706795704  1.0000
  H   H58       1.0  0.9077152324598146  0.9149359024534789  0.4634365313058099  1.0000
  H   H59       1.0  0.9337522909091901  0.005803653085735006  0.6119786897069945  1.0000
  H   H60       1.0  0.9718517400428722  0.1206767326824334  0.5712922156210425  1.0000
  C   C1        1.0  0.31744697602809424  0.19462031719881884  0.09192833150375183  1.0000
  C   C2        1.0  0.3600304232411986  0.16069288160773001  0.11537294124418201  1.0000
  C   C3        1.0  0.3372761448296444  0.1486005024177857  0.16618983170258872  1.0000
  C   C4        1.0  0.0355125664280607  0.2863093439524178  0.12558595639768552  1.0000
  C   C5        1.0  0.0505994698512353  0.3195852097455685  0.08263490630051253  1.0000
  C   C6        1.0  0.10882247682236823  0.304545650906519  0.07082231476037752  1.0000
  C   C7        1.0  0.16672083843471341  0.12663975712225553  0.3176817784947731  1.0000
  C   C8        1.0  0.1077454325160048  0.1256112194527077  0.3360574278950068  1.0000
  C   C9        1.0  0.07474988557132892  0.154173427446608  0.29654766274139643  1.0000
  C   C10       1.0  0.7195896235766526  0.1544071198739516  0.9147187825843803  1.0000
  C   C11       1.0  0.6890379503635201  0.10010189317547  0.9057867129429482  1.0000
  C   C12       1.0  0.7145228927784331  0.07625584724981853  0.859049036187159  1.0000
  C   C13       1.0  0.8892006894491828  0.3417695988283925  0.7825415282929102  1.0000
  C   C14       1.0  0.8760668573187472  0.3788268674358051  0.8270355820171462  1.0000
  C   C15       1.0  0.8522267003804415  0.34316811071948183  0.8648879949417323  1.0000
  C   C16       1.0  0.8673465152443354  0.06301457256657267  0.6894605679010796  1.0000
  C   C17       1.0  0.9097677104660774  0.082881471519002  0.6536250277243881  1.0000
  C   C18       1.0  0.919822193308704  0.14059329633860068  0.6704245413911636  1.0000
  C   C19       1.0  0.3193388429230808  0.8452562267832134  0.9277921981681987  1.0000
  C   C20       1.0  0.35890936119271544  0.8905917619152391  0.9152526968409306  1.0000
  C   C21       1.0  0.34176176503957123  0.8958260798500249  0.8584371219830945  1.0000
  C   C22       1.0  0.046411032970176805  0.6981148982277363  0.8493305352378047  1.0000
  C   C23       1.0  0.06528531640048393  0.665921061389092  0.8928622211393819  1.0000
  C   C24       1.0  0.12740805077987719  0.6855391526513798  0.9066874042798292  1.0000
  C   C25       1.0  0.1670392775310034  0.8922509550784952  0.6831069364312018  1.0000
  C   C26       1.0  0.10557485420810761  0.8887399302100789  0.659937811840763  1.0000
  C   C27       1.0  0.07528020927676951  0.8503670788995024  0.6916386011762939  1.0000
  C   C28       1.0  0.6739583465522685  0.8556262888859579  0.11759344923397923  1.0000
  C   C29       1.0  0.6509130415255272  0.8988645546222925  0.15010348914897523  1.0000
  C   C30       1.0  0.6726603352930454  0.8903709736273414  0.2051689988590085  1.0000
  C   C31       1.0  0.8721826874300829  0.6516605848600817  0.1400342785789803  1.0000
  C   C32       1.0  0.8515931030600042  0.6386694464378877  0.08313747328750051  1.0000
  C   C33       1.0  0.8064083498645475  0.6756050588427769  0.07329948076724692  1.0000
  C   C34       1.0  0.8514369964262585  0.8522411541588611  0.35422499149073877  1.0000
  C   C35       1.0  0.9141935032428206  0.8456749888144087  0.3650857569602907  1.0000
  C   C36       1.0  0.9239451867421522  0.8016533194293061  0.32581409698585173  1.0000
  C   C37       1.0  0.07657048222888821  0.0396109375880016  0.4609408474037765  1.0000
  C   C38       1.0  0.0376366956353493  0.07596883058108261  0.49613453529894275  1.0000
  C   C39       1.0  0.004695283505888904  0.0482436523080949  0.5316774578464633  1.0000
  C   C40       1.0  0.012842327984664306  0.9852480379874606  0.5268558406831334  1.0000
  C   C41       1.0  0.11509638876790972  0.010824390572338406  0.5040352268080711  1.0000
  C   C42       1.0  0.08248766288454591  0.9816088613714695  0.5388690388186037  1.0000
  C   C43       1.0  0.030224648911840308  0.9928310366826025  0.43129610687728376  1.0000
  C   C44       1.0  0.9972051710697871  0.9634371155122281  0.4652385330398376  1.0000
  C   C45       1.0  0.48678603348140825  0.0698141463750375  0.07100268494782111  1.0000
  C   C46       1.0  0.5261431756973921  0.0295861688929548  0.10056535289205472  1.0000
  C   C47       1.0  0.5588351339500832  0.9988949483475409  0.0668996226641951  1.0000
  C   C48       1.0  0.5486391737618064  0.012912700621484393  0.005542881568679501  1.0000
  C   C49       1.0  0.5318274593628871  0.10575280387046598  0.04057448151306891  1.0000
  C   C50       1.0  0.5649688674914444  0.0763939240532423  0.006071899461574002  1.0000
  C   C51       1.0  0.4474905214601889  0.03244104677518318  0.023812382011840303  1.0000
  C   C52       1.0  0.4791690924081138  0.001592310354681122  0.9898609748234863  1.0000
  C   C53       1.0  0.00021343350411480002  0.44403777855406895  0.0015364568511558009  1.0000
  C   C54       1.0  0.045821922358968  0.4921851896748278  0.9882339186317425  1.0000
  C   C55       1.0  0.0200195076131848  0.5362387484626723  0.9680339190519905  1.0000
  C   C56       1.0  0.9495546159659228  0.5274414916611221  0.9647580247889068  1.0000
  C   C57       1.0  0.9604858939048028  0.4718055881164745  0.042268642909121516  1.0000
  C   C58       1.0  0.9343499182281076  0.5165568264892286  0.0239374271115267  1.0000
  C   C59       1.0  0.9578242891020922  0.42933296290620143  0.9467865895853296  1.0000
  C   C60       1.0  0.931897600198546  0.4731957195139742  0.9262642316771308  1.0000
  C   C61       1.0  0.4102128794827777  0.13856528955425768  0.08831414343195122  1.0000
  C   C62       1.0  0.4462837876469408  0.1004425461383178  0.10731337187516493  1.0000
  C   C63       1.0  0.6425421356653587  0.0737548188255488  0.9363645382861563  1.0000
  C   C64       1.0  0.6107273714293341  0.10095331217561922  0.9740789514397863  1.0000
  C   C65       1.0  0.4006984069819596  0.9263301655459986  0.9552883425166032  1.0000
  C   C66       1.0  0.4505217777541759  0.9603119432539488  0.9460634488068751  1.0000
  C   C67       1.0  0.61435376151087  0.9429130754532978  0.13398068112034175  1.0000
  C   C68       1.0  0.5976104236524904  0.9555297117404039  0.08128224063786153  1.0000
  C   C69       1.0  0.015476303166394697  0.36258179231036536  0.06041397383310711  1.0000
  C   C70       1.0  0.032659695759164706  0.39597019095723607  0.02141127238969181  1.0000
  C   C71       1.0  0.8745355504054118  0.5989529048728599  0.043632947800190905  1.0000
  C   C72       1.0  0.9022821349086241  0.5534030493818419  0.05842668745436442  1.0000
  C   C73       1.0  0.8798707234765645  0.4396025882479648  0.8289085008401431  1.0000
  C   C74       1.0  0.8995985982992849  0.47844147607147386  0.8720607266336062  1.0000
  C   C75       1.0  0.029208420037079495  0.6219645722752033  0.9160638686642528  1.0000
  C   C76       1.0  0.05305796316570622  0.5831071052319743  0.9472947295829218  1.0000
  C   C77       1.0  0.0825609077992482  0.09963755221107819  0.3821452882531205  1.0000
  C   C78       1.0  0.11119394293422859  0.0699861718958061  0.4197857441312466  1.0000
  C   C79       1.0  0.07787711273956431  0.9179437001070099  0.6156044959733366  1.0000
  C   C80       1.0  0.1087412777654819  0.9507917850202502  0.5821967683414685  1.0000
  C   C81       1.0  0.96027486845108  0.8816794558713142  0.40067259182060877  1.0000
  C   C82       1.0  0.9514066542730363  0.9177193656373744  0.44476734137177243  1.0000
  C   C83       1.0  0.9379969350626495  0.05129248153116352  0.610955611230594  1.0000
  C   C84       1.0  0.9700412948655529  0.07513599600162729  0.5720156697360609  1.0000
  N   N1        1.0  0.285143497897586  0.173172348548654  0.17203929195167691  1.0000
  N   N2        1.0  0.2726455993442443  0.2017331106082239  0.12583779355926342  1.0000
  N   N3        1.0  0.12682690770363791  0.2657791813785265  0.10449433148546211  1.0000
  N   N4        1.0  0.08131175668637519  0.25433592400884203  0.13854594695748557  1.0000
  N   N5        1.0  0.1111375739217095  0.1707956862346904  0.2577457341524649  1.0000
  N   N6        1.0  0.1683000043345757  0.1537437635101568  0.2709520993005157  1.0000
  N   N7        1.0  0.7563859762565882  0.11347701997232922  0.8414550567298423  1.0000
  N   N8        1.0  0.7596604317714934  0.16196294372512912  0.8762531805102259  1.0000
  N   N9        1.0  0.8510342123571774  0.2892982679110716  0.8442503257936098  1.0000
  N   N10       1.0  0.8746965567338449  0.2884094318622061  0.7933188393736614  1.0000
  N   N11       1.0  0.8859097152398406  0.1536992265690316  0.7125186667375092  1.0000
  N   N12       1.0  0.8531146095333357  0.10558149772529654  0.7243736472979595  1.0000
  N   N13       1.0  0.2954263646415924  0.856752222374979  0.8390144526271257  1.0000
  N   N14       1.0  0.2818645445081245  0.8250735388444993  0.8821523005079829  1.0000
  N   N15       1.0  0.1438194947681382  0.7258523646532993  0.8738608991154992  1.0000
  N   N16       1.0  0.09367614657001161  0.7335852659247948  0.8379729331717984  1.0000
  N   N17       1.0  0.11537486505152834  0.832587224116459  0.7304379610877451  1.0000
  N   N18       1.0  0.1724339481432935  0.8587573999077948  0.7251154958002602  1.0000
  N   N19       1.0  0.7061700160918604  0.8460732371283015  0.20534592977819707  1.0000
  N   N20       1.0  0.7069290598223077  0.824529022380844  0.15085423454708294  1.0000
  N   N21       1.0  0.8004631065079267  0.7076701100569665  0.12063170155526855  1.0000
  N   N22       1.0  0.8416555710407465  0.6929821988818787  0.16202536554433075  1.0000
  N   N23       1.0  0.8712681733400913  0.7836783959624114  0.29414242640446997  1.0000
  N   N24       1.0  0.8261227117064391  0.8154072495169018  0.31164018294276735  1.0000
