data_image0
_chemical_formula_structural       Zn8H16C80N32F48
_chemical_formula_sum              "Zn8 H16 C80 N32 F48"
_cell_length_a       16.192977210774362
_cell_length_b       16.285501371980537
_cell_length_c       19.133483860262317
_cell_angle_alpha    90.24636966933048
_cell_angle_beta     89.86920527875564
_cell_angle_gamma    90.04722594708184

_space_group_name_H-M_alt    "P 1"
_space_group_IT_number       1

loop_
  _space_group_symop_operation_xyz
  'x, y, z'

loop_
  _atom_site_type_symbol
  _atom_site_label
  _atom_site_symmetry_multiplicity
  _atom_site_fract_x
  _atom_site_fract_y
  _atom_site_fract_z
  _atom_site_occupancy
  Zn  Zn1       1.0  0.4973692737284451  0.3528568165356348  0.997324414220479  1.0000
  Zn  Zn2       1.0  0.6440367128860912  0.49903064139493825  0.0013267285772399998  1.0000
  Zn  Zn3       1.0  0.49890536514087797  0.6458618295154606  0.0061263191194242984  1.0000
  Zn  Zn4       1.0  0.3510502937138185  0.5004960606962638  0.9975000881351401  1.0000
  Zn  Zn5       1.0  0.0032854066449772  0.8530646793525631  0.5017951694148335  1.0000
  Zn  Zn6       1.0  0.1481057172180726  0.0012645038816429996  0.493122140324587  1.0000
  Zn  Zn7       1.0  0.0023597885091887994  0.14918634171750259  0.4962695298295827  1.0000
  Zn  Zn8       1.0  0.8582311387516128  0.0007776296228953999  0.5001167447488726  1.0000
  H   H1        1.0  0.8747318905281034  0.7077852146671261  0.8681507735596056  1.0000
  H   H2        1.0  0.9600583989761161  0.19787566590565575  0.19919894812985459  1.0000
  H   H3        1.0  0.625532902261682  0.7889867624612067  0.3704222744240936  1.0000
  H   H4        1.0  0.040602052717055394  0.775518347032637  0.22129745549697324  1.0000
  H   H5        1.0  0.37925906470484694  0.8032132165227992  0.636242803644407  1.0000
  H   H6        1.0  0.9608398469888398  0.7978213262629765  0.7969901717077903  1.0000
  H   H7        1.0  0.6255685144480623  0.21009053719502896  0.6339466640252737  1.0000
  H   H8        1.0  0.0366971999707104  0.20007299583249957  0.7902999842766291  1.0000
  H   H9        1.0  0.4667200337949211  0.712907930556561  0.707753178309872  1.0000
  H   H10       1.0  0.12209398833114447  0.29022567843058056  0.8615764134310027  1.0000
  H   H11       1.0  0.5381043360343369  0.30019050884538956  0.7037818735925396  1.0000
  H   H12       1.0  0.8748532817690204  0.2874377053231071  0.12753167016502687  1.0000
  H   H13       1.0  0.468774354390014  0.3065886606032321  0.2967040453296618  1.0000
  H   H14       1.0  0.1004346601249964  0.7274466407528875  0.10840452286215908  1.0000
  H   H15       1.0  0.5396463394200312  0.6985002229392662  0.2998141118687982  1.0000
  H   H16       1.0  0.38338709151229006  0.2131420278689049  0.3667779875774783  1.0000
  C   C1        1.0  0.6489950619919894  0.2511073387615354  0.04097502222906259  1.0000
  C   C2        1.0  0.13242540126395141  0.034676805940371494  0.6478141983776026  1.0000
  C   C3        1.0  0.8500350025022669  0.248603951368267  0.5448696156245346  1.0000
  C   C4        1.0  0.868776608105399  0.9620593229275158  0.6532633772416927  1.0000
  C   C5        1.0  0.1557332504342313  0.24866856733450493  0.4524134038481121  1.0000
  C   C6        1.0  0.11504610374372962  0.9716107641844046  0.33926609011835035  1.0000
  C   C7        1.0  0.8496831662139996  0.752236730878003  0.4592690923724517  1.0000
  C   C8        1.0  0.8677394938670063  0.03695562134892329  0.34552247529642693  1.0000
  C   C9        1.0  0.5368841557535333  0.6251033199955173  0.1608094699895659  1.0000
  C   C10       1.0  0.25192047427986347  0.6489896827257695  0.056474367487865586  1.0000
  C   C11       1.0  0.4650737876379267  0.37350735563864385  0.15261778165342577  1.0000
  C   C12       1.0  0.633268576461397  0.5334454792853124  0.1561429202990752  1.0000
  C   C13       1.0  0.7421941968367348  0.3457699580648281  0.048146004425710494  1.0000
  C   C14       1.0  0.5336475336761096  0.3740609827651227  0.8434128218784877  1.0000
  C   C15       1.0  0.2528041963882259  0.34876350929938127  0.944310254123195  1.0000
  C   C16       1.0  0.46310620963189564  0.6382802050651006  0.8495227403151941  1.0000
  C   C17       1.0  0.7434058740497066  0.6508207395712657  0.9507352113965833  1.0000
  C   C18       1.0  0.036514997850318316  0.12692975930315947  0.6508410378053995  1.0000
  C   C19       1.0  0.7585133412148012  0.15239831844836974  0.5525989187475631  1.0000
  C   C20       1.0  0.9648360276123427  0.8700737061201805  0.6564962044195254  1.0000
  C   C21       1.0  0.2508505284479626  0.8528389494525896  0.5442481365529446  1.0000
  C   C22       1.0  0.025948630677675093  0.8728565348376448  0.34443323916791246  1.0000
  C   C23       1.0  0.34940470526455397  0.739152439735953  0.06518176740215857  1.0000
  C   C24       1.0  0.7581655941847243  0.8480923851005925  0.45044615585722164  1.0000
  C   C25       1.0  0.9608475614297021  0.1321252749060733  0.3418248849210953  1.0000
  C   C26       1.0  0.24778205722449795  0.15311816109866067  0.44413443387133356  1.0000
  C   C27       1.0  0.7313136997198272  0.2618667799793711  0.0626807286309088  1.0000
  C   C28       1.0  0.599850585531051  0.5919070262640103  0.2026911883950717  1.0000
  C   C29       1.0  0.2661588164727533  0.7278474820702453  0.08411884130604359  1.0000
  C   C30       1.0  0.4031900668399686  0.40623757342226696  0.19632698398198295  1.0000
  C   C31       1.0  0.7326761882677532  0.734573106460466  0.9356367475477825  1.0000
  C   C32       1.0  0.5962269180873107  0.4077498441263926  0.801134467861857  1.0000
  C   C33       1.0  0.262941095172927  0.26456130429369296  0.9300880045620232  1.0000
  C   C34       1.0  0.3676922492339473  0.4642090771933311  0.1510397276397697  1.0000
  C   C35       1.0  0.4031516646593403  0.605831275125652  0.8038867202896682  1.0000
  C   C36       1.0  0.2410449633050717  0.7705751874274255  0.5645299493087705  1.0000
  C   C37       1.0  0.0979313519760439  0.0929995371714867  0.6939328672521512  1.0000
  C   C38       1.0  0.7679446858855313  0.23665873736302245  0.5670032035489  1.0000
  C   C39       1.0  0.9009508728562281  0.9021216124007764  0.6985087657564151  1.0000
  C   C40       1.0  0.23830795854717474  0.23752931832374455  0.4312551271471959  1.0000
  C   C41       1.0  0.07819395583763368  0.911880695029694  0.29595446398001707  1.0000
  C   C42       1.0  0.7676005398551808  0.7635660790854075  0.43730693209164423  1.0000
  C   C43       1.0  0.8989865579397501  0.09691333584340357  0.2996621125138859  1.0000
  C   C44       1.0  0.8531972362906401  0.7705845490741012  0.8602442057977198  1.0000
  C   C45       1.0  0.6510184550683179  0.7460192908535672  0.9591255886187753  1.0000
  C   C46       1.0  0.4039191659950633  0.6935030011390352  0.6953629284087057  1.0000
  C   C47       1.0  0.142755913671337  0.22679833733499774  0.855233167065897  1.0000
  C   C48       1.0  0.6008823692424768  0.3204317752811433  0.6922820741378145  1.0000
  C   C49       1.0  0.852672757159148  0.22492327404116705  0.13609195792738396  1.0000
  C   C50       1.0  0.4046504671976763  0.32306261010683807  0.3072402981229273  1.0000
  C   C51       1.0  0.1328058605209108  0.7735139212704423  0.13958384832069726  1.0000
  C   C52       1.0  0.6022637894167815  0.6785570813765742  0.3118713341708314  1.0000
  C   C53       1.0  0.3611331831261069  0.27577648456443166  0.35930574264891385  1.0000
  C   C54       1.0  0.8965718766311143  0.17923166735698703  0.1886653223980588  1.0000
  C   C55       1.0  0.6463773131990892  0.7256615543245174  0.36375761882273844  1.0000
  C   C56       1.0  0.628641377231432  0.4672669201245937  0.8471685952089912  1.0000
  C   C57       1.0  0.0884331679940118  0.8125056363120959  0.1962495083436622  1.0000
  C   C58       1.0  0.36038657014135106  0.7392261766586612  0.64243742372129  1.0000
  C   C59       1.0  0.8974678402430669  0.816649306234268  0.807901894689351  1.0000
  C   C60       1.0  0.6460833377771635  0.27351278664109197  0.6407670342491656  1.0000
  C   C61       1.0  0.09899957832222127  0.17975197708860693  0.8030857610842899  1.0000
  C   C62       1.0  0.7851233704130038  0.7908915350706491  0.8976753653230958  1.0000
  C   C63       1.0  0.3702745875778177  0.6376560500196361  0.7391717599290927  1.0000
  C   C64       1.0  0.21001004968459114  0.2072041096522881  0.8935496564274101  1.0000
  C   C65       1.0  0.6318792468822637  0.3776873833101461  0.7365265126003846  1.0000
  C   C66       1.0  0.7839617628115291  0.2050346029549672  0.09958399872439118  1.0000
  C   C67       1.0  0.3449042870840416  0.2533730303840258  0.9523783727657997  1.0000
  C   C68       1.0  0.36998590050109215  0.3759914358421098  0.261584439819039  1.0000
  C   C69       1.0  0.2151810188185692  0.778713397009035  0.12863900671252537  1.0000
  C   C70       1.0  0.6343505804984773  0.621730712009068  0.2676886454844477  1.0000
  C   C71       1.0  0.29211485948904686  0.29489345271989  0.3959046735208388  1.0000
  C   C72       1.0  0.8638522333165426  0.1252818269573126  0.2346743729455341  1.0000
  C   C73       1.0  0.7141625076065664  0.7061427315774722  0.4014302268747656  1.0000
  C   C74       1.0  0.10352368255930597  0.8862022157607042  0.22658357456114686  1.0000
  C   C75       1.0  0.29513448229241845  0.7163453260680936  0.6028620611050143  1.0000
  C   C76       1.0  0.8652699084161597  0.8717171887221083  0.7627708140987719  1.0000
  C   C77       1.0  0.714184297395434  0.29349707045574996  0.6033521344994952  1.0000
  C   C78       1.0  0.3697518845149474  0.5433384355255839  0.8460254531365122  1.0000
  C   C79       1.0  0.1313452020044323  0.12255443804104257  0.7594061557146785  1.0000
  C   C80       1.0  0.15784568427170598  0.7577209839061536  0.5464363238195274  1.0000
  N   N1        1.0  0.6152257459146637  0.3200614400181364  0.016930305148307  1.0000
  N   N2        1.0  0.09661697885245249  0.03498162898043938  0.5850263403564993  1.0000
  N   N3        1.0  0.8848567347001365  0.1800285360567813  0.5206377463065264  1.0000
  N   N4        1.0  0.9081916157257834  0.9646013366212499  0.5919156293366966  1.0000
  N   N5        1.0  0.1206684053498606  0.17950563171886808  0.4748663036066318  1.0000
  N   N6        1.0  0.08872285108861179  0.9673378394484047  0.4054487866499129  1.0000
  N   N7        1.0  0.8845552610012888  0.8213418566004264  0.4823166929658457  1.0000
  N   N8        1.0  0.9058893973863319  0.03719279385823169  0.4073809340313801  1.0000
  N   N9        1.0  0.5338283619489771  0.5914733272550237  0.0971285756517872  1.0000
  N   N10       1.0  0.31791898617741055  0.6170033454691219  0.025023410766443994  1.0000
  N   N11       1.0  0.465632290015769  0.4069916854463073  0.08907577258345609  1.0000
  N   N12       1.0  0.5953712296130431  0.5329381691401948  0.09422491803456269  1.0000
  N   N13       1.0  0.6753326716548855  0.38082095729890847  0.021267657564599994  1.0000
  N   N14       1.0  0.5299804867500696  0.4083739495479719  0.906788022951929  1.0000
  N   N15       1.0  0.319742451316543  0.3835513088834403  0.971736151347244  1.0000
  N   N16       1.0  0.46459402748702416  0.6004184240573451  0.9112605226574572  1.0000
  N   N17       1.0  0.6770901323402825  0.6165028989361045  0.9795164449500146  1.0000
  N   N18       1.0  0.035360355837120494  0.09381196244734717  0.586947791315687  1.0000
  N   N19       1.0  0.8259224358467845  0.11823093884210317  0.5253228532906249  1.0000
  N   N20       1.0  0.969590526791258  0.9058327004584398  0.5939845383037008  1.0000
  N   N21       1.0  0.1825858797608717  0.8852197992168483  0.517288628266378  1.0000
  N   N22       1.0  0.03145404955745329  0.9048060376623039  0.4085305824552137  1.0000
  N   N23       1.0  0.3806690419050441  0.6751450064279537  0.030658924734133595  1.0000
  N   N24       1.0  0.8256061912333051  0.8829439501226801  0.47686964598230464  1.0000
  N   N25       1.0  0.9653711083754429  0.0979239170511761  0.4048995665863657  1.0000
  N   N26       1.0  0.18004531747898506  0.11821263202489969  0.4699019624453342  1.0000
  N   N27       1.0  0.40343617954822253  0.4649203734615099  0.08809185725486658  1.0000
  N   N28       1.0  0.6174814103074766  0.6776032823883966  0.9846818248834733  1.0000
  N   N29       1.0  0.5907290661502671  0.46788622669760116  0.9092931997337103  1.0000
  N   N30       1.0  0.37909224817006765  0.3222691132097494  0.9766482876218558  1.0000
  N   N31       1.0  0.4049627597528271  0.5398386179676607  0.9089456328584117  1.0000
  N   N32       1.0  0.1226204702469289  0.8241373833626469  0.5191274180290435  1.0000
  F   F1        1.0  0.6026950967755409  0.18325888218914338  0.043240997082847295  1.0000
  F   F2        1.0  0.1947300929909872  0.9828981908489851  0.660202094519164  1.0000
  F   F3        1.0  0.8952234831773181  0.31723247595420645  0.546982630160251  1.0000
  F   F4        1.0  0.8055964987141309  0.013144248667991599  0.6651909278305508  1.0000
  F   F5        1.0  0.11028604426175549  0.31703381029732464  0.45086822736723775  1.0000
  F   F6        1.0  0.17225861529147582  0.027244995215468693  0.32193570803030974  1.0000
  F   F7        1.0  0.8949273144462778  0.6836854037047002  0.45778168427671045  1.0000
  F   F8        1.0  0.8065357968468377  0.9835318108024109  0.33366921353675133  1.0000
  F   F9        1.0  0.4844158661399547  0.6854883516422845  0.17819359924639136  1.0000
  F   F10       1.0  0.1822207525868365  0.6047975085475128  0.05989642946227748  1.0000
  F   F11       1.0  0.5185554125195182  0.31355471105675997  0.16810409661196954  1.0000
  F   F12       1.0  0.6962413494831239  0.4820219406443939  0.16723804605264544  1.0000
  F   F13       1.0  0.810131337077024  0.39144693023107635  0.05806994966713568  1.0000
  F   F14       1.0  0.482046676412665  0.3125707071998818  0.8268911627648305  1.0000
  F   F15       1.0  0.1854486641294457  0.39481673720803184  0.9336391094727432  1.0000
  F   F16       1.0  0.5141594572013091  0.701437556343954  0.8372808442621036  1.0000
  F   F17       1.0  0.8107778748341161  0.6047076382957569  0.9396166087092295  1.0000
  F   F18       1.0  0.984003452582982  0.18765385475654736  0.6672669302553231  1.0000
  F   F19       1.0  0.6913216286528581  0.10577520194082271  0.5629157430908193  1.0000
  F   F20       1.0  0.016836363811741296  0.8089495936168092  0.6724566959311389  1.0000
  F   F21       1.0  0.3189681838797681  0.8993432748911656  0.5492453803309232  1.0000
  F   F22       1.0  0.9751162651976131  0.809327431816328  0.3322668446024081  1.0000
  F   F23       1.0  0.397777967669299  0.8040752368616636  0.07741174957011047  1.0000
  F   F24       1.0  0.6909577503541013  0.8943912640411822  0.4397451201672595  1.0000
  F   F25       1.0  0.011190672820752897  0.19455552171837096  0.3254240257274289  1.0000
  F   F26       1.0  0.3150980734773582  0.1067975048033531  0.43341573008513007  1.0000
  F   F27       1.0  0.7560106008998915  0.8693099449122669  0.899810815382274  1.0000
  F   F28       1.0  0.2902083278072993  0.6131926367377571  0.7299941881139276  1.0000
  F   F29       1.0  0.23806851746437727  0.12855166486715316  0.8978900430963676  1.0000
  F   F30       1.0  0.7114426145386687  0.4042292360918509  0.7288468227613976  1.0000
  F   F31       1.0  0.7539675599968021  0.12689133685920237  0.0980016499249388  1.0000
  F   F32       1.0  0.2885932930725659  0.3968021819426254  0.2686336181075006  1.0000
  F   F33       1.0  0.26209425268030634  0.8308245290717977  0.16821962257800038  1.0000
  F   F34       1.0  0.3046337659287985  0.5149107421387811  0.16441469292980318  1.0000
  F   F35       1.0  0.7138843888381173  0.5955704428739068  0.27595138813536113  1.0000
  F   F36       1.0  0.2628209095518983  0.37320274664084246  0.3989886871230793  1.0000
  F   F37       1.0  0.7834699847716491  0.10076219727545778  0.22809095877826013  1.0000
  F   F38       1.0  0.7423497938966006  0.6275173294425187  0.405356578260779  1.0000
  F   F39       1.0  0.15385676967689216  0.9422542204550339  0.1951719819967934  1.0000
  F   F40       1.0  0.27003532091031696  0.6365762924801359  0.5989790057415192  1.0000
  F   F41       1.0  0.7849035242478307  0.8960940592192512  0.7696958795251092  1.0000
  F   F42       1.0  0.7421261411624441  0.3722818102611142  0.5997243506590165  1.0000
  F   F43       1.0  0.21050121392909196  0.09582583816283828  0.7687420031170686  1.0000
  F   F44       1.0  0.6051286531511977  0.814098271267916  0.9572724361773834  1.0000
  F   F45       1.0  0.6910072357325561  0.5193439118556568  0.8353654892264968  1.0000
  F   F46       1.0  0.3906555149769346  0.18518749086209849  0.9502170063540446  1.0000
  F   F47       1.0  0.30889583140531574  0.4909265289686146  0.8301637342271917  1.0000
  F   F48       1.0  0.11210620624710539  0.6901655588412506  0.5547618411165232  1.0000
