data_image0
_chemical_formula_structural       Co4H32C40O16
_chemical_formula_sum              "Co4 H32 C40 O16"
_cell_length_a       4.874088269013504
_cell_length_b       9.661595852097395
_cell_length_c       19.633287872569294
_cell_angle_alpha    95.90779263480024
_cell_angle_beta     90.00001417903596
_cell_angle_gamma    89.99973059677035

_space_group_name_H-M_alt    "P 1"
_space_group_IT_number       1

loop_
  _space_group_symop_operation_xyz
  'x, y, z'

loop_
  _atom_site_type_symbol
  _atom_site_label
  _atom_site_symmetry_multiplicity
  _atom_site_fract_x
  _atom_site_fract_y
  _atom_site_fract_z
  _atom_site_occupancy
  Co  Co1       1.0  0.3085511667283  0.7124680280980513  0.7623248766881546  1.0000
  Co  Co2       1.0  0.8085558688911617  0.7875306642180462  0.23767531899351726  1.0000
  Co  Co3       1.0  0.6914491174302028  0.2875313607428182  0.2376750068155573  1.0000
  Co  Co4       1.0  0.19144646693813883  0.21246768985717066  0.7623250242553112  1.0000
  H   H1        1.0  0.6383869973567825  0.681067450897636  0.018582099058853895  1.0000
  H   H2        1.0  0.13839382573705447  0.818935803504871  0.9814177963404095  1.0000
  H   H3        1.0  0.3616091834607785  0.31893402479363425  0.9814183938254574  1.0000
  H   H4        1.0  0.8616126133996359  0.1810677532466372  0.018582796300485403  1.0000
  H   H5        1.0  0.09054684993582639  0.3853414987915683  0.8835355138097752  1.0000
  H   H6        1.0  0.5905448388550238  0.1146609313135372  0.11646620159464761  1.0000
  H   H7        1.0  0.9094513825472673  0.6146599711242187  0.11646446945087521  1.0000
  H   H8        1.0  0.4094595486165744  0.8853426427595109  0.8835359199171436  1.0000
  H   H9        1.0  0.359530606178147  0.3211972993983991  0.5091988271309449  1.0000
  H   H10       1.0  0.8595304125499369  0.17879926937483492  0.4908010944757422  1.0000
  H   H11       1.0  0.6404676263196407  0.6788010546817134  0.4908015161180046  1.0000
  H   H12       1.0  0.14046781994741053  0.8211990731592136  0.5091982295259854  1.0000
  H   H13       1.0  0.6872359249998892  0.5659812784170554  0.597891891968793  1.0000
  H   H14       1.0  0.18723496314704843  0.9340187379170785  0.40210785097420404  1.0000
  H   H15       1.0  0.31276435915882667  0.43401811619684566  0.4021085011585299  1.0000
  H   H16       1.0  0.812763269345467  0.0659806451532035  0.5978915229059538  1.0000
  H   H17       1.0  0.49144939554081196  0.6340664944870439  0.9020552980142753  1.0000
  H   H18       1.0  0.9914552829481879  0.8659348775848767  0.0979445271161126  1.0000
  H   H19       1.0  0.5085467852813464  0.3659339348949544  0.0979446353679947  1.0000
  H   H20       1.0  0.0085491045367831  0.1340655460143054  0.902054896642305  1.0000
  H   H21       1.0  0.5969467357035113  0.4816334885753263  0.8538452750440871  1.0000
  H   H22       1.0  0.09694324408594208  0.018367862644133495  0.14615435161788076  1.0000
  H   H23       1.0  0.40305560012096453  0.5183659060361235  0.14615511808318624  1.0000
  H   H24       1.0  0.9030570400631316  0.9816336130422413  0.8538461412663169  1.0000
  H   H25       1.0  0.8599236983709202  0.3307990661092361  0.6438124141311266  1.0000
  H   H26       1.0  0.35992310832777724  0.1692006233359393  0.35618765708818506  1.0000
  H   H27       1.0  0.14007658578780277  0.6692003285046652  0.3561879789962035  1.0000
  H   H28       1.0  0.6400751241601411  0.8307998060436075  0.6438122762940283  1.0000
  H   H29       1.0  0.1880424011510868  0.272933796042345  0.6170977735736685  1.0000
  H   H30       1.0  0.6880375495805992  0.2270631758372872  0.3829016483135277  1.0000
  H   H31       1.0  0.811955831341649  0.7270655928009685  0.38290210993010737  1.0000
  H   H32       1.0  0.31196068291192347  0.7729362072330017  0.6170977255666373  1.0000
  C   C1        1.0  0.7969647139981075  0.6014446268038042  0.010104324751495102  1.0000
  C   C2        1.0  0.2969687568719905  0.8985582495102091  0.9898955614894905  1.0000
  C   C3        1.0  0.20303351848497894  0.3985568431119829  0.9898956585091554  1.0000
  C   C4        1.0  0.7030356306037716  0.10144426670751018  0.010104981273023804  1.0000
  C   C5        1.0  0.048559301960381204  0.43537168048634084  0.9347836565075982  1.0000
  C   C6        1.0  0.5485618107161728  0.06462980341368758  0.0652175018195535  1.0000
  C   C7        1.0  0.9514368788477442  0.5646318820504276  0.06521744575720592  1.0000
  C   C8        1.0  0.4514446284301669  0.9353716722653543  0.9347829910644664  1.0000
  C   C9        1.0  0.843450059095694  0.5369494168722821  0.9439196390151211  1.0000
  C   C10       1.0  0.3434484905836115  0.9630512733154432  0.05608065440809181  1.0000
  C   C11       1.0  0.1565481733830154  0.4630531051258087  0.0560814133711887  1.0000
  C   C12       1.0  0.6565517935702799  0.036949161834691296  0.9439197885976754  1.0000
  C   C13       1.0  0.6755004915937874  0.5755218951329792  0.8844992822229899  1.0000
  C   C14       1.0  0.1755034436105802  0.9244802360224113  0.1155010707781443  1.0000
  C   C15       1.0  0.3244956892237738  0.4244795805582838  0.11550121066132851  1.0000
  C   C16       1.0  0.8245009438649616  0.07552227442227628  0.8844989623607592  1.0000
  C   C17       1.0  0.8253127255461976  0.6559947272170701  0.8337344180280867  1.0000
  C   C18       1.0  0.3253164768636907  0.8440080757349973  0.16626495695210516  1.0000
  C   C19       1.0  0.17468550694172078  0.34400570216248383  0.16626551535411954  1.0000
  C   C20       1.0  0.6746817556290522  0.15599131310831638  0.8337349265516709  1.0000
  C   C21       1.0  0.20115395177428746  0.3997378184624978  0.505218049521666  1.0000
  C   C22       1.0  0.7011544939951833  0.1002601626854869  0.49478142148657883  1.0000
  C   C23       1.0  0.7988442807186756  0.6002615761538476  0.4947823436057206  1.0000
  C   C24       1.0  0.2988457901676965  0.8997381740730785  0.505217392891474  1.0000
  C   C25       1.0  0.8254772787285632  0.5368429290917331  0.5550867665537851  1.0000
  C   C26       1.0  0.3254760868854659  0.9631567518651777  0.4449124587817366  1.0000
  C   C27       1.0  0.17452095376417984  0.46315645975158054  0.4449131169499907  1.0000
  C   C28       1.0  0.6745221456116538  0.036841584895839205  0.5550863555963802  1.0000
  C   C29       1.0  0.0272402599597328  0.43571793096098327  0.5610374387525141  1.0000
  C   C30       1.0  0.5272390316242195  0.06428151115527919  0.43896260180189023  1.0000
  C   C31       1.0  0.9727600241992037  0.5642814694259497  0.43896346399841946  1.0000
  C   C32       1.0  0.4727612525388878  0.9357168313763251  0.5610367221997734  1.0000
  C   C33       1.0  0.0598251683308817  0.36675231503233613  0.6257701069842696  1.0000
  C   C34       1.0  0.5598252860320727  0.1332480899273918  0.374229981566657  1.0000
  C   C35       1.0  0.9401751158230098  0.6332481201177984  0.3742303360214905  1.0000
  C   C36       1.0  0.44017294645584565  0.8667523394521619  0.6257699518155562  1.0000
  C   C37       1.0  0.1806760946367874  0.4574717286464106  0.6860639076383848  1.0000
  C   C38       1.0  0.6806769992786315  0.04252734186208328  0.313935614430946  1.0000
  C   C39       1.0  0.8193282928630978  0.5425255848901216  0.3139363857319495  1.0000
  C   C40       1.0  0.31932123320906675  0.9574730817444391  0.6860638093276565  1.0000
  O   O1        1.0  0.6953415126155136  0.7020850817916864  0.7841345336998489  1.0000
  O   O2        1.0  0.195345741672881  0.7979159499735715  0.2158647490297056  1.0000
  O   O3        1.0  0.30465877153816473  0.2979153475854232  0.21586539968230062  1.0000
  O   O4        1.0  0.804650439154102  0.2020834388721866  0.784135134474127  1.0000
  O   O5        1.0  0.0841873760080887  0.6730169335901266  0.8398954481264056  1.0000
  O   O6        1.0  0.5841895834670155  0.826985415281122  0.1601049101483625  1.0000
  O   O7        1.0  0.9158129081455899  0.3269834957869832  0.1601044852557436  1.0000
  O   O8        1.0  0.4158086490353767  0.17301189248971838  0.8398948735985314  1.0000
  O   O9        1.0  0.21289689907988668  0.5870781196825162  0.681291548144209  1.0000
  O   O10       1.0  0.7128984596592358  0.9129208007027643  0.31870865306189  1.0000
  O   O11       1.0  0.7871033850886988  0.4129191996319435  0.3187092548498569  1.0000
  O   O12       1.0  0.2870977211677541  0.08707858814300097  0.6812912304419427  1.0000
  O   O13       1.0  0.24426775297878583  0.40346829513337207  0.7407115651230145  1.0000
  O   O14       1.0  0.7442681012383331  0.09653063530227969  0.2592889725209346  1.0000
  O   O15       1.0  0.7557448411887292  0.596527972084111  0.2592881687450372  1.0000
  O   O16       1.0  0.2557301312541825  0.903468747768002  0.7407104013592232  1.0000
