data_image0
_chemical_formula_structural       Ba2H6C16N2O12
_chemical_formula_sum              "Ba2 H6 C16 N2 O12"
_cell_length_a       4.974847229741654
_cell_length_b       7.288732910367178
_cell_length_c       12.951081283646637
_cell_angle_alpha    88.78843442569804
_cell_angle_beta     80.14976361062644
_cell_angle_gamma    73.7037552608282

_space_group_name_H-M_alt    "P 1"
_space_group_IT_number       1

loop_
  _space_group_symop_operation_xyz
  'x, y, z'

loop_
  _atom_site_type_symbol
  _atom_site_label
  _atom_site_symmetry_multiplicity
  _atom_site_fract_x
  _atom_site_fract_y
  _atom_site_fract_z
  _atom_site_occupancy
  Ba  Ba1       1.0  0.1821815801562821  0.21366293169743497  0.5777597871672668  1.0000
  Ba  Ba2       1.0  0.8178178169887074  0.7863390532097156  0.42224029592782847  1.0000
  H   H1        1.0  0.6816811195423682  0.4375995798997393  0.026952905548945708  1.0000
  H   H2        1.0  0.31831663646043756  0.5623966749271503  0.9730465704881439  1.0000
  H   H3        1.0  0.13176036028845317  0.1943791466014275  0.9537775754633415  1.0000
  H   H4        1.0  0.8682402440826492  0.8056199759031911  0.046223231857481985  1.0000
  H   H5        1.0  0.42657856684680673  0.9988788324839887  0.08008158302763493  1.0000
  H   H6        1.0  0.5734226443738848  0.0011188600509086995  0.9199192001137391  1.0000
  C   C1        1.0  0.14338852596461749  0.12930700435576634  0.21659271705385666  1.0000
  C   C2        1.0  0.8566141223863537  0.870692126944135  0.7834071865601615  1.0000
  C   C3        1.0  0.8861720555890217  0.26477927904804227  0.2588823642760474  1.0000
  C   C4        1.0  0.11382997943929486  0.7352212797585125  0.7411183361020337  1.0000
  C   C5        1.0  0.7259580758101336  0.37259758225415135  0.187311554822891  1.0000
  C   C6        1.0  0.27404253503403436  0.6274015427135426  0.8126884799133195  1.0000
  C   C7        1.0  0.8115093439025995  0.34931132350006067  0.07872094836611153  1.0000
  C   C8        1.0  0.18848922943477214  0.6506877951354254  0.9212792174922839  1.0000
  C   C9        1.0  0.06457497239851048  0.21454655407353582  0.03844370578967471  1.0000
  C   C10       1.0  0.9354236009388547  0.7854525645619502  0.961556460068728  1.0000
  C   C11       1.0  0.2273203434358138  0.1065120825793358  0.10780158153163912  1.0000
  C   C12       1.0  0.7726802674083545  0.8934870423883579  0.8921984532045713  1.0000
  C   C13       1.0  0.3348946217381296  0.0006108472074330991  0.28405738163881733  1.0000
  C   C14       1.0  0.6651059891060384  0.9993882777602605  0.7159426530973934  1.0000
  C   C15       1.0  0.7888019600336801  0.28995963549664344  0.37659511383110816  1.0000
  C   C16       1.0  0.21119946814504675  0.7100423532796469  0.6234056107264151  1.0000
  N   N1        1.0  0.4564832992864749  0.5140351837993862  0.22529735346929414  1.0000
  N   N2        1.0  0.5435152740508897  0.4859639348361  0.7747028123891087  1.0000
  O   O1        1.0  0.5858396343375885  0.9145751412689124  0.24173753023126923  1.0000
  O   O2        1.0  0.414158945472849  0.08542397982964187  0.7582618630425132  1.0000
  O   O3        1.0  0.23002494829600537  0.9827132690122298  0.38041730216384206  1.0000
  O   O4        1.0  0.7699750556985732  0.017287285925192502  0.6195827567518108  1.0000
  O   O5        1.0  0.8877425531793006  0.40099986246076463  0.4233298813096625  1.0000
  O   O6        1.0  0.11226031860277158  0.5990035675435976  0.5766691911358848  1.0000
  O   O7        1.0  0.6237584470381705  0.1957591662598617  0.4188984604511177  1.0000
  O   O8        1.0  0.3762423742909604  0.804244252486157  0.5811022882858481  1.0000
  O   O9        1.0  0.3994730354725035  0.5616457621589817  0.320475997365044  1.0000
  O   O10       1.0  0.6005281822212539  0.4383519328389838  0.679524013191724  1.0000
  O   O11       1.0  0.2919716808424082  0.5814413975785302  0.1631340846430902  1.0000
  O   O12       1.0  0.7080228174813641  0.418557708392541  0.8368663434596826  1.0000
