data_image0
_chemical_formula_structural       CuH28C28N14
_chemical_formula_sum              "Cu1 H28 C28 N14"
_cell_length_a       8.271356019321898
_cell_length_b       9.345996562213461
_cell_length_c       9.435811994027565
_cell_angle_alpha    104.6754366013731
_cell_angle_beta     90.40609588377943
_cell_angle_gamma    104.57406094734193

_space_group_name_H-M_alt    "P 1"
_space_group_IT_number       1

loop_
  _space_group_symop_operation_xyz
  'x, y, z'

loop_
  _atom_site_type_symbol
  _atom_site_label
  _atom_site_symmetry_multiplicity
  _atom_site_fract_x
  _atom_site_fract_y
  _atom_site_fract_z
  _atom_site_occupancy
  Cu  Cu1       1.0  0.49999968953326857  0.4999965304619847  0.499998692168262  1.0000
  H   H1        1.0  0.3037332884832722  0.17830102688001395  0.5686818938735954  1.0000
  H   H2        1.0  0.696262795136505  0.8216931795373623  0.431314687703221  1.0000
  H   H3        1.0  0.9038686845406261  0.38225349468343234  0.6910606742444756  1.0000
  H   H4        1.0  0.09613475310713675  0.6177453008109736  0.3089402857798547  1.0000
  H   H5        1.0  0.16198181203137807  0.5881919622052222  0.5990437880679738  1.0000
  H   H6        1.0  0.838024917091225  0.41180569341481993  0.4009600956737884  1.0000
  H   H7        1.0  0.06442138717799387  0.025137232676129894  0.6671620102008049  1.0000
  H   H8        1.0  0.9355698552564247  0.974856985125868  0.3328377137221352  1.0000
  H   H9        1.0  0.8806349867319979  0.043175552759585394  0.5791338108478927  1.0000
  H   H10       1.0  0.11935757165394989  0.9568232493859553  0.4208670612229426  1.0000
  H   H11       1.0  0.6516395528462126  0.06257773121436118  0.698416409798135  1.0000
  H   H12       1.0  0.34835805505651507  0.9374302381402372  0.3015867781137088  1.0000
  H   H13       1.0  0.5030454195430137  0.11488758232093939  0.9251276928227129  1.0000
  H   H14       1.0  0.49695427301365663  0.8851192450887878  0.07487734855509123  1.0000
  H   H15       1.0  0.6668078023280158  0.21893832765511687  0.1703157269356339  1.0000
  H   H16       1.0  0.3331941987117729  0.7810639160035463  0.8296892560909656  1.0000
  H   H17       1.0  0.9744963901745507  0.25747448131287604  0.1842891909642574  1.0000
  H   H18       1.0  0.02550462985947625  0.7425243156595652  0.8157117495148541  1.0000
  H   H19       1.0  0.2000136454859032  0.09413549855346297  0.9783223526681367  1.0000
  H   H20       1.0  0.7999868257029731  0.9058655885202355  0.021678091633454123  1.0000
  H   H21       1.0  0.23116625006186098  0.21236057934559935  0.8573825481431427  1.0000
  H   H22       1.0  0.7688320293284291  0.7876370645904129  0.14261490431719878  1.0000
  H   H23       1.0  0.3223796459584846  0.2097054155903705  0.23685831679218694  1.0000
  H   H24       1.0  0.6776199473973675  0.7902968154987136  0.7631413442949012  1.0000
  H   H25       1.0  0.4241169091137564  0.6820200939461429  0.2679290931050744  1.0000
  H   H26       1.0  0.5758796086525918  0.317979846449198  0.7320699743628509  1.0000
  H   H27       1.0  0.2604683127981032  0.5187080593686698  0.992288344607374  1.0000
  H   H28       1.0  0.7395330401957164  0.48129187807060697  0.007710761950995958  1.0000
  C   C1        1.0  0.2319660195701516  0.263333921234576  0.5882684546435399  1.0000
  C   C2        1.0  0.7680321566474007  0.7366591319998363  0.4117257384838026  1.0000
  C   C3        1.0  0.0247428467109145  0.37257540063545486  0.6524939687728306  1.0000
  C   C4        1.0  0.9752593801440167  0.6274233984074867  0.34750804195774515  1.0000
  C   C5        1.0  0.15248053059325167  0.4730225936051865  0.6072778325472186  1.0000
  C   C6        1.0  0.8475237829015825  0.5269750606833623  0.39272497117046606  1.0000
  C   C7        1.0  0.9786280325494516  0.09838429634464768  0.6694998673287956  1.0000
  C   C8        1.0  0.021366614462344585  0.9016133582369789  0.33050073725028994  1.0000
  C   C9        1.0  0.896228294989136  0.12851417746355756  0.8120476697237393  1.0000
  C   C10       1.0  0.10376887876702058  0.8714880579130762  0.18795303229698848  1.0000
  C   C11       1.0  0.7219878891422411  0.10463253693816907  0.8056226462487504  1.0000
  C   C12       1.0  0.27801026760563735  0.8953731423151651  0.19438103784061408  1.0000
  C   C13       1.0  0.6388168541073824  0.13531268898285725  0.9334348208516163  1.0000
  C   C14       1.0  0.36118284043524074  0.8646941356173484  0.06656916004732945  1.0000
  C   C15       1.0  0.7302765905216475  0.19229164611167698  0.069824164668141  1.0000
  C   C16       1.0  0.26972541449006115  0.8077105919279433  0.9301786974007484  1.0000
  C   C17       1.0  0.9040671649178476  0.21472354077910435  0.07719573281392657  1.0000
  C   C18       1.0  0.09593418410405248  0.7852764022792155  0.9228054947021532  1.0000
  C   C19       1.0  0.988494532721894  0.18242220458797925  0.9497252515779167  1.0000
  C   C20       1.0  0.011506493270005058  0.8175765839558904  0.05027250746461215  1.0000
  C   C21       1.0  0.17571397203545294  0.19870631194884678  0.9598202702948839  1.0000
  C   C22       1.0  0.8242846363427103  0.8012924780730585  0.04017746920243322  1.0000
  C   C23       1.0  0.32613476116468115  0.31650032661534755  0.20971957868477628  1.0000
  C   C24       1.0  0.6738650580063136  0.6834984598580149  0.7902771101062881  1.0000
  C   C25       1.0  0.3777756945072424  0.5597815387754961  0.21973936564127425  1.0000
  C   C26       1.0  0.6222263124904187  0.44022069645459533  0.7802624359487567  1.0000
  C   C27       1.0  0.29742114770271394  0.4805384044873405  0.08386231522560904  1.0000
  C   C28       1.0  0.7025820760456654  0.5194638187656508  0.9161352542216008  1.0000
  N   N1        1.0  0.2797829081285457  0.40340991844253427  0.5677228402230624  1.0000
  N   N2        1.0  0.7202189956963848  0.5965877260859569  0.43227570203396926  1.0000
  N   N3        1.0  0.07722810823517527  0.2410687801579597  0.6402011828934775  1.0000
  N   N4        1.0  0.9227713799619792  0.7589288630390385  0.35979627933947  1.0000
  N   N5        1.0  0.26616085404713624  0.32691191855711565  0.07939316075395199  1.0000
  N   N6        1.0  0.733841487896292  0.673091454330297  0.920605746436472  1.0000
  N   N7        1.0  0.39410463691815767  0.4559204476951847  0.2962740830131878  1.0000
  N   N8        1.0  0.6058967160756694  0.5440794897440923  0.7037250235451752  1.0000
  N   N9        1.0  0.5493909369444906  0.23417096259701947  0.4296730108509692  1.0000
  N   N10       1.0  0.45060777262045076  0.7658324209360072  0.5703290484581984  1.0000
  N   N11       1.0  0.6250793715227869  0.13915234946421146  0.4066600596221335  1.0000
  N   N12       1.0  0.3749205508209385  0.8608510277107582  0.5933398885019301  1.0000
  N   N13       1.0  0.6989675655442938  0.04290157549543489  0.3807852038540816  1.0000
  N   N14       1.0  0.3010364348503316  0.9570949102310492  0.6192088289957667  1.0000
