data_image0
_chemical_formula_structural       Yb2MnH28C16O18
_chemical_formula_sum              "Yb2 Mn1 H28 C16 O18"
_cell_length_a       8.799211025608418
_cell_length_b       9.198938216617199
_cell_length_c       10.5305767844214
_cell_angle_alpha    81.65489711185806
_cell_angle_beta     71.51262457314132
_cell_angle_gamma    77.72622434168382

_space_group_name_H-M_alt    "P 1"
_space_group_IT_number       1

loop_
  _space_group_symop_operation_xyz
  'x, y, z'

loop_
  _atom_site_type_symbol
  _atom_site_label
  _atom_site_symmetry_multiplicity
  _atom_site_fract_x
  _atom_site_fract_y
  _atom_site_fract_z
  _atom_site_occupancy
  Yb  Yb1       1.0  0.9085808033835647  0.07413888669898228  0.6855552416440034  1.0000
  Yb  Yb2       1.0  0.09141914332586508  0.9258675545362394  0.3144444797755881  1.0000
  Mn  Mn1       1.0  0.9999929106590741  0.9999819510328082  4.408876996804649e-06  1.0000
  H   H1        1.0  0.8257457638466121  0.35867643976603597  0.050612012282719804  1.0000
  H   H2        1.0  0.1742833908692631  0.6412974354064572  0.9493796620580852  1.0000
  H   H3        1.0  0.6234015238184653  0.3985786533079718  0.03364086272105741  1.0000
  H   H4        1.0  0.37661549607521755  0.6014125627872319  0.9663652273979508  1.0000
  H   H5        1.0  0.771563800132121  0.5029214413689048  0.931161487923397  1.0000
  H   H6        1.0  0.22845041990698428  0.4970827664369537  0.0688278485570066  1.0000
  H   H7        1.0  0.7352656457515536  0.7277967214059943  0.07329001544491122  1.0000
  H   H8        1.0  0.26471596322466695  0.2721854027223145  0.9267090622869959  1.0000
  H   H9        1.0  0.5871409153341529  0.7370159677758538  0.9855256399657861  1.0000
  H   H10       1.0  0.4128363468038073  0.262986592571437  0.014459769868246005  1.0000
  H   H11       1.0  0.5649957225420793  0.8787004752674646  0.0885163953246177  1.0000
  H   H12       1.0  0.43498995305480287  0.12131019202988817  0.9114758013581864  1.0000
  H   H13       1.0  0.48716702592355443  0.8756142573958243  0.564290886618096  1.0000
  H   H14       1.0  0.5128227876531853  0.12441540224949682  0.43570033253972446  1.0000
  H   H15       1.0  0.46333205301457514  0.7413834596325872  0.7067042423485574  1.0000
  H   H16       1.0  0.5367089241170787  0.25862484058212937  0.29327738283755883  1.0000
  H   H17       1.0  0.5294141274734158  0.9086425033206995  0.7132886916587893  1.0000
  H   H18       1.0  0.47056551034345523  0.09139160910423527  0.28671281050871045  1.0000
  H   H19       1.0  0.1098337799134441  0.4733909246586947  0.37125181642281996  1.0000
  H   H20       1.0  0.8901763046591354  0.5266138465746764  0.6287525799009828  1.0000
  H   H21       1.0  0.08238839580157284  0.3571495519155902  0.2596140777788776  1.0000
  H   H22       1.0  0.9176095298775304  0.6428490078020488  0.7403965983869014  1.0000
  H   H23       1.0  0.26790104112392754  0.32347377703386115  0.2994592168886854  1.0000
  H   H24       1.0  0.7321108801108451  0.6765176671196684  0.7005549879262603  1.0000
  H   H25       1.0  0.7507028140103812  0.11443269362047198  0.4776892612435262  1.0000
  H   H26       1.0  0.24930683963145117  0.8855647449129267  0.5223111113213507  1.0000
  H   H27       1.0  0.6743189488626768  0.259682318887286  0.5641697261303377  1.0000
  H   H28       1.0  0.3256895919207849  0.7403103448780683  0.43583363127235947  1.0000
  C   C1        1.0  0.8041070216555043  0.2836531812721859  0.8735276856595108  1.0000
  C   C2        1.0  0.19587277146550974  0.7163119570525037  0.1264942243962182  1.0000
  C   C3        1.0  0.2751198374513421  0.932010623618979  0.7363001427801663  1.0000
  C   C4        1.0  0.7248812488935884  0.0680153651509414  0.2636937125689158  1.0000
  C   C5        1.0  0.7536005512358913  0.3914644646831534  0.9800280183530462  1.0000
  C   C6        1.0  0.24640495281776964  0.6085423093512574  0.0199785159109709  1.0000
  C   C7        1.0  0.07037668455655678  0.251914166769545  0.45552745016622254  1.0000
  C   C8        1.0  0.9296113431366707  0.7480937278624611  0.5444795954209027  1.0000
  C   C9        1.0  0.7506323127951051  0.8912038858795839  0.9030200337878113  1.0000
  C   C10       1.0  0.24936328283432374  0.1087906708618149  0.09697673959851728  1.0000
  C   C11       1.0  0.6561042680257287  0.8014726451491471  0.0198697624689785  1.0000
  C   C12       1.0  0.34388001393674045  0.19851958177449094  0.9801183578145113  1.0000
  C   C13       1.0  0.45008894013685113  0.8615309942795832  0.6742984497539198  1.0000
  C   C14       1.0  0.5499043447837336  0.13846156351575434  0.3256963841467311  1.0000
  C   C15       1.0  0.13586628655099994  0.36002666588917254  0.3401592128507289  1.0000
  C   C16       1.0  0.8641475712107011  0.6399694380674106  0.6598430205637769  1.0000
  O   O1        1.0  0.23097993735196817  0.9508481228812328  0.8600199672548854  1.0000
  O   O2        1.0  0.7690054636654863  0.049138110305037196  0.13998201835442362  1.0000
  O   O3        1.0  0.17999816307876418  0.9664170647949819  0.6609609974553479  1.0000
  O   O4        1.0  0.8199935176205883  0.03358371625625982  0.3390399168061649  1.0000
  O   O5        1.0  0.017242714244780185  0.2883977550939178  0.5752564686956348  1.0000
  O   O6        1.0  0.9827563242926871  0.7116055793917653  0.42475122263233095  1.0000
  O   O7        1.0  0.9055379543782891  0.8857717874578628  0.8806162543402322  1.0000
  O   O8        1.0  0.0944489168519524  0.1142341113847323  0.11939877634203101  1.0000
  O   O9        1.0  0.6810455448360314  0.9755729681980085  0.8234404870021096  1.0000
  O   O10       1.0  0.31895896034564686  0.02443824587776079  0.1765561503523898  1.0000
  O   O11       1.0  0.9358473800197017  0.18386170923591297  0.8634310381607904  1.0000
  O   O12       1.0  0.06417196643288751  0.8161354986691692  0.13656108740512  1.0000
  O   O13       1.0  0.7186058555680577  0.1537797993304437  0.5692909938836337  1.0000
  O   O14       1.0  0.2813984810955362  0.846214199011726  0.4307105026694344  1.0000
  O   O15       1.0  0.7237601546383061  0.28834878423598553  0.7923352596252329  1.0000
  O   O16       1.0  0.27625349272909716  0.7116456479029553  0.2076520310621319  1.0000
  O   O17       1.0  0.06543790014713838  0.118927065840019  0.4334356992828532  1.0000
  O   O18       1.0  0.9345559195484159  0.8810780504000136  0.5665761383247414  1.0000
