data_image0
_chemical_formula_structural       Li4H48C56S4N12O4
_chemical_formula_sum              "Li4 H48 C56 S4 N12 O4"
_cell_length_a       7.1004805790515375
_cell_length_b       12.334840196096064
_cell_length_c       16.9352093396215
_cell_angle_alpha    91.13171168231307
_cell_angle_beta     90.00010554072773
_cell_angle_gamma    90.00041877661653

_space_group_name_H-M_alt    "P 1"
_space_group_IT_number       1

loop_
  _space_group_symop_operation_xyz
  'x, y, z'

loop_
  _atom_site_type_symbol
  _atom_site_label
  _atom_site_symmetry_multiplicity
  _atom_site_fract_x
  _atom_site_fract_y
  _atom_site_fract_z
  _atom_site_occupancy
  Li  Li1       1.0  0.12474546592931551  0.5095154029400888  0.587908844405497  1.0000
  Li  Li2       1.0  0.6247520392426509  0.9904842246495063  0.9120911015735869  1.0000
  Li  Li3       1.0  0.8752546853434994  0.49048624056763396  0.4120932868540307  1.0000
  Li  Li4       1.0  0.3752579704785076  0.0095125363362953  0.08790742919701697  1.0000
  H   H1        1.0  0.3694621980522187  0.6775259664751658  0.5254268835591063  1.0000
  H   H2        1.0  0.8694655592242738  0.8224714482275388  0.9745696662213488  1.0000
  H   H3        1.0  0.6305309114030636  0.32247239306482095  0.47456694213317235  1.0000
  H   H4        1.0  0.1305458588588095  0.1775261265184511  0.025429464631898192  1.0000
  H   H5        1.0  0.6110033738091118  0.6374006933671552  0.5378360905149222  1.0000
  H   H6        1.0  0.11100866781131201  0.8625964312089848  0.9621614542950351  1.0000
  H   H7        1.0  0.3889897356294156  0.3625952306861107  0.46215711597826453  1.0000
  H   H8        1.0  0.8890027502674372  0.13740113485981448  0.03783590498736799  1.0000
  H   H9        1.0  0.32879342206852874  0.5428286769969047  0.41698407093059586  1.0000
  H   H10       1.0  0.8287993958973275  0.9571703043248618  0.08301020111704815  1.0000
  H   H11       1.0  0.6711982790205013  0.45716886010571045  0.5830073831081961  1.0000
  H   H12       1.0  0.1712092054677825  0.042827255953106706  0.9169859771170648  1.0000
  H   H13       1.0  0.5281818086134251  0.6270358037254767  0.39480419677373385  1.0000
  H   H14       1.0  0.028179874020160905  0.8729635322674483  0.10519400057905408  1.0000
  H   H15       1.0  0.4718141175438505  0.37296093698338934  0.6051902003262484  1.0000
  H   H16       1.0  0.9718259106377546  0.1270332344940996  0.8948057112371897  1.0000
  H   H17       1.0  0.8312545073752418  0.5097815618301241  0.22163453510887612  1.0000
  H   H18       1.0  0.33125347085999113  0.990215037914801  0.27836797745355557  1.0000
  H   H19       1.0  0.16873860210393588  0.4902176461758002  0.778366976948895  1.0000
  H   H20       1.0  0.6687466803800747  0.0097825368070659  0.721631153395428  1.0000
  H   H21       1.0  0.747132794495741  0.665248163385172  0.13384442169980557  1.0000
  H   H22       1.0  0.24712319197484336  0.8347513108947523  0.3661562938672417  1.0000
  H   H23       1.0  0.2528546815881257  0.3347542996373817  0.8661594906842678  1.0000
  H   H24       1.0  0.7528473838300515  0.1652511231676428  0.633841713274286  1.0000
  H   H25       1.0  0.7243103041528443  0.8515605870057641  0.19564999543734266  1.0000
  H   H26       1.0  0.22430088456314218  0.648439594623369  0.3043495313711516  1.0000
  H   H27       1.0  0.2756813970000423  0.1484418818106334  0.8043550979955538  1.0000
  H   H28       1.0  0.775675324650159  0.35156121193674034  0.6956472756082943  1.0000
  H   H29       1.0  0.7974044540724063  0.8772428650397686  0.33840127517203195  1.0000
  H   H30       1.0  0.2974052895917581  0.6227592513468636  0.16159832606800245  1.0000
  H   H31       1.0  0.2025942888318397  0.12275554946782559  0.6616037704710604  1.0000
  H   H32       1.0  0.7025934533214413  0.37724398496342093  0.8383979190718305  1.0000
  H   H33       1.0  0.9198768633580627  0.8900378370588483  0.4779519590823184  1.0000
  H   H34       1.0  0.4198712307277433  0.6099680616901181  0.02205072568273889  1.0000
  H   H35       1.0  0.08012469628255302  0.10996623326141727  0.5220490198059904  1.0000
  H   H36       1.0  0.5801458208254858  0.3900336136701624  0.9779579013429465  1.0000
  H   H37       1.0  0.9181679654931473  0.9652626056354735  0.6327982231589429  1.0000
  H   H38       1.0  0.4181658746801844  0.534731779950583  0.8671995062885853  1.0000
  H   H39       1.0  0.08184345261112469  0.034739014757199996  0.36719918391592893  1.0000
  H   H40       1.0  0.5818497684186569  0.4652568868615247  0.1328018815172953  1.0000
  H   H41       1.0  0.06595519899781983  0.0077182350154175  0.7732201143899855  1.0000
  H   H42       1.0  0.5659693494652486  0.49228799764881603  0.7267786051715318  1.0000
  H   H43       1.0  0.9340350938202063  0.9922890787398301  0.22678090272803783  1.0000
  H   H44       1.0  0.43403080181209225  0.5077168575016343  0.27321706856220357  1.0000
  H   H45       1.0  0.2829219372373117  0.8460803671495468  0.8202794536165354  1.0000
  H   H46       1.0  0.7829288028450989  0.6539305021700414  0.6797254605048335  1.0000
  H   H47       1.0  0.7170725806620555  0.1539277777263024  0.17972570672687735  1.0000
  H   H48       1.0  0.21706289833706194  0.346078430425365  0.3202749852070922  1.0000
  C   C1        1.0  0.4695944202120401  0.6101677741993682  0.5193621894787128  1.0000
  C   C2        1.0  0.9696000632538001  0.8898284417831377  0.9806332359088965  1.0000
  C   C3        1.0  0.5303986892272549  0.3898289520414835  0.4806292550021281  1.0000
  C   C4        1.0  0.030412763180322606  0.11016912428867438  0.019364123374039397  1.0000
  C   C5        1.0  0.47282189239592753  0.5663068245085228  0.43515153420671016  1.0000
  C   C6        1.0  0.972826075807248  0.9336903467630007  0.06484399919899889  1.0000
  C   C7        1.0  0.52717262538998  0.4336882828981957  0.5648404816812871  1.0000
  C   C8        1.0  0.027183933907359403  0.06630560046563261  0.9351539314895017  1.0000
  C   C9        1.0  0.8246710233590023  0.5929675680200718  0.24484115692560235  1.0000
  C   C10       1.0  0.32467587393914954  0.9070379259503767  0.2551620463243438  1.0000
  C   C11       1.0  0.17531786108312994  0.4070349007902862  0.7551639365062284  1.0000
  C   C12       1.0  0.6753228689907118  0.09296614436385653  0.7448389325628992  1.0000
  C   C13       1.0  0.7779126378129816  0.6789148069394954  0.19630217955845805  1.0000
  C   C14       1.0  0.2778997454713235  0.82108642376172  0.3036991689391896  1.0000
  C   C15       1.0  0.2220832884162434  0.3210892836154926  0.8037029329930261  1.0000
  C   C16       1.0  0.7220764637266727  0.17891195020407477  0.6962976093647696  1.0000
  C   C17       1.0  0.766122619054592  0.7825258926621785  0.23071968515168345  1.0000
  C   C18       1.0  0.2661237537073333  0.7174744767167168  0.26928164487121353  1.0000
  C   C19       1.0  0.2338690820771063  0.21747253050753554  0.7692871320595882  1.0000
  C   C20       1.0  0.733867947427541  0.2825287566860979  0.7307140097423355  1.0000
  C   C21       1.0  0.805176596980772  0.7969330959871074  0.31061329284616324  1.0000
  C   C22       1.0  0.3051701232283008  0.7030731166670492  0.18938813363563156  1.0000
  C   C23       1.0  0.19482214594754774  0.20306936995196168  0.6893912100657856  1.0000
  C   C24       1.0  0.6948229862975809  0.29693419130943255  0.8106117024362262  1.0000
  C   C25       1.0  0.8580781935120074  0.706977092419372  0.35499461942587357  1.0000
  C   C26       1.0  0.358076857734524  0.7930212323500851  0.14500557045657556  1.0000
  C   C27       1.0  0.14192195773817676  0.29302050254927536  0.6450086450884098  1.0000
  C   C28       1.0  0.6419232935128677  0.2069779583165356  0.8549923984621655  1.0000
  C   C29       1.0  0.9146746139407469  0.7151871835376084  0.43768850360709155  1.0000
  C   C30       1.0  0.4146755924320971  0.7848227617341335  0.06231717763444068  1.0000
  C   C31       1.0  0.0853283540821224  0.2848193425191782  0.5623172281461493  1.0000
  C   C32       1.0  0.58533441735311  0.21518213393098765  0.937686763433632  1.0000
  C   C33       1.0  0.9405763634418066  0.8046263174521399  0.4895396842973198  1.0000
  C   C34       1.0  0.44056188670359836  0.6953610460596807  0.010468110994978  1.0000
  C   C35       1.0  0.059429421207255494  0.19536722898948972  0.5104647134738582  1.0000
  C   C36       1.0  0.559439672836959  0.304624409079544  0.9895397343313586  1.0000
  C   C37       1.0  0.004776202825254902  0.758065880539661  0.5598008204577309  1.0000
  C   C38       1.0  0.5047854302272156  0.7419299840756893  0.9401978154598678  1.0000
  C   C39       1.0  0.9952225400915113  0.2419365622602356  0.4401989582652987  1.0000
  C   C40       1.0  0.49522739618138445  0.258063527672256  0.05979949603059959  1.0000
  C   C41       1.0  0.061513709580452804  0.8096910630016224  0.6336891487076242  1.0000
  C   C42       1.0  0.5615022159402444  0.6903091219954902  0.8663143021170467  1.0000
  C   C43       1.0  0.9384963001924193  0.1903130073367336  0.36631183018388197  1.0000
  C   C44       1.0  0.4384965269472404  0.3096868570253902  0.13369012432694655  1.0000
  C   C45       1.0  0.012398023359743602  0.9109903683376855  0.6637906644205243  1.0000
  C   C46       1.0  0.5123963814770605  0.589010394081427  0.8362080346113883  1.0000
  C   C47       1.0  0.9876119864102435  0.08901369621587919  0.33620913342375036  1.0000
  C   C48       1.0  0.4876094031743037  0.4109855589229524  0.16379107712273813  1.0000
  C   C49       1.0  0.0933379412615807  0.9340284798616236  0.7389800340628054  1.0000
  C   C50       1.0  0.5933384639801033  0.5659710132207606  0.7610198881477712  1.0000
  C   C51       1.0  0.9066593933202256  0.0659772063943578  0.261019782893662  1.0000
  C   C52       1.0  0.4066645039568471  0.43402413180520927  0.23897980455041784  1.0000
  C   C53       1.0  0.20518061880960667  0.851093778722742  0.7652139658135507  1.0000
  C   C54       1.0  0.7051876876593043  0.6489126889051703  0.7347878890701549  1.0000
  C   C55       1.0  0.7948195324959642  0.14891193357084376  0.23479116585652085  1.0000
  C   C56       1.0  0.2948195053846163  0.35108894304804034  0.26521188009758123  1.0000
  S   S1        1.0  0.21153288176159893  0.7446978332676365  0.6984142524913108  1.0000
  S   S2        1.0  0.7115289316921009  0.7553038079194749  0.8015899119385137  1.0000
  S   S3        1.0  0.78847431130486  0.25530624574188476  0.3015884979699805  1.0000
  S   S4        1.0  0.28846840285099523  0.2446945950155168  0.19841277160958976  1.0000
  N   N1        1.0  0.863382751882867  0.6054174958803029  0.3219287149853684  1.0000
  N   N2        1.0  0.36338003205471375  0.8945808400319422  0.17806911681608276  1.0000
  N   N3        1.0  0.13662021608539027  0.3945817150391306  0.6780733875997452  1.0000
  N   N4        1.0  0.6366158941287596  0.1054191557056114  0.8219276806123259  1.0000
  N   N5        1.0  0.9593823630983566  0.6221018465051741  0.4753728073491671  1.0000
  N   N6        1.0  0.4593885511276099  0.877898530925357  0.024626887786823193  1.0000
  N   N7        1.0  0.040614971458602205  0.37789898613174694  0.524629314350797  1.0000
  N   N8        1.0  0.5406256836603518  0.1220974307743106  0.9753739955213516  1.0000
  N   N9        1.0  0.013218578206405603  0.6478161254015831  0.5497820284341443  1.0000
  N   N10       1.0  0.5132207856803603  0.8521789760557398  0.9502189664051456  1.0000
  N   N11       1.0  0.9867829814166811  0.35218470724438333  0.4502200932674184  1.0000
  N   N12       1.0  0.4867821822492715  0.1478145530254764  0.049781888223279176  1.0000
  O   O1        1.0  0.40565750823792274  0.5269935978113408  0.5717702270914697  1.0000
  O   O2        1.0  0.9056639404507579  0.9730023443802621  0.9282251499150858  1.0000
  O   O3        1.0  0.5943398262587395  0.47300150960140996  0.4282217887975931  1.0000
  O   O4        1.0  0.09434606927771942  0.026996032550293602  0.07177221892527537  1.0000
