data_image0
_chemical_formula_structural       Zn2H32C46Br8N4O8
_chemical_formula_sum              "Zn2 H32 C46 Br8 N4 O8"
_cell_length_a       10.066382920333718
_cell_length_b       11.42241311748645
_cell_length_c       12.750370840462864
_cell_angle_alpha    103.39109891618581
_cell_angle_beta     96.21628839969841
_cell_angle_gamma    96.0613689204071

_space_group_name_H-M_alt    "P 1"
_space_group_IT_number       1

loop_
  _space_group_symop_operation_xyz
  'x, y, z'

loop_
  _atom_site_type_symbol
  _atom_site_label
  _atom_site_symmetry_multiplicity
  _atom_site_fract_x
  _atom_site_fract_y
  _atom_site_fract_z
  _atom_site_occupancy
  Zn  Zn1       1.0  0.9723207099051195  0.8017520385769571  0.17402788347368406  1.0000
  Zn  Zn2       1.0  0.027682735066704815  0.19824637124530411  0.8259710609732167  1.0000
  H   H1        1.0  0.7997100073907288  0.9964545145960672  0.21503245074583086  1.0000
  H   H2        1.0  0.2002914445572656  0.0035438966464625007  0.7849631843658003  1.0000
  H   H3        1.0  0.6543027902057688  0.10546708217648162  0.10664911963472432  1.0000
  H   H4        1.0  0.3457009340590318  0.8945331432713104  0.8933478719956794  1.0000
  H   H5        1.0  0.7964650753998299  0.9075109640729622  0.8183412755723934  1.0000
  H   H6        1.0  0.20354050288472786  0.09248835199015559  0.18165960967989747  1.0000
  H   H7        1.0  0.9318464597553557  0.8032269511167272  0.9382814280829307  1.0000
  H   H8        1.0  0.06815998374596431  0.19677145445227504  0.0617169906640598  1.0000
  H   H9        1.0  0.7126009557360078  0.21739916945148963  0.6991650760230144  1.0000
  H   H10       1.0  0.2873964545604438  0.7826056086741177  0.30083780182557973  1.0000
  H   H11       1.0  0.3908699382926457  0.9359751800002911  0.6931316646124088  1.0000
  H   H12       1.0  0.609133365105464  0.0640223224640977  0.3068694326076269  1.0000
  H   H13       1.0  0.25189754566160627  0.9957887182791225  0.5440926043317162  1.0000
  H   H14       1.0  0.7481048938045661  0.0042096943761294  0.4559101751503505  1.0000
  H   H15       1.0  0.6933774079826023  0.34262413239324724  0.5601249512252692  1.0000
  H   H16       1.0  0.3066172817925121  0.6573824659144164  0.4398772837500004  1.0000
  H   H17       1.0  0.3334049268479831  0.2837057648022849  0.32967136469786595  1.0000
  H   H18       1.0  0.6665882518697686  0.7162908416513077  0.6703263180245712  1.0000
  H   H19       1.0  0.2301145465765302  0.12379790745542613  0.413449029112165  1.0000
  H   H20       1.0  0.7698837588441593  0.8761996021988241  0.5865532056888015  1.0000
  H   H21       1.0  0.934666798332195  0.528346230616755  0.10124887165274286  1.0000
  H   H22       1.0  0.065332784178203  0.47165309364962127  0.8987522807561062  1.0000
  H   H23       1.0  0.814469775322827  0.3538738997605861  0.15747831729464679  1.0000
  H   H24       1.0  0.18552808574779792  0.6461272433711825  0.8425222784219883  1.0000
  H   H25       1.0  0.6220028155295766  0.6141575668808061  0.3720990002341367  1.0000
  H   H26       1.0  0.3779909192044784  0.3858426714303747  0.6278963453418384  1.0000
  H   H27       1.0  0.7484290114882768  0.7776937162486065  0.306439577465504  1.0000
  H   H28       1.0  0.25156344744088704  0.22230470714717407  0.693556066259326  1.0000
  H   H29       1.0  0.7030826135533133  0.4647246929978763  0.9372679775758214  1.0000
  H   H30       1.0  0.29691896712019883  0.5352746286351718  0.06273334719525543  1.0000
  H   H31       1.0  0.5650894589395676  0.43930174332910366  0.8274858710537386  1.0000
  H   H32       1.0  0.43491329486633384  0.5606921257613778  0.1725136420964688  1.0000
  C   C1        1.0  0.793377669571896  0.9786757913962348  0.12670258810717885  1.0000
  C   C2        1.0  0.20662632627695393  0.0213262514966743  0.8732971561662807  1.0000
  C   C3        1.0  0.7136660914825939  0.0385530594748928  0.0665006967290651  1.0000
  C   C4        1.0  0.2863416252539679  0.9614471616160357  0.9334989923555809  1.0000
  C   C5        1.0  0.7120838186731646  0.0117885482614923  0.9537505111758405  1.0000
  C   C6        1.0  0.28792117754206  0.988213493011486  0.04624853503548111  1.0000
  C   C7        1.0  0.7929011035247271  0.9278878747140452  0.9055699607123556  1.0000
  C   C8        1.0  0.20710175295366887  0.07211326183439581  0.0944310659098662  1.0000
  C   C9        1.0  0.868536394853443  0.8707712503548067  0.9712927320212684  1.0000
  C   C10       1.0  0.1314684623577094  0.12922988295377283  0.028706898476663408  1.0000
  C   C11       1.0  0.6210002609564994  0.07095980822860781  0.8877900315253128  1.0000
  C   C12       1.0  0.3790047314042654  0.9290422339541635  0.11221136741578165  1.0000
  C   C13       1.0  0.6111286371477219  0.17199456737700566  0.6655109134456083  1.0000
  C   C14       1.0  0.3888677727823548  0.8280102123685253  0.3344926624651308  1.0000
  C   C15       1.0  0.5556352757118718  0.07810743092116473  0.7043284187709842  1.0000
  C   C16       1.0  0.4443674443320945  0.9218927970563515  0.29567162365133737  1.0000
  C   C17       1.0  0.4264710791644788  0.013393173190344504  0.6623940755012042  1.0000
  C   C18       1.0  0.5735310523860592  0.9866097815133515  0.3376080490964384  1.0000
  C   C19       1.0  0.3515528465738029  0.04528906764336681  0.5788463604873755  1.0000
  C   C20       1.0  0.6484444584805119  0.9547084436308141  0.42115657237572884  1.0000
  C   C21       1.0  0.404243922578928  0.14053214121621246  0.5342060736705605  1.0000
  C   C22       1.0  0.5957542113605642  0.8594708190573995  0.4657964904458751  1.0000
  C   C23       1.0  0.536787546086849  0.20413064676439768  0.5778747485725475  1.0000
  C   C24       1.0  0.4632099980744044  0.7958750405386612  0.42213068196245734  1.0000
  C   C25       1.0  0.5924619737577643  0.2942511860246739  0.5290290569583717  1.0000
  C   C26       1.0  0.4075311660587673  0.705751780528999  0.4709722920092147  1.0000
  C   C27       1.0  0.5187606088263195  0.31801375307986757  0.4410322848784745  1.0000
  C   C28       1.0  0.4812342511451746  0.681987394911687  0.5589704050245814  1.0000
  C   C29       1.0  0.3872250511469986  0.2594586463713782  0.3987788934547608  1.0000
  C   C30       1.0  0.612770392178639  0.7405397761070558  0.601224851246009  1.0000
  C   C31       1.0  0.33094131390033965  0.17225135479738898  0.4456997670331048  1.0000
  C   C32       1.0  0.6690552713653872  0.8277479734189868  0.5543011268323851  1.0000
  C   C33       1.0  0.6467998438987834  0.3676599643827033  0.3091898266562012  1.0000
  C   C34       1.0  0.35319561099023394  0.6323384553663517  0.6908068598552433  1.0000
  C   C35       1.0  0.8636266474875853  0.5427882008575295  0.16030462456249234  1.0000
  C   C36       1.0  0.1363689399814021  0.4572111283722506  0.839695398878625  1.0000
  C   C37       1.0  0.7976376638232451  0.44658630553763595  0.19239679498295456  1.0000
  C   C38       1.0  0.202359923093681  0.553413020755542  0.8076026165771423  1.0000
  C   C39       1.0  0.7105031676137017  0.47107402924890346  0.2705375466393392  1.0000
  C   C40       1.0  0.2894925601441897  0.5289262076420016  0.7294611082718987  1.0000
  C   C41       1.0  0.6894226524521585  0.5913455722001332  0.3115100441562291  1.0000
  C   C42       1.0  0.3105734936027744  0.4086573882807016  0.6884860736518945  1.0000
  C   C43       1.0  0.7590047129479841  0.6824612274064492  0.27488608862919506  1.0000
  C   C44       1.0  0.24099287910821937  0.3175380976736689  0.7251101859578668  1.0000
  C   C45       1.0  0.6479172767049093  0.5039058067463387  0.878337205828238  1.0000
  C   C46       1.0  0.3520847547427692  0.496089879892871  0.12166183681087969  1.0000
  Br  Br1       1.0  0.029284950122303133  0.9333992636057857  0.3493141296893896  1.0000
  Br  Br2       1.0  0.9707163551126925  0.0665982414919384  0.6506867951684113  1.0000
  Br  Br3       1.0  0.12482591517188982  0.7072585854977973  0.06299323262886963  1.0000
  Br  Br4       1.0  0.8751832073799052  0.2927443605957691  0.9370110637231122  1.0000
  Br  Br5       1.0  0.7756511712869596  0.5428646746705753  0.7824695430577576  1.0000
  Br  Br6       1.0  0.2243482735041766  0.45713374132814266  0.2175314093944394  1.0000
  Br  Br7       1.0  0.5746410978351975  0.6443221251820078  0.9548449779388051  1.0000
  Br  Br8       1.0  0.4253520808825542  0.35567448127158496  0.04515270478363221  1.0000
  N   N1        1.0  0.8676959748641836  0.8949357793138404  0.07971470652680782  1.0000
  N   N2        1.0  0.1323076103965377  0.10506353816955283  0.9202828693902133  1.0000
  N   N3        1.0  0.8457047973435649  0.6588135200780272  0.20170269596494708  1.0000
  N   N4        1.0  0.154293515786037  0.3411839877566365  0.7982948333764667  1.0000
  O   O1        1.0  0.540818029706557  0.1373172393407174  0.9239307730147813  1.0000
  O   O2        1.0  0.4591904081034102  0.8626811645047496  0.0760701708242166  1.0000
  O   O3        1.0  0.6364915888071324  0.0362940804391911  0.7809173008963909  1.0000
  O   O4        1.0  0.3635132684040201  0.9637070528693884  0.2190823296015409  1.0000
  O   O5        1.0  0.5758065797300702  0.40737324568944183  0.3927312301803241  1.0000
  O   O6        1.0  0.4241868757110153  0.592625176996208  0.6072660682121409  1.0000
  O   O7        1.0  0.6595272611067813  0.2615211732109444  0.2725262465805827  1.0000
  O   O8        1.0  0.34046746243027565  0.7384790662096848  0.7274754591225728  1.0000
