data_image0
_chemical_formula_structural       Zn4H28C44S4N4O16
_chemical_formula_sum              "Zn4 H28 C44 S4 N4 O16"
_cell_length_a       7.566934337007387
_cell_length_b       9.684372201987864
_cell_length_c       16.37265025703748
_cell_angle_alpha    89.99983926263775
_cell_angle_beta     89.99983522649828
_cell_angle_gamma    97.2184313654517

_space_group_name_H-M_alt    "P 1"
_space_group_IT_number       1

loop_
  _space_group_symop_operation_xyz
  'x, y, z'

loop_
  _atom_site_type_symbol
  _atom_site_label
  _atom_site_symmetry_multiplicity
  _atom_site_fract_x
  _atom_site_fract_y
  _atom_site_fract_z
  _atom_site_occupancy
  Zn  Zn1       1.0  0.8431880453369659  0.4005705072618824  0.47598557282483256  1.0000
  Zn  Zn2       1.0  0.6568066968945064  0.09942870324464793  0.9759856341826987  1.0000
  Zn  Zn3       1.0  0.1568069087025208  0.5994282707144052  0.5240135229887457  1.0000
  Zn  Zn4       1.0  0.34319733045211365  0.9005690046441404  0.0240140724003552  1.0000
  H   H1        1.0  0.4609518144427226  0.5163008104843101  0.6667636431634207  1.0000
  H   H2        1.0  0.03905819598290354  0.9836967086222544  0.16676140844447218  1.0000
  H   H3        1.0  0.539057262989566  0.4836875089990897  0.3332427819453656  1.0000
  H   H4        1.0  0.9609417567218514  0.016308301796463802  0.8332431843325878  1.0000
  H   H5        1.0  0.21888301074572067  0.1459915425619869  0.5220618215428416  1.0000
  H   H6        1.0  0.28110500881227546  0.3540114007160469  0.0220637529213548  1.0000
  H   H7        1.0  0.7811093622200503  0.8540155746175202  0.477934831166884  1.0000
  H   H8        1.0  0.7188981551027852  0.6459811030089497  0.9779365644412578  1.0000
  H   H9        1.0  0.2352561488469078  0.9680054936277499  0.4128356845876198  1.0000
  H   H10       1.0  0.2647277224019006  0.5319949301949974  0.9128375454620823  1.0000
  H   H11       1.0  0.7647291017746554  0.0319985219464556  0.5871621896787858  1.0000
  H   H12       1.0  0.7352772804186499  0.46800069184158116  0.0871652149953803  1.0000
  H   H13       1.0  0.34738740947453545  0.6302981285162447  0.8007749158557828  1.0000
  H   H14       1.0  0.15262613744462786  0.8697017718756683  0.30077088566415705  1.0000
  H   H15       1.0  0.6526266060118077  0.3696880925860667  0.19923150925143315  1.0000
  H   H16       1.0  0.8473720369787825  0.1303084510649555  0.6992330963351063  1.0000
  H   H17       1.0  0.4811585942013538  0.32842038386894506  0.5439058504756459  1.0000
  H   H18       1.0  0.018827259862526095  0.17157828148415888  0.0439072143370325  1.0000
  H   H19       1.0  0.5188355570479217  0.6715815207903119  0.456090802237206  1.0000
  H   H20       1.0  0.9811737804058752  0.8284173531028715  0.956090659925742  1.0000
  H   H21       1.0  0.7626065547170596  0.17185783443498076  0.3553730892049032  1.0000
  H   H22       1.0  0.7373782977036996  0.3281410244840188  0.8553775494833218  1.0000
  H   H23       1.0  0.23737783249016078  0.8281409769887204  0.6446205096437296  1.0000
  H   H24       1.0  0.26262314854984936  0.6718650225930533  0.14462521096787376  1.0000
  H   H25       1.0  0.5123545445680122  0.983949371882133  0.32497066371931976  1.0000
  H   H26       1.0  0.9876321139183589  0.5160513310194049  0.8249728630830757  1.0000
  H   H27       1.0  0.48762886714806103  0.016051525380490303  0.6750247674522356  1.0000
  H   H28       1.0  0.012371801360060882  0.4839536668654602  0.17503050814200088  1.0000
  C   C1        1.0  0.7195265929495278  0.6357046189470735  0.6890053411435202  1.0000
  C   C2        1.0  0.7804846261940027  0.864295707219391  0.18900175933958246  1.0000
  C   C3        1.0  0.2804710027985564  0.3642941506677743  0.3109949762176284  1.0000
  C   C4        1.0  0.2195248572664568  0.1357030247872473  0.8109973364642966  1.0000
  C   C5        1.0  0.8231342186326601  0.5957056827986947  0.6183166880857272  1.0000
  C   C6        1.0  0.6768708942373252  0.9042950486222591  0.1183156219019352  1.0000
  C   C7        1.0  0.17686538872185759  0.40429724597178296  0.3816817969466299  1.0000
  C   C8        1.0  0.32313129419519987  0.09569954094830987  0.8816840846849343  1.0000
  C   C9        1.0  0.5431563047137331  0.5884528901679573  0.7061206262103423  1.0000
  C   C10       1.0  0.9568538183586954  0.9115494287747764  0.20611856200365958  1.0000
  C   C11       1.0  0.45684800735684666  0.4115385685339348  0.29388396657503074  1.0000
  C   C12       1.0  0.043151935831673406  0.0884586874266446  0.7938854199922715  1.0000
  C   C13       1.0  0.3371609697599284  0.1477387151052412  0.48409049059834075  1.0000
  C   C14       1.0  0.1628282753321599  0.35226482587789587  0.9840913461383635  1.0000
  C   C15       1.0  0.6628327240601521  0.852268397893553  0.5159067728851665  1.0000
  C   C16       1.0  0.8371769001828824  0.6477318369977494  0.0159089712194529  1.0000
  C   C17       1.0  0.5893306257210825  0.8287127643830345  0.8868357935906771  1.0000
  C   C18       1.0  0.9106732861163566  0.6712906703097872  0.3868341897093542  1.0000
  C   C19       1.0  0.4106709326006666  0.17128599269795328  0.11316330221848857  1.0000
  C   C20       1.0  0.0893276420924565  0.3287122542799637  0.6131649060967845  1.0000
  C   C21       1.0  0.612956750867596  0.7421162974603774  0.8139637133324129  1.0000
  C   C22       1.0  0.8870512915724619  0.7578854392723642  0.3139607759537809  1.0000
  C   C23       1.0  0.3870442893900544  0.25787933711835354  0.18603721480369015  1.0000
  C   C24       1.0  0.11295262371456263  0.24211955861914455  0.6860401521726371  1.0000
  C   C25       1.0  0.34604186837670164  0.04996280714845369  0.422259403136259  1.0000
  C   C26       1.0  0.1539464914648789  0.45004107421096506  0.9222625515279431  1.0000
  C   C27       1.0  0.6539465420240163  0.95004432257155  0.5777360280267771  1.0000
  C   C28       1.0  0.8460590294111654  0.549957670321227  0.07774081970124769  1.0000
  C   C29       1.0  0.48269542027504286  0.6489117022548  0.7774364989737208  1.0000
  C   C30       1.0  0.017315476669018854  0.8510872925637044  0.2774326809875376  1.0000
  C   C31       1.0  0.5173098672823713  0.3510776706048375  0.22256748303806254  1.0000
  C   C32       1.0  0.9826871177550986  0.1489177095018803  0.7225700794637575  1.0000
  C   C33       1.0  0.4819753782804953  0.24903674749987914  0.4967773209378734  1.0000
  C   C34       1.0  0.018013432056960703  0.25096464283340947  0.9967785385448663  1.0000
  C   C35       1.0  0.5180189456525142  0.7509661979901523  0.503219942548675  1.0000
  C   C36       1.0  0.9819932369961107  0.7490330566922765  0.0032230003604211996  1.0000
  C   C37       1.0  0.6391326872724149  0.16157426512785378  0.39045913118494  1.0000
  C   C38       1.0  0.8608514605349669  0.3384296113558776  0.8904627981560294  1.0000
  C   C39       1.0  0.3608523906783319  0.8384287096255463  0.6095344676597776  1.0000
  C   C40       1.0  0.13914946765878972  0.661573313222256  0.10954057307277758  1.0000
  C   C41       1.0  0.49928548115626376  0.05777996256686889  0.3741681182799964  1.0000
  C   C42       1.0  0.0006987368758543869  0.4422210703291469  0.8741702634624884  1.0000
  C   C43       1.0  0.5006982759294233  0.9422230163589449  0.6258279236642678  1.0000
  C   C44       1.0  0.9993071293698036  0.5577797558662354  0.12583371853941114  1.0000
  S   S1        1.0  0.8097961283002064  0.7561094162597469  0.7598428266350082  1.0000
  S   S2        1.0  0.6902111472643355  0.7438936597649928  0.25983956548355985  1.0000
  S   S3        1.0  0.1902045151695972  0.24389975750528242  0.24015565839147254  1.0000
  S   S4        1.0  0.3097966699765138  0.2561029947624931  0.7401570872244958  1.0000
  N   N1        1.0  0.6309188398654443  0.2549034611457587  0.4511150914289033  1.0000
  N   N2        1.0  0.869066313526787  0.24509279134535691  0.9511164590739296  1.0000
  N   N3        1.0  0.36907329978600967  0.7450942843645195  0.5488809505140819  1.0000
  N   N4        1.0  0.1309390346698294  0.7549049123593932  0.04888507983223889  1.0000
  O   O1        1.0  0.7422884809291971  0.5052262672663941  0.5705829447744504  1.0000
  O   O2        1.0  0.7577186344606517  0.9947768011875908  0.070582841741512  1.0000
  O   O3        1.0  0.2577100903078815  0.4947704165078618  0.4294161510384383  1.0000
  O   O4        1.0  0.2422874044837968  0.0052250658501761995  0.9294174756114086  1.0000
  O   O5        1.0  0.45594608821544813  0.7882303388202061  0.9321132533369505  1.0000
  O   O6        1.0  0.04405430030762859  0.7117668033666078  0.43211146287751484  1.0000
  O   O7        1.0  0.5440543219335723  0.21176946327061322  0.0678864532467855  1.0000
  O   O8        1.0  0.9559383573885539  0.2882340646309842  0.5678882437105413  1.0000
  O   O9        1.0  0.7027450525005888  0.9362001310048385  0.8978155246458215  1.0000
  O   O10       1.0  0.7972603875807709  0.5637969906343372  0.397813640242127  1.0000
  O   O11       1.0  0.2972620739816847  0.06379236018132418  0.10218540348881078  1.0000
  O   O12       1.0  0.20273921976514236  0.43620593812948993  0.6021872878888954  1.0000
  O   O13       1.0  0.9831487854615445  0.6547131889561156  0.6109768527677204  1.0000
  O   O14       1.0  0.5168590208202914  0.8452875740075567  0.11097915275743017  1.0000
  O   O15       1.0  0.016849328357089577  0.3452887031659698  0.3890197999424956  1.0000
  O   O16       1.0  0.48315074738564334  0.15470490882879062  0.8890187215021113  1.0000
