data_image0
_chemical_formula_structural       CdH18C20N12O2
_chemical_formula_sum              "Cd1 H18 C20 N12 O2"
_cell_length_a       7.649145368640484
_cell_length_b       8.007030751505706
_cell_length_c       8.961341037489044
_cell_angle_alpha    102.26267637238406
_cell_angle_beta     95.33809045394587
_cell_angle_gamma    107.66848346234043

_space_group_name_H-M_alt    "P 1"
_space_group_IT_number       1

loop_
  _space_group_symop_operation_xyz
  'x, y, z'

loop_
  _atom_site_type_symbol
  _atom_site_label
  _atom_site_symmetry_multiplicity
  _atom_site_fract_x
  _atom_site_fract_y
  _atom_site_fract_z
  _atom_site_occupancy
  Cd  Cd1       1.0  0.999999361341928  0.9999994027980963  0.9999994179863518  1.0000
  H   H1        1.0  0.9392227021739645  0.04170822382737071  0.6459640414404929  1.0000
  H   H2        1.0  0.06077536377218709  0.9582952150948929  0.3540371462107145  1.0000
  H   H3        1.0  0.6677876176168311  0.7561801000022825  0.1225197865618881  1.0000
  H   H4        1.0  0.3322094916218604  0.24381657220617833  0.877480009699802  1.0000
  H   H5        1.0  0.7724957383199185  0.6283399908054507  0.04373046433958194  1.0000
  H   H6        1.0  0.22750230746096634  0.3716594038977092  0.9562688277405654  1.0000
  H   H7        1.0  0.3895481726167561  0.2225935944426354  0.1159554659618323  1.0000
  H   H8        1.0  0.6104516431788627  0.7774071633172072  0.8840442554836584  1.0000
  H   H9        1.0  0.6499343105543931  0.9792537282529776  0.41486135647999584  1.0000
  H   H10       1.0  0.35006854301695267  0.02074434386818071  0.585138135765831  1.0000
  H   H11       1.0  0.7813068679880787  0.7598866112192937  0.3793557047915569  1.0000
  H   H12       1.0  0.21868948321291987  0.24011548978869268  0.6206428312946385  1.0000
  H   H13       1.0  0.8791825843014821  0.5489996761490802  0.764362743331361  1.0000
  H   H14       1.0  0.12082166026575442  0.4510024734285309  0.23563654819206187  1.0000
  H   H15       1.0  0.831768604640715  0.28316048296425583  0.581695443176926  1.0000
  H   H16       1.0  0.16823601894536475  0.7168389522135925  0.41830447843424406  1.0000
  H   H17       1.0  0.5591050375179236  0.5231902862766945  0.2849369527102539  1.0000
  H   H18       1.0  0.4408948059124996  0.47681048405435433  0.7150616576354095  1.0000
  C   C1        1.0  0.9021483628356962  0.8967581218978894  0.6295723385668096  1.0000
  C   C2        1.0  0.09784568099247792  0.10324122337805623  0.37042879799438566  1.0000
  C   C3        1.0  0.875521074831724  0.6451591136856933  0.6963657726146194  1.0000
  C   C4        1.0  0.12447790749135385  0.3548430035121656  0.30363301528399217  1.0000
  C   C5        1.0  0.821070752302511  0.759634689834009  0.4984668722693185  1.0000
  C   C6        1.0  0.17892768519295293  0.24037006633640354  0.5015379521405093  1.0000
  C   C7        1.0  0.7077906449728603  0.4234961241551361  0.4447097116395398  1.0000
  C   C8        1.0  0.2922131451406786  0.5765046704607216  0.5552892764247374  1.0000
  C   C9        1.0  0.39231880373822053  0.9000776830938549  0.1566814309050386  1.0000
  C   C10       1.0  0.6076814187110458  0.09992037283743122  0.8433178095283792  1.0000
  C   C11       1.0  0.5064775331415492  0.07872235339691971  0.25313992020937087  1.0000
  C   C12       1.0  0.4935231990310101  0.9212770826385184  0.7468574014835311  1.0000
  C   C13       1.0  0.48546178446682137  0.23460838380958657  0.218102801864795  1.0000
  C   C14       1.0  0.5145344838297917  0.7653936794847952  0.7818990675208823  1.0000
  C   C15       1.0  0.6331398160475247  0.09884620613883041  0.3849236674453422  1.0000
  C   C16       1.0  0.3668626659745086  0.9011505487341934  0.6150721880418499  1.0000
  C   C17       1.0  0.7336195232368824  0.2697824811473311  0.4801696385174948  1.0000
  C   C18       1.0  0.2663802447586862  0.7302142198222088  0.5198292984567772  1.0000
  C   C19       1.0  0.5832475198327103  0.4053391262920981  0.3130233654527003  1.0000
  C   C20       1.0  0.41675406597764925  0.5946629945244339  0.6869767853581477  1.0000
  N   N1        1.0  0.9352757961739544  0.8239918924255888  0.7512841200659678  1.0000
  N   N2        1.0  0.06472796630478682  0.17600888961906946  0.24871597909814366  1.0000
  N   N3        1.0  0.8035343326856508  0.5996317886132586  0.5419943344230019  1.0000
  N   N4        1.0  0.19646725312471605  0.4003703322032734  0.45800581638784615  1.0000
  N   N5        1.0  0.22663486140085365  0.863891921509719  0.06595850760647443  1.0000
  N   N6        1.0  0.7733644170366889  0.13610744357477242  0.9340442436793664  1.0000
  N   N7        1.0  0.16518356821109137  0.6845823793879973  0.0003065682750361113  1.0000
  N   N8        1.0  0.8348162475845345  0.31541837837185227  0.9996931531704616  1.0000
  N   N9        1.0  0.28810164346019473  0.6146938166049766  0.04823313583982271  1.0000
  N   N10       1.0  0.7118977178817264  0.3853055861931267  0.9517662821465291  1.0000
  N   N11       1.0  0.4333010229738933  0.7462132151188994  0.14687376123086437  1.0000
  N   N12       1.0  0.5666991442057778  0.253784815669988  0.853127701402208  1.0000
  O   O1        1.0  0.7935246388417809  0.7566541284092095  0.10025192826567057  1.0000
  O   O2        1.0  0.20647295248540598  0.24334391133220384  0.8997470603553381  1.0000
