data_image0
_chemical_formula_structural       Zn2H42C40N2O8
_chemical_formula_sum              "Zn2 H42 C40 N2 O8"
_cell_length_a       9.724898680934437
_cell_length_b       10.964057830800678
_cell_length_c       17.441591233983285
_cell_angle_alpha    93.495442397886
_cell_angle_beta     92.81073135205595
_cell_angle_gamma    90.66122769737845

_space_group_name_H-M_alt    "P 1"
_space_group_IT_number       1

loop_
  _space_group_symop_operation_xyz
  'x, y, z'

loop_
  _atom_site_type_symbol
  _atom_site_label
  _atom_site_symmetry_multiplicity
  _atom_site_fract_x
  _atom_site_fract_y
  _atom_site_fract_z
  _atom_site_occupancy
  Zn  Zn1       1.0  0.358453892557037  0.5022529849831018  0.5088492727191962  1.0000
  Zn  Zn2       1.0  0.6459181525216238  0.4990281495676499  0.49715049333710937  1.0000
  H   H1        1.0  0.6703794826236731  0.5973529957934786  0.2715392461873877  1.0000
  H   H2        1.0  0.37110852879677475  0.40856290041678267  0.7531405928840442  1.0000
  H   H3        1.0  0.721634872947618  0.6467374138851979  0.7424373507914765  1.0000
  H   H4        1.0  0.2374250913368456  0.5134120448724887  0.2560116467463588  1.0000
  H   H5        1.0  0.6487159116972165  0.6341119893334763  0.009235355601006707  1.0000
  H   H6        1.0  0.3451996231673533  0.5496181685880188  0.0006573533792390997  1.0000
  H   H7        1.0  0.2326049951903997  0.5365475164468236  0.11448760970827013  1.0000
  H   H8        1.0  0.7237875619182786  0.6902865198432692  0.8843342405484905  1.0000
  H   H9        1.0  0.37438702406220864  0.4468351737865248  0.8945249639661698  1.0000
  H   H10       1.0  0.6663550709525908  0.6279397915450246  0.13184934997647701  1.0000
  H   H11       1.0  0.7071787463647042  0.137026552394083  0.5293811218277327  1.0000
  H   H12       1.0  0.2973255496616005  0.8698117902611315  0.5164425667149075  1.0000
  H   H13       1.0  0.8215241735409721  0.039618097998271706  0.6957832157952881  1.0000
  H   H14       1.0  0.6486288557440005  0.9853571210963138  0.6888054804237884  1.0000
  H   H15       1.0  0.7699571942500114  0.9204855414445559  0.7532808683034276  1.0000
  H   H16       1.0  0.7275963865631923  0.7796159170688028  0.6357619464633899  1.0000
  H   H17       1.0  0.8998649725427867  0.8328464226521178  0.6439192871289594  1.0000
  H   H18       1.0  0.8073496134068847  0.832432792514517  0.509871208003844  1.0000
  H   H19       1.0  0.8524682175947335  0.9831064353220922  0.5465319981595729  1.0000
  H   H20       1.0  0.9825234601141517  0.1357968006364558  0.606259249027744  1.0000
  H   H21       1.0  0.04909791411277098  0.25189771394498445  0.6737081845349735  1.0000
  H   H22       1.0  0.0321176472059506  0.2794813756681052  0.5745419251371332  1.0000
  H   H23       1.0  0.23108833774261228  0.0962395719037374  0.6469987911451442  1.0000
  H   H24       1.0  0.2798750044989546  0.23967804858261127  0.6153525098301813  1.0000
  H   H25       1.0  0.20202652758193548  0.17215106907121216  0.4808087105395559  1.0000
  H   H26       1.0  0.15046554042486804  0.0277988342039492  0.5119690854676477  1.0000
  H   H27       1.0  0.8593651954315787  0.6216894821942915  0.5856947347000769  1.0000
  H   H28       1.0  0.1449959736335273  0.38253045061331653  0.41516772887506204  1.0000
  H   H29       1.0  0.9642638300493831  0.6570275081175581  0.7503510599899743  1.0000
  H   H30       1.0  0.9395176919253031  0.5114719334827811  0.7011014024534463  1.0000
  H   H31       1.0  0.03064592555013949  0.5246607834691231  0.7915901012460793  1.0000
  H   H32       1.0  0.20022000443309904  0.4993180093098673  0.6874305550147994  1.0000
  H   H33       1.0  0.2214684950136387  0.6416122356858055  0.7381661656047245  1.0000
  H   H34       1.0  0.23979987887508963  0.6793572110235145  0.606236720335886  1.0000
  H   H35       1.0  0.077101903766895  0.7360084910027568  0.631719128815661  1.0000
  H   H36       1.0  0.6885510362200263  0.1385671348985866  0.34962898123752956  1.0000
  H   H37       1.0  0.8260924208117971  0.12809042915191782  0.2860731847553524  1.0000
  H   H38       1.0  0.8139366394034655  0.023730279352591296  0.3596382375414038  1.0000
  H   H39       1.0  0.9947619478919733  0.1819958219764146  0.3999733619719238  1.0000
  H   H40       1.0  0.8552535707987231  0.19476397057376718  0.4605950550982528  1.0000
  H   H41       1.0  0.7572001777010442  0.36216850380878185  0.37748562865470353  1.0000
  H   H42       1.0  0.9114874219774193  0.3560448829869714  0.327919844212019  1.0000
  C   C1        1.0  0.4887260007143439  0.2646719195271955  0.5030622867942114  1.0000
  C   C2        1.0  0.5209080568424936  0.7391033511579082  0.5175438093889184  1.0000
  C   C3        1.0  0.6175389138170003  0.07616419353471567  0.5252933693978222  1.0000
  C   C4        1.0  0.3874065772950175  0.930307111158214  0.5186642075569452  1.0000
  C   C5        1.0  0.6365742559154058  0.951289604184886  0.5310844501256612  1.0000
  C   C6        1.0  0.368310338289028  0.056323689729517  0.5166824849659193  1.0000
  C   C7        1.0  0.5171031894396734  0.8760246348699426  0.5231956061030447  1.0000
  C   C8        1.0  0.4884391679467869  0.13017694341800023  0.5152040408694063  1.0000
  C   C9        1.0  0.9246831732761437  0.5674420603820421  0.5482920833476044  1.0000
  C   C10       1.0  0.07938736166065752  0.43438344784932076  0.4537926512623969  1.0000
  C   C11       1.0  0.0681100414340463  0.5742643258061122  0.5586161811255651  1.0000
  C   C12       1.0  0.9356564870770754  0.425911167609492  0.4443084349661178  1.0000
  C   C13       1.0  0.46354054283497  0.523628488611351  0.355110416551078  1.0000
  C   C14       1.0  0.5367011053589437  0.507297190735585  0.6528944346499801  1.0000
  C   C15       1.0  0.45523567729182446  0.5500467363292572  0.2719683690984668  1.0000
  C   C16       1.0  0.5441596949460035  0.5274034741586107  0.7385944066482824  1.0000
  C   C17       1.0  0.5748936572803203  0.5850340246400235  0.23637523074989994  1.0000
  C   C18       1.0  0.44674265991645257  0.47153630425957954  0.7823494006591787  1.0000
  C   C19       1.0  0.5718201430739996  0.6017350092907137  0.1581842008033476  1.0000
  C   C20       1.0  0.44822388388627116  0.49431206208210904  0.8614260554986829  1.0000
  C   C21       1.0  0.4494333231545866  0.5805405957850454  0.11212221316154113  1.0000
  C   C22       1.0  0.546349214130842  0.5752394575475748  0.8999260039271562  1.0000
  C   C23       1.0  0.3286667319450203  0.5512090169847069  0.14914472297602546  1.0000
  C   C24       1.0  0.6457953074041001  0.6285495477262868  0.8556474376573393  1.0000
  C   C25       1.0  0.33091974367691535  0.5373361342979733  0.22796115009352044  1.0000
  C   C26       1.0  0.6449285754565182  0.604819916471392  0.7763408139775764  1.0000
  C   C27       1.0  0.44475929298914  0.5777776787588991  0.028530247855798108  1.0000
  C   C28       1.0  0.5504003307221126  0.5990213847960391  0.9831015196056114  1.0000
  C   C29       1.0  0.7793742793633315  0.9066784810883418  0.5509733025694673  1.0000
  C   C30       1.0  0.7929219641969638  0.861796203861225  0.6330725253507482  1.0000
  C   C31       1.0  0.756264204123994  0.9570650050137746  0.6961419398356057  1.0000
  C   C32       1.0  0.22442353310423607  0.1044799068453415  0.5232945177619968  1.0000
  C   C33       1.0  0.2051181514104883  0.1637514409836385  0.6044226463198897  1.0000
  C   C34       1.0  0.05959046353083147  0.21017009891496494  0.6153837691915456  1.0000
  C   C35       1.0  0.1370753134175544  0.6521919360926561  0.6229139062328954  1.0000
  C   C36       1.0  0.1495531343162853  0.5870549480034555  0.6989062017311768  1.0000
  C   C37       1.0  0.013691966193917389  0.5689497565396734  0.7371414235672021  1.0000
  C   C38       1.0  0.8669539608159554  0.3406438458150873  0.3834937645289003  1.0000
  C   C39       1.0  0.8851368899112584  0.2056629540822996  0.40141735070714196  1.0000
  C   C40       1.0  0.798769492067514  0.1193045285371639  0.3459724531160618  1.0000
  N   N1        1.0  0.14395249985773972  0.5055848764973803  0.5099268694074865  1.0000
  N   N2        1.0  0.8599174336984207  0.49422524986576377  0.49317906186840343  1.0000
  O   O1        1.0  0.37494723474429037  0.3166535158441093  0.4875804338294075  1.0000
  O   O2        1.0  0.6309230071282953  0.6876686095437633  0.4970887703399783  1.0000
  O   O3        1.0  0.6062904193754122  0.31873527689773334  0.5079108329796398  1.0000
  O   O4        1.0  0.4101306591837854  0.6826682468854628  0.5318053899245501  1.0000
  O   O5        1.0  0.3532566740629193  0.5283600165177162  0.3916796020415347  1.0000
  O   O6        1.0  0.6446847923228205  0.529093194159536  0.6171697220949426  1.0000
  O   O7        1.0  0.5824659773952447  0.49726825523384827  0.3832550854031141  1.0000
  O   O8        1.0  0.4205600844964223  0.47157053915198327  0.6215041265524094  1.0000
