data_image0
_chemical_formula_structural       Co2H48C66N4O12
_chemical_formula_sum              "Co2 H48 C66 N4 O12"
_cell_length_a       8.93435825032902
_cell_length_b       12.062278172314633
_cell_length_c       12.95407854789132
_cell_angle_alpha    67.93737242488066
_cell_angle_beta     83.07174480760477
_cell_angle_gamma    84.3072643517235

_space_group_name_H-M_alt    "P 1"
_space_group_IT_number       1

loop_
  _space_group_symop_operation_xyz
  'x, y, z'

loop_
  _atom_site_type_symbol
  _atom_site_label
  _atom_site_symmetry_multiplicity
  _atom_site_fract_x
  _atom_site_fract_y
  _atom_site_fract_z
  _atom_site_occupancy
  Co  Co1       1.0  0.5489298116074507  0.1441967053777731  0.004718425042703723  1.0000
  Co  Co2       1.0  0.45106853203010633  0.8558015034360623  0.9952834976232052  1.0000
  H   H1        1.0  0.0342594413615132  0.1476404172111145  0.0015606572675181994  1.0000
  H   H2        1.0  0.9657201078024827  0.8523676145649758  0.9984393869428203  1.0000
  H   H3        1.0  0.933887664189484  0.3570599003826517  0.96024166014017  1.0000
  H   H4        1.0  0.06610303381583547  0.6429499589697373  0.03975454217983548  1.0000
  H   H5        1.0  0.036348411498643415  0.519740061729138  0.7850365115457832  1.0000
  H   H6        1.0  0.9636470023306388  0.48026711786844334  0.21496023627465627  1.0000
  H   H7        1.0  0.23007884412265872  0.4668275374207981  0.6561689856765938  1.0000
  H   H8        1.0  0.7699237248543582  0.5331742544221569  0.34383290563526  1.0000
  H   H9        1.0  0.4635749621690053  0.4264221128922188  0.618378187908661  1.0000
  H   H10       1.0  0.5364278777327556  0.5735760899154982  0.38162569157212534  1.0000
  H   H11       1.0  0.6486036643805022  0.388969853514503  0.4776242895608718  1.0000
  H   H12       1.0  0.3513993558021369  0.6110256322779648  0.5223851444642237  1.0000
  H   H13       1.0  0.4978029967403046  0.03318597006088451  0.5765669905355679  1.0000
  H   H14       1.0  0.5021929327525497  0.9668140026218524  0.4234383775285834  1.0000
  H   H15       1.0  0.30408866988752686  0.0725536191298914  0.7098103270154823  1.0000
  H   H16       1.0  0.6959049961981095  0.9274463397300178  0.29019677158629525  1.0000
  H   H17       1.0  0.6840225458501266  0.10456978882363903  0.4174608314228934  1.0000
  H   H18       1.0  0.31596452875884035  0.8954284037574072  0.5825412301038141  1.0000
  H   H19       1.0  0.7035259189633295  0.26179237280727824  0.35046084133592353  1.0000
  H   H20       1.0  0.2964701656313196  0.7382058269911196  0.6495420378833145  1.0000
  H   H21       1.0  0.8673982810052223  0.1737828153703163  0.2608217934410604  1.0000
  H   H22       1.0  0.13259493824195803  0.8262091441764737  0.7391772925803579  1.0000
  H   H23       1.0  0.1082615646624703  0.156578900890139  0.1525719809037156  1.0000
  H   H24       1.0  0.8917415767142601  0.843415746534113  0.8474284688558668  1.0000
  H   H25       1.0  0.35304998582277847  0.13669217995972358  0.4250774873808396  1.0000
  H   H26       1.0  0.6469429624968015  0.863317678793308  0.5749193063544524  1.0000
  H   H27       1.0  0.1119875808806938  0.15003986709842823  0.5378749948866783  1.0000
  H   H28       1.0  0.8880053117095769  0.849970902133748  0.4621191733495422  1.0000
  H   H29       1.0  0.296144563531314  0.3224296974897881  0.04671899910960781  1.0000
  H   H30       1.0  0.7038568102909722  0.6775739612813894  0.9532699926455451  1.0000
  H   H31       1.0  0.2666079652456332  0.5466104327717076  0.9601659788044329  1.0000
  H   H32       1.0  0.7334019629923886  0.4533995344599191  0.03981706191431301  1.0000
  H   H33       1.0  0.44129914751821514  0.6573740848297902  0.7952323720818768  1.0000
  H   H34       1.0  0.5587182111566094  0.34262691041937643  0.2047570263129046  1.0000
  H   H35       1.0  0.6631554441646443  0.6428235761521464  0.6516924597506772  1.0000
  H   H36       1.0  0.3368690871151898  0.3571720505719753  0.34829898619830146  1.0000
  H   H37       1.0  0.8519127299515218  0.5157507990378177  0.5842171635946372  1.0000
  H   H38       1.0  0.14810470963455202  0.4842340314302832  0.4157832078056316  1.0000
  H   H39       1.0  0.9639234887410237  0.30129230043677785  0.6051893925068512  1.0000
  H   H40       1.0  0.036083434494209095  0.6986969625355782  0.3948149266290529  1.0000
  H   H41       1.0  0.9535282419665451  0.0806080086024465  0.7168610161969866  1.0000
  H   H42       1.0  0.04647403426699981  0.9193830380677639  0.28314306098464936  1.0000
  H   H43       1.0  0.7711310445011748  0.007951164622902206  0.8846697006551308  1.0000
  H   H44       1.0  0.22887453619933504  0.9920407748015309  0.11533534709543147  1.0000
  H   H45       1.0  0.6464378508014192  0.1933065028549308  0.15096591824868708  1.0000
  H   H46       1.0  0.3535600799025361  0.8066970823006655  0.849034183140283  1.0000
  H   H47       1.0  0.7819843487651852  0.14201958826212996  0.08847293999393462  1.0000
  H   H48       1.0  0.21801252342174846  0.8579830987324825  0.9115275562256997  1.0000
  C   C1        1.0  0.24523847073648136  0.058281298725049197  0.8953398406283313  1.0000
  C   C2        1.0  0.7547524501860821  0.9417249187107545  0.10466686368797437  1.0000
  C   C3        1.0  0.1978556421804782  0.18979178725766843  0.8587707017245519  1.0000
  C   C4        1.0  0.80213523174141  0.8102153502720667  0.14123182912407378  1.0000
  C   C5        1.0  0.081974913090761  0.21962888181217718  0.9286010427316853  1.0000
  C   C6        1.0  0.9180103328633183  0.7803782548122625  0.07140039657087262  1.0000
  C   C7        1.0  0.024685713224116102  0.3374364351960892  0.904280420148652  1.0000
  C   C8        1.0  0.9753051267900545  0.6625716368497692  0.09571561527936716  1.0000
  C   C9        1.0  0.08122695265014102  0.4271228356131473  0.8066769082454286  1.0000
  C   C10       1.0  0.9187697906208997  0.5728816531101729  0.1933214329132794  1.0000
  C   C11       1.0  0.19193221946619587  0.39718344728871813  0.7347554788800679  1.0000
  C   C12       1.0  0.8080645795341539  0.6028201309554647  0.2652454877777187  1.0000
  C   C13       1.0  0.25359339359977884  0.2789411415114387  0.7583298455876104  1.0000
  C   C14       1.0  0.7464045240112256  0.7210624292219664  0.2416725777542723  1.0000
  C   C15       1.0  0.3673080897048919  0.2531284968322396  0.675874787951102  1.0000
  C   C16       1.0  0.6326959977234098  0.7468678967359988  0.3241327032747137  1.0000
  C   C17       1.0  0.4663165577793009  0.34102666934657583  0.607452705061405  1.0000
  C   C18       1.0  0.5336885881660364  0.6589706223826469  0.39255439133374653  1.0000
  C   C19       1.0  0.572108404818202  0.3196402218657611  0.5282258597221626  1.0000
  C   C20       1.0  0.427894550906494  0.6803561647910641  0.4717824967724694  1.0000
  C   C21       1.0  0.5854316413901443  0.20909511511709408  0.5150416218098003  1.0000
  C   C22       1.0  0.4145632984079413  0.7909030633477055  0.4849644446311673  1.0000
  C   C23       1.0  0.48840293118551176  0.1211334069856989  0.5830409556675348  1.0000
  C   C24       1.0  0.5115918709680544  0.8788665635930145  0.41696450368112187  1.0000
  C   C25       1.0  0.3797067031819168  0.1429295052189232  0.6608961435614233  1.0000
  C   C26       1.0  0.6202903449215853  0.8570704599530429  0.3391106811868242  1.0000
  C   C27       1.0  0.7032210339310723  0.18622306200371957  0.43156995621060185  1.0000
  C   C28       1.0  0.296768424272372  0.8137733330566519  0.5684340778080141  1.0000
  C   C29       1.0  0.9736757600783933  0.1632662397839155  0.4074400024037317  1.0000
  C   C30       1.0  0.026317889556793282  0.836734672821699  0.5925575048402152  1.0000
  C   C31       1.0  0.9726139561082476  0.1645954037832311  0.2986127628806301  1.0000
  C   C32       1.0  0.027382296681160795  0.8354010375530121  0.701385305540775  1.0000
  C   C33       1.0  0.1093428696693621  0.1545529291701087  0.23721346855447217  1.0000
  C   C34       1.0  0.8906531635603017  0.8454461859148312  0.7627860111813831  1.0000
  C   C35       1.0  0.2477415046386398  0.1436031695757407  0.2816831913954587  1.0000
  C   C36       1.0  0.7522540511994861  0.8564022227153175  0.7183133895329946  1.0000
  C   C37       1.0  0.24616384630188284  0.1429206829738092  0.3904870496333288  1.0000
  C   C38       1.0  0.7538324239419438  0.8570900877630268  0.6095076187336658  1.0000
  C   C39       1.0  0.11199738225290899  0.15172328536282717  0.45319299337264607  1.0000
  C   C40       1.0  0.8879945206426001  0.8482856896514055  0.5468018732403975  1.0000
  C   C41       1.0  0.3957189625355397  0.13901284429004332  0.21620336406717658  1.0000
  C   C42       1.0  0.6042778451934437  0.8609907435689266  0.7837960546219946  1.0000
  C   C43       1.0  0.37126793865236607  0.37268152725506815  0.9754076944456925  1.0000
  C   C44       1.0  0.6287399709172733  0.6273248082741318  0.024583708885451486  1.0000
  C   C45       1.0  0.35449996284872043  0.4980123187126607  0.925293829150739  1.0000
  C   C46       1.0  0.645509155975425  0.5019931372857798  0.0746954644891389  1.0000
  C   C47       1.0  0.4503134028705915  0.5599630318880601  0.8335820827847655  1.0000
  C   C48       1.0  0.5497015591168051  0.4400397464595898  0.16640766507103424  1.0000
  C   C49       1.0  0.5641113658685768  0.4947084735917856  0.7908254266271513  1.0000
  C   C50       1.0  0.43590393150150664  0.5052898148562761  0.20916738692804418  1.0000
  C   C51       1.0  0.6691575660499325  0.5459086979965446  0.6950250700315621  1.0000
  C   C52       1.0  0.3308591940421337  0.4540851026559451  0.30497071793851654  1.0000
  C   C53       1.0  0.7740843083087654  0.47516684200457593  0.657969377311339  1.0000
  C   C54       1.0  0.2259314446312644  0.5248251452003958  0.3420302049727936  1.0000
  C   C55       1.0  0.784769763764956  0.34749475439745947  0.7138260056280573  1.0000
  C   C56       1.0  0.215240197376822  0.6524989951717545  0.28617652192353665  1.0000
  C   C57       1.0  0.8851394076937991  0.2674192605667187  0.6795429205523079  1.0000
  C   C58       1.0  0.11486964566843474  0.7325718131497896  0.3204582869693553  1.0000
  C   C59       1.0  0.8796871057765614  0.1458864692540942  0.74076488946276  1.0000
  C   C60       1.0  0.12031516609265941  0.854104572608719  0.25923996170318026  1.0000
  C   C61       1.0  0.778459899379982  0.10313023766456551  0.8367773340324476  1.0000
  C   C62       1.0  0.2215409567679387  0.8968643718998806  0.16322871618629625  1.0000
  C   C63       1.0  0.6847930299997104  0.29687513097231033  0.8099846099044967  1.0000
  C   C64       1.0  0.3152113119028854  0.7031186273063952  0.19001527813242083  1.0000
  C   C65       1.0  0.5743874523659684  0.36924646883981194  0.8469685409914406  1.0000
  C   C66       1.0  0.42562104168951015  0.6307517637175835  0.15303178612957422  1.0000
  N   N1        1.0  0.48000897334738096  0.30847905074302423  0.938102056240446  1.0000
  N   N2        1.0  0.5199960185029652  0.6915209868458162  0.06189484170456441  1.0000
  N   N3        1.0  0.6830296347516978  0.17684242077585566  0.8722424844318581  1.0000
  N   N4        1.0  0.3169756793883849  0.823153112491205  0.12775980116546745  1.0000
  O   O1        1.0  0.1488772734975257  0.9911630116020617  0.8908175578126531  1.0000
  O   O2        1.0  0.8511152226124636  0.0088378700551601  0.1091846846216455  1.0000
  O   O3        1.0  0.37668921154072177  0.023633567103523503  0.9326398423175348  1.0000
  O   O4        1.0  0.6232976435084934  0.9763672992262047  0.06736363052361578  1.0000
  O   O5        1.0  0.84839035684697  0.17374333216425702  0.4747698324873824  1.0000
  O   O6        1.0  0.1516029224938364  0.8262477217107786  0.5252311050488104  1.0000
  O   O7        1.0  0.5141617290073341  0.15505883626940434  0.2524581437430413  1.0000
  O   O8        1.0  0.4858341665777959  0.8449420709294556  0.7475407289004964  1.0000
  O   O9        1.0  0.39160438428954336  0.12221053826365141  0.12374587323054699  1.0000
  O   O10       1.0  0.6083875917925498  0.8777975455010176  0.8762485229443442  1.0000
  O   O11       1.0  0.7134906765613067  0.2161622966688412  0.07862443087063303  1.0000
  O   O12       1.0  0.28650184573459103  0.7838386138327562  0.9213731676578264  1.0000
