data_image0
_chemical_formula_structural       Ca2H44C24O24
_chemical_formula_sum              "Ca2 H44 C24 O24"
_cell_length_a       5.740646396090297
_cell_length_b       6.819317397041958
_cell_length_c       19.31039475428097
_cell_angle_alpha    90.0002513964914
_cell_angle_beta     90.00056411534334
_cell_angle_gamma    89.99968859349208

_space_group_name_H-M_alt    "P 1"
_space_group_IT_number       1

loop_
  _space_group_symop_operation_xyz
  'x, y, z'

loop_
  _atom_site_type_symbol
  _atom_site_label
  _atom_site_symmetry_multiplicity
  _atom_site_fract_x
  _atom_site_fract_y
  _atom_site_fract_z
  _atom_site_occupancy
  Ca  Ca1       1.0  0.2770585452919009  8.525035965999998e-06  0.9999965339615642  1.0000
  Ca  Ca2       1.0  0.7229374433625395  0.49999872811315527  0.5000026155118108  1.0000
  H   H1        1.0  0.5543377187469147  0.8018862255371532  0.12412162793916079  1.0000
  H   H2        1.0  0.5543312390085049  0.19811199575325125  0.8758748243062655  1.0000
  H   H3        1.0  0.44566760335442973  0.30188638098019277  0.37587927056722503  1.0000
  H   H4        1.0  0.4456686860245541  0.6981123334737233  0.6241230781493173  1.0000
  H   H5        1.0  0.1896145552583661  0.16579268727814878  0.1388561893864733  1.0000
  H   H6        1.0  0.18961389858090166  0.8342159876631497  0.8611433390749283  1.0000
  H   H7        1.0  0.8103846848199509  0.6657899195841922  0.3611439806681958  1.0000
  H   H8        1.0  0.8103851405833992  0.334214471887833  0.6388563275462787  1.0000
  H   H9        1.0  0.7373657712791442  0.2217067539607385  0.0031487773331804  1.0000
  H   H10       1.0  0.7373682347390726  0.7783067673959322  0.9968507994888397  1.0000
  H   H11       1.0  0.26262962089953135  0.7216964290001541  0.4968483720939929  1.0000
  H   H12       1.0  0.2626259424909563  0.2783045824954726  0.503151369892457  1.0000
  H   H13       1.0  0.19342299297019852  0.1143645578148664  0.2642860094423725  1.0000
  H   H14       1.0  0.19343526375600115  0.885630902025518  0.7357156015888435  1.0000
  H   H15       1.0  0.8065765818367651  0.6143617132562939  0.2357130453236351  1.0000
  H   H16       1.0  0.8065721505346204  0.38562949767379007  0.7642820731785066  1.0000
  H   H17       1.0  0.43791566965206397  0.5149124651376552  0.195825621712558  1.0000
  H   H18       1.0  0.43792584888002045  0.4850980158402507  0.8041746329323445  1.0000
  H   H19       1.0  0.5620845525089281  0.0149112001466918  0.3041748327355194  1.0000
  H   H20       1.0  0.5620861439574085  0.9850913852732148  0.6958273385948459  1.0000
  H   H21       1.0  0.13936753892475912  0.45923159736106084  0.19276720355342292  1.0000
  H   H22       1.0  0.1393722311451455  0.5407802384164456  0.8072295886898716  1.0000
  H   H23       1.0  0.8606350170690577  0.9592264644772469  0.3072339384136811  1.0000
  H   H24       1.0  0.8606374278213239  0.04077329970451869  0.692769106038142  1.0000
  H   H25       1.0  0.2616945020341603  0.4962781354965882  0.0512079020890113  1.0000
  H   H26       1.0  0.2616919338119247  0.5037258130688186  0.9487892478875182  1.0000
  H   H27       1.0  0.7382991029823814  0.9962767854117017  0.4487927793362089  1.0000
  H   H28       1.0  0.7383022886543102  0.0037220674996873986  0.5512093894841072  1.0000
  H   H29       1.0  0.6770576027978379  0.4823038123377684  0.0767108255716877  1.0000
  H   H30       1.0  0.6770558403445932  0.5176982513419687  0.9232911641407283  1.0000
  H   H31       1.0  0.32293609315622973  0.9823010970118772  0.4232882806619854  1.0000
  H   H32       1.0  0.3229400332092638  0.017696707955700202  0.5767121555575514  1.0000
  H   H33       1.0  0.6386732721376376  0.27443446354386236  0.1318601803176804  1.0000
  H   H34       1.0  0.6386631027508757  0.7255707071804095  0.8681406614167669  1.0000
  H   H35       1.0  0.3613357125789349  0.7744308878506774  0.3681401578578019  1.0000
  H   H36       1.0  0.3613349016491441  0.22557114214176718  0.6318609085150371  1.0000
  H   H37       1.0  0.1192670996411351  0.7765394809735326  0.2601829239251643  1.0000
  H   H38       1.0  0.11928381641044442  0.2234577817515059  0.7398112202608971  1.0000
  H   H39       1.0  0.8807314195937791  0.27653450282382147  0.2398174174911318  1.0000
  H   H40       1.0  0.8807194275942222  0.7234549052463422  0.7601872392717439  1.0000
  H   H41       1.0  0.4209853423492973  0.8161584984331397  0.24423602628807833  1.0000
  H   H42       1.0  0.4210115555072989  0.1838359286910034  0.7557641788544487  1.0000
  H   H43       1.0  0.5790129190080507  0.3161580207370775  0.2557654121475466  1.0000
  H   H44       1.0  0.5789954302678666  0.6838371557612818  0.7442316300988169  1.0000
  C   C1        1.0  0.984303285580694  0.7695359499998771  0.1207292404085152  1.0000
  C   C2        1.0  0.984340256747828  0.23046471925502487  0.8792632907953221  1.0000
  C   C3        1.0  0.0156813436185104  0.2695424981888834  0.37927885799651767  1.0000
  C   C4        1.0  0.015659457740056802  0.7304611005148871  0.6207362152853975  1.0000
  C   C5        1.0  0.22919730077875763  0.7455442623006051  0.1533286941046157  1.0000
  C   C6        1.0  0.22918948622761093  0.2544539680616111  0.8466688786762974  1.0000
  C   C7        1.0  0.7708083880811643  0.2455381796079692  0.3466726350723732  1.0000
  C   C8        1.0  0.7708170399252481  0.754459059342338  0.6533296288293542  1.0000
  C   C9        1.0  0.2820458862178086  0.5253858041445838  0.16308604011014444  1.0000
  C   C10       1.0  0.2820502509284566  0.47462098490237287  0.8369122051087459  1.0000
  C   C11       1.0  0.7179525257995677  0.025387172003561904  0.3369144305432812  1.0000
  C   C12       1.0  0.7179548422291903  0.9746147060933126  0.6630887144853546  1.0000
  C   C13       1.0  0.3173808953810138  0.40802605188815033  0.09582067489377981  1.0000
  C   C14       1.0  0.3173745320824112  0.5919703118832659  0.9041787093515766  1.0000
  C   C15       1.0  0.6826202519455576  0.9080287987104467  0.4041819414117143  1.0000
  C   C16       1.0  0.6826225999509887  0.09197030688483208  0.5958221359958173  1.0000
  C   C17       1.0  0.5723103903238211  0.34979230677693357  0.0852929941209197  1.0000
  C   C18       1.0  0.5723074808771784  0.6502131650934684  0.9147092071109598  1.0000
  C   C19       1.0  0.42768416816254984  0.8497875429098228  0.41470642492613763  1.0000
  C   C20       1.0  0.42768927209894514  0.15020978670798968  0.5852937997787465  1.0000
  C   C21       1.0  0.24421040156393303  0.8445897736984093  0.22431232344657556  1.0000
  C   C22       1.0  0.2442304922955785  0.15541425418050636  0.7756884004208474  1.0000
  C   C23       1.0  0.7557894166964231  0.3445872752553854  0.2756886411271751  1.0000
  C   C24       1.0  0.755774936586086  0.6554085654613288  0.7243104716812498  1.0000
  O   O1        1.0  0.9716693558033996  0.8173409556409225  0.0573457799391761  1.0000
  O   O2        1.0  0.9716495123813618  0.18266710323902663  0.9426549999317403  1.0000
  O   O3        1.0  0.0283254139191484  0.3173409029163778  0.44265514246554727  1.0000
  O   O4        1.0  0.028348771314156803  0.6826406418667259  0.5573433964578102  1.0000
  O   O5        1.0  0.8089962541736211  0.7343028555596617  0.15923775009699884  1.0000
  O   O6        1.0  0.8089707507755366  0.26569127722791563  0.8407485719043494  1.0000
  O   O7        1.0  0.1910060239009468  0.2343051961679521  0.3407635616870905  1.0000
  O   O8        1.0  0.19103221828717662  0.7656888082445334  0.6592473636993149  1.0000
  O   O9        1.0  0.39275623050502867  0.8339395497599467  0.10741694179425558  1.0000
  O   O10       1.0  0.3927661907700114  0.16606820329300828  0.8925811093544596  1.0000
  O   O11       1.0  0.6072436570477818  0.3339435790593157  0.3925834884491906  1.0000
  O   O12       1.0  0.6072356847736272  0.666066133537889  0.6074146720958353  1.0000
  O   O13       1.0  0.17104598638120905  0.236186592437555  0.0939451720984366  1.0000
  O   O14       1.0  0.1710385666594192  0.763822166766644  0.9060517127696174  1.0000
  O   O15       1.0  0.8289510535510587  0.7361828328361143  0.40605562473228224  1.0000
  O   O16       1.0  0.8289574467862695  0.26381560869836557  0.5939478449191641  1.0000
  O   O17       1.0  0.5844339102709952  0.22163392773884277  0.026923313608776304  1.0000
  O   O18       1.0  0.5844164236691185  0.7783670898682613  0.9730768516308359  1.0000
  O   O19       1.0  0.4155667082781846  0.7216328779369263  0.47307590714374476  1.0000
  O   O20       1.0  0.41557426925469787  0.27836304025124287  0.5269258356930635  1.0000
  O   O21       1.0  0.2031530419499887  0.0500572231222876  0.2177141657560639  1.0000
  O   O22       1.0  0.2031786315256596  0.9499396589362802  0.782284366616814  1.0000
  O   O23       1.0  0.7968417256047078  0.5500506029144888  0.2822878966286595  1.0000
  O   O24       1.0  0.7968283641458741  0.44994065224135227  0.7177118540927268  1.0000
