data_image0
_chemical_formula_structural       Cu12H90C72I12N42
_chemical_formula_sum              "Cu12 H90 C72 I12 N42"
_cell_length_a       9.442613770337147
_cell_length_b       18.510731316995756
_cell_length_c       18.502570867138434
_cell_angle_alpha    117.17973867838117
_cell_angle_beta     99.7912313043923
_cell_angle_gamma    99.79710771221585

_space_group_name_H-M_alt    "P 1"
_space_group_IT_number       1

loop_
  _space_group_symop_operation_xyz
  'x, y, z'

loop_
  _atom_site_type_symbol
  _atom_site_label
  _atom_site_symmetry_multiplicity
  _atom_site_fract_x
  _atom_site_fract_y
  _atom_site_fract_z
  _atom_site_occupancy
  Cu  Cu1       1.0  0.9250131975945667  0.6260843108120755  0.6745468045031658  1.0000
  Cu  Cu2       1.0  0.2505130252728521  0.3255266113951691  0.9518193764531729  1.0000
  Cu  Cu3       1.0  0.2991902620555251  0.048319308902868806  0.3738113581513645  1.0000
  Cu  Cu4       1.0  0.07498547626349959  0.3739154057731113  0.3254525991252493  1.0000
  Cu  Cu5       1.0  0.749486531383326  0.6744705728522505  0.04817894640127216  1.0000
  Cu  Cu6       1.0  0.7008092981201558  0.9516778760566497  0.62618966766059  1.0000
  Cu  Cu7       1.0  0.06614556341843078  0.611795859681962  0.562690634242813  1.0000
  Cu  Cu8       1.0  0.5037567165356692  0.43746032245869054  0.04913294241995196  1.0000
  Cu  Cu9       1.0  0.45456214141992773  0.9508973712912125  0.38828953423288953  1.0000
  Cu  Cu10      1.0  0.9338527951905962  0.3882032240734362  0.4373095338843954  1.0000
  Cu  Cu11      1.0  0.49623614799092763  0.5625406611328145  0.950870861420263  1.0000
  Cu  Cu12      1.0  0.5454398841341331  0.0491004467612939  0.6117114536346477  1.0000
  H   H1        1.0  0.14284104707773085  0.6013145112100774  0.8084923061445294  1.0000
  H   H2        1.0  0.3348460076321942  0.1918088473289075  0.7930788225439471  1.0000
  H   H3        1.0  0.5416466046278858  0.20697767978111162  0.39825487265925125  1.0000
  H   H4        1.0  0.857159016742088  0.3986858382652871  0.19150642596653003  1.0000
  H   H5        1.0  0.6651570322491556  0.8081953011794883  0.20692298383680463  1.0000
  H   H6        1.0  0.4583483337049545  0.7930188705404577  0.6017405992192338  1.0000
  H   H7        1.0  0.03835752836236143  0.5144548788479995  0.8853422450182934  1.0000
  H   H8        1.0  0.15347232619017603  0.11479003204987491  0.6292827539220908  1.0000
  H   H9        1.0  0.5237169694425817  0.37063002699513703  0.48484062683802165  1.0000
  H   H10       1.0  0.9616467095661323  0.4855473701524248  0.11465771608970246  1.0000
  H   H11       1.0  0.8465290056647776  0.8852128501688699  0.3707183261088077  1.0000
  H   H12       1.0  0.47628043356473904  0.6293671562769917  0.5151542665045525  1.0000
  H   H13       1.0  0.7308975434116648  0.46107663352759687  0.8141859192240943  1.0000
  H   H14       1.0  0.9168975966983768  0.18569192295507264  0.6470122291309152  1.0000
  H   H15       1.0  0.26990985864411243  0.35292375309846585  0.5384455219662527  1.0000
  H   H16       1.0  0.2691051154560642  0.5389224507541713  0.1858157020118584  1.0000
  H   H17       1.0  0.08310310465851244  0.8143096936040735  0.3529903798975623  1.0000
  H   H18       1.0  0.7300912798884271  0.6470765964372804  0.46155330312624443  1.0000
  H   H19       1.0  0.005478903264652463  0.8272399765225272  0.760130991123617  1.0000
  H   H20       1.0  0.24520535286711723  0.23996230398169874  0.06745862226362219  1.0000
  H   H21       1.0  0.17833085917891384  0.932740227722306  0.1725730037310314  1.0000
  H   H22       1.0  0.9945204039070817  0.1727610062919283  0.2398690458732133  1.0000
  H   H23       1.0  0.7547933202870425  0.7600374124610666  0.9325402407732922  1.0000
  H   H24       1.0  0.8216702821692295  0.06726012238311802  0.8274279837274676  1.0000
  H   H25       1.0  0.8046104583127518  0.9156870812538573  0.8205647520258667  1.0000
  H   H26       1.0  0.9837563782092219  0.17963835493790017  0.09544526040995291  1.0000
  H   H27       1.0  0.8887530788203934  0.9044060217987494  0.08413713511613005  1.0000
  H   H28       1.0  0.19538252250925586  0.0843120013451042  0.1794317076451506  1.0000
  H   H29       1.0  0.016239192733380106  0.8203594614705167  0.9045503042454612  1.0000
  H   H30       1.0  0.11124818656607974  0.09559242888074242  0.9158624546796759  1.0000
  H   H31       1.0  0.5443551447234045  0.7890376802379181  0.7706068508198385  1.0000
  H   H32       1.0  0.7736961272560451  0.2296685128751648  0.01875807857928892  1.0000
  H   H33       1.0  0.7553023542694037  0.9810469004472679  0.21085806559280235  1.0000
  H   H34       1.0  0.4556393515064841  0.21096013611011702  0.22938862085413803  1.0000
  H   H35       1.0  0.22630608387751758  0.7703318362937068  0.9812392177201374  1.0000
  H   H36       1.0  0.2446956848671888  0.018951549623814398  0.7891396234841892  1.0000
  H   H37       1.0  0.6537170498139205  0.49028906687679114  0.6285411583418536  1.0000
  H   H38       1.0  0.025296872458902425  0.37137166899928087  0.8618720040881911  1.0000
  H   H39       1.0  0.1640131774927981  0.13820086663206155  0.50955274791788  1.0000
  H   H40       1.0  0.3462796021765231  0.5097087508737915  0.3714593646184954  1.0000
  H   H41       1.0  0.9747035094255525  0.6286293138755569  0.1381281258900772  1.0000
  H   H42       1.0  0.8359851804123298  0.8617982169809154  0.49044687961782085  1.0000
  H   H43       1.0  0.5688516062346738  0.4529336466192009  0.6888600149308673  1.0000
  H   H44       1.0  0.8801755833388539  0.3110469782908822  0.7641504272272996  1.0000
  H   H45       1.0  0.1165901712704525  0.23588866569024702  0.5470106486817414  1.0000
  H   H46       1.0  0.43114846462415124  0.5470667042803613  0.31114412309519673  1.0000
  H   H47       1.0  0.11982694797104908  0.6889540047047263  0.23584988871384382  1.0000
  H   H48       1.0  0.8834080625963596  0.764112317348662  0.45299037651665947  1.0000
  H   H49       1.0  0.46236456973998247  0.6381157002600163  0.6690742817929447  1.0000
  H   H50       1.0  0.79326280828505  0.3309920241741651  0.9691889312524393  1.0000
  H   H51       1.0  0.8244834031470988  0.0309471574029843  0.3618542668312514  1.0000
  H   H52       1.0  0.5376363811013577  0.361882117732094  0.3309266130931547  1.0000
  H   H53       1.0  0.20673852356991063  0.6690108580445723  0.030812148778458864  1.0000
  H   H54       1.0  0.17551356127676615  0.9690512926077093  0.6381433292643024  1.0000
  H   H55       1.0  0.5894951626230879  0.5894732171852155  0.6148427756871584  1.0000
  H   H56       1.0  0.9746275714058826  0.38521903457632334  0.9747675274452378  1.0000
  H   H57       1.0  0.00018722145050990244  0.025368838716133303  0.4105561361805954  1.0000
  H   H58       1.0  0.41050300477523655  0.4105233343144405  0.3851567592761427  1.0000
  H   H59       1.0  0.02537634916187414  0.6147825811670486  0.02523157638705  1.0000
  H   H60       1.0  0.999809743677261  0.974629611436981  0.5894420005064589  1.0000
  H   H61       1.0  0.2543915568686971  0.3882755101131464  0.8171079343613741  1.0000
  H   H62       1.0  0.4373660833509235  0.18273832951869204  0.5711354347679247  1.0000
  H   H63       1.0  0.8652566071641986  0.42868221957701996  0.6112863122150571  1.0000
  H   H64       1.0  0.7456092664148174  0.6117242065928039  0.1828916552299091  1.0000
  H   H65       1.0  0.562634108026721  0.817260121242832  0.4288646026379439  1.0000
  H   H66       1.0  0.13474915039558508  0.5713187640269979  0.3887159044449007  1.0000
  H   H67       1.0  0.09885318085054712  0.3627327894123837  0.6625156447003917  1.0000
  H   H68       1.0  0.4366793805704036  0.33735023491586  0.7001553586956248  1.0000
  H   H69       1.0  0.7362523336865651  0.2997460102277216  0.6371297690672222  1.0000
  H   H70       1.0  0.9011519398760587  0.6372669272502666  0.33748323563364124  1.0000
  H   H71       1.0  0.5633240335376187  0.6626482157419814  0.2998438764715559  1.0000
  H   H72       1.0  0.2637466582361371  0.7002543397569383  0.3628710324284015  1.0000
  H   H73       1.0  0.26009977894185726  0.49421085962883643  0.6504809969601197  1.0000
  H   H74       1.0  0.6100409742686496  0.3494972051337156  0.843757141747801  1.0000
  H   H75       1.0  0.7670511456804194  0.15632508467736272  0.5059660378375455  1.0000
  H   H76       1.0  0.7399073706913841  0.5057907572926227  0.3495221699569839  1.0000
  H   H77       1.0  0.3899647804755234  0.6505037779006245  0.15624291254614778  1.0000
  H   H78       1.0  0.23294430333556454  0.8436746315842497  0.4940325462550632  1.0000
  H   H79       1.0  0.5990710604698395  0.6099878669002551  0.8480664798273241  1.0000
  H   H80       1.0  0.7512067773326265  0.15194188145998314  0.7620745951250285  1.0000
  H   H81       1.0  0.9896339270777971  0.23800086956332936  0.38995339359374276  1.0000
  H   H82       1.0  0.40093330783208364  0.39001248395599936  0.15193694894148996  1.0000
  H   H83       1.0  0.24879575538508197  0.8480591018204678  0.23792680199911595  1.0000
  H   H84       1.0  0.010363038049973844  0.7619975805897854  0.6100447430933116  1.0000
  H   H85       1.0  0.4776972390520415  0.6533869072770317  0.8049364463737305  1.0000
  H   H86       1.0  0.6728749747798589  0.1950758237983905  0.848588718933911  1.0000
  H   H87       1.0  0.8247727687671969  0.1514993753360372  0.3465137725730472  1.0000
  H   H88       1.0  0.5223066878508292  0.3466147097481099  0.19506752278206116  1.0000
  H   H89       1.0  0.32712939141035974  0.8049245266306146  0.15141308806040146  1.0000
  H   H90       1.0  0.17522268165659238  0.8485003412104178  0.6534858927025554  1.0000
  C   C1        1.0  0.028713734872013855  0.5686690750328938  0.7992009613220574  1.0000
  C   C2        1.0  0.2299526633429139  0.20100773076720196  0.7696750287420713  1.0000
  C   C3        1.0  0.4601914069664091  0.23033759601201353  0.43092676405818514  1.0000
  C   C4        1.0  0.9712884790771524  0.43133127470566296  0.2007984973433708  1.0000
  C   C5        1.0  0.7700494237523261  0.7989945178276161  0.23032366522004832  1.0000
  C   C6        1.0  0.539804607486957  0.7696589546547798  0.5690698819847455  1.0000
  C   C7        1.0  0.9737691144962782  0.5245235154073596  0.8381198464812697  1.0000
  C   C8        1.0  0.13608360567464933  0.16201205677032246  0.6865745264390029  1.0000
  C   C9        1.0  0.449202940877946  0.31336630125181847  0.4748897327041704  1.0000
  C   C10       1.0  0.026236006934233683  0.47547620139771146  0.16187957444426365  1.0000
  C   C11       1.0  0.863919558245023  0.8379901923121338  0.31342588227906276  1.0000
  C   C12       1.0  0.5507969303233581  0.6866315156829756  0.5251072850599882  1.0000
  C   C13       1.0  0.8197493407081354  0.49629721279541883  0.802707326237865  1.0000
  C   C14       1.0  0.01732203167452442  0.19728505168272656  0.6937341700929167  1.0000
  C   C15       1.0  0.32355228776512485  0.30621517314168045  0.5032392529050753  1.0000
  C   C16       1.0  0.18025180134391422  0.5037031374524333  0.19729420181213445  1.0000
  C   C17       1.0  0.9826803748931566  0.802717830596393  0.30626700291941933  1.0000
  C   C18       1.0  0.6764454326029323  0.6937826433875074  0.49675649771320707  1.0000
  C   C19       1.0  0.8886484783822514  0.8034278988946683  0.7548837853713409  1.0000
  C   C20       1.0  0.13368828567695354  0.2452672594882586  0.04887353246773781  1.0000
  C   C21       1.0  0.08533951062943868  0.9512712847050154  0.19641976754182627  1.0000
  C   C22       1.0  0.11134513786512204  0.19657245036081153  0.2451149294426003  1.0000
  C   C23       1.0  0.8663111469409018  0.7547318241851005  0.9511261880494005  1.0000
  C   C24       1.0  0.9146588479795953  0.0487277990503756  0.803580400585382  1.0000
  C   C25       1.0  0.7863052033793283  0.8477911407757548  0.7866648103321126  1.0000
  C   C26       1.0  0.9995149504659153  0.21356364096002523  0.06148742224408471  1.0000
  C   C27       1.0  0.9385052935902467  0.9385175314654504  0.15204868322545909  1.0000
  C   C28       1.0  0.21368948617296726  0.1522092082552717  0.21333291628025822  1.0000
  C   C29       1.0  0.00048157396669531067  0.7864360755043905  0.938511795421455  1.0000
  C   C30       1.0  0.06149413902760872  0.06148155220790841  0.8479510372916863  1.0000
  C   C31       1.0  0.654958975065931  0.7856703963069479  0.7628550941247596  1.0000
  C   C32       1.0  0.8920656425975154  0.23740787549662912  0.023174342486477442  1.0000
  C   C33       1.0  0.8693263173293105  0.9767540144130109  0.214210591292833  1.0000
  C   C34       1.0  0.34503583993248566  0.2143280535829817  0.23714231600791894  1.0000
  C   C35       1.0  0.1079354945272258  0.7625924737542819  0.9768234014230188  1.0000
  C   C36       1.0  0.13067159776895917  0.0232463350840035  0.7857884954468517  1.0000
  C   C37       1.0  0.6419742030943001  0.5080065617028354  0.6920578396239706  1.0000
  C   C38       1.0  0.9500614316616662  0.3078706656065222  0.8160716202568707  1.0000
  C   C39       1.0  0.1344933814627964  0.18397844010492997  0.49186704175028234  1.0000
  C   C40       1.0  0.3580241576264386  0.4919925224798122  0.307943950277739  1.0000
  C   C41       1.0  0.04993970827867866  0.6921296842140663  0.18392828601862735  1.0000
  C   C42       1.0  0.8655045343393726  0.8160219095345056  0.5081325855809027  1.0000
  C   C43       1.0  0.5722337111816246  0.6257700292493809  0.6772687322097255  1.0000
  C   C44       1.0  0.8949991095753661  0.322814563172642  0.9486995412534753  1.0000
  C   C45       1.0  0.9467106865470145  0.051421308968599505  0.3741781339524124  1.0000
  C   C46       1.0  0.42776389007541843  0.37422968770268034  0.3227322002117532  1.0000
  C   C47       1.0  0.10500190562275691  0.6771876859314644  0.05130122209321538  1.0000
  C   C48       1.0  0.053287547319790705  0.9485796740703097  0.6258228912459813  1.0000
  C   C49       1.0  0.27635929661163067  0.4248035056250076  0.7861389503023021  1.0000
  C   C50       1.0  0.4903229382197977  0.21371512600114076  0.6386597807737644  1.0000
  C   C51       1.0  0.8510929659884567  0.3612206393301136  0.574868354677804  1.0000
  C   C52       1.0  0.7236404519591563  0.5751962110205684  0.21386054630754378  1.0000
  C   C53       1.0  0.509680477999922  0.7862833250839573  0.36134107616791783  1.0000
  C   C54       1.0  0.1489092507763133  0.6387797109781205  0.4251332663536261  1.0000
  C   C55       1.0  0.20013387850548991  0.41178678350939196  0.7071939043306089  1.0000
  C   C56       1.0  0.4932176869260091  0.29268671584993206  0.7045676169066227  1.0000
  C   C57       1.0  0.7884933534528075  0.29536445922325794  0.5880759382111194  1.0000
  C   C58       1.0  0.7998686535083125  0.588214199628631  0.2928069522020352  1.0000
  C   C59       1.0  0.5067829451467887  0.7073104686002907  0.2954313395207606  1.0000
  C   C60       1.0  0.21150563846988762  0.7046358907614023  0.41192486328450434  1.0000
  C   C61       1.0  0.2782197034396035  0.4778641206646271  0.700116426496571  1.0000
  C   C62       1.0  0.5784500794791256  0.2998315913104507  0.7777648143812285  1.0000
  C   C63       1.0  0.8011363912233662  0.22227035928179362  0.522196052120087  1.0000
  C   C64       1.0  0.7217863707770109  0.522137496054029  0.2998861068475947  1.0000
  C   C65       1.0  0.42155289393373624  0.7001681256586922  0.22223550176443047  1.0000
  C   C66       1.0  0.1988615259866082  0.7777299906424846  0.47780465639409914  1.0000
  C   C67       1.0  0.518166354435394  0.5973677705564668  0.7902874126138073  1.0000
  C   C68       1.0  0.7280687629324663  0.20970790469821315  0.8072201811661798  1.0000
  C   C69       1.0  0.9213056620422369  0.1928599393404937  0.4025562535821122  1.0000
  C   C70       1.0  0.48183940453218826  0.40263321333239344  0.20971588522915147  1.0000
  C   C71       1.0  0.2719330117293453  0.7902937116364797  0.19278143966074165  1.0000
  C   C72       1.0  0.0786922551677378  0.8071404105837842  0.5974444549320808  1.0000
  I   I1        1.0  0.2164921394755197  0.7048821299541288  0.7212825750495142  1.0000
  I   I2        1.0  0.4953585727523092  0.27894214156768976  0.9838370525325715  1.0000
  I   I3        1.0  0.5119392030987484  0.0161475851083779  0.2950465078249991  1.0000
  I   I4        1.0  0.7835065308630362  0.29511758591895904  0.2787141256213985  1.0000
  I   I5        1.0  0.504641810539951  0.7210588415919902  0.016164158628704715  1.0000
  I   I6        1.0  0.4880616187769607  0.9838521313127374  0.7049520005832903  1.0000
  I   I7        1.0  0.20934040210810423  0.4861671601649604  0.4914523961676879  1.0000
  I   I8        1.0  0.7178599126219893  0.5085952381907716  0.9947276479796727  1.0000
  I   I9        1.0  0.7231650938243277  0.0052932998132107  0.5138459126492947  1.0000
  I   I10       1.0  0.7906575122862664  0.5138331891896402  0.5085461499804965  1.0000
  I   I11       1.0  0.28213547133331235  0.49140004681643046  0.005270527060837202  1.0000
  I   I12       1.0  0.2768343373857224  0.994705783575306  0.48615272668484993  1.0000
  N   N1        1.0  0.9162886076675747  0.5675071240969275  0.7429855418527538  1.0000
  N   N2        1.0  0.17358854458123574  0.257128133379247  0.8247243514802491  1.0000
  N   N3        1.0  0.3491610736282595  0.1753336122886395  0.43227740328601527  1.0000
  N   N4        1.0  0.08371189966300821  0.43249195963681336  0.2570142716458221  1.0000
  N   N5        1.0  0.826412154663956  0.7428734827526428  0.17527663577372726  1.0000
  N   N6        1.0  0.650836207452443  0.824665470836692  0.5677205094937534  1.0000
  N   N7        1.0  0.7889652707008566  0.5229073502970891  0.7459564535508107  1.0000
  N   N8        1.0  0.04319605662220037  0.2540208303196111  0.7771114607673085  1.0000
  N   N9        1.0  0.26642623170117474  0.2229140922467465  0.47685395935437924  1.0000
  N   N10       1.0  0.21103492067678795  0.4770911004644348  0.2540435838550579  1.0000
  N   N11       1.0  0.95680559259349  0.7459826851561859  0.22289047653930547  1.0000
  N   N12       1.0  0.7335727595176212  0.7770862575954923  0.5231463015497441  1.0000
  N   N13       1.0  0.8248564455862707  0.7192669730544168  0.7141541403442558  1.0000
  N   N14       1.0  0.11070853924324811  0.2859797949027437  0.005415910955655088  1.0000
  N   N15       1.0  0.10579865405213718  0.9947655744443795  0.2806236042892325  1.0000
  N   N16       1.0  0.17514317824229414  0.28073464287466987  0.2858462133367894  1.0000
  N   N17       1.0  0.8892918426412068  0.7140211879720938  0.9945842190226131  1.0000
  N   N18       1.0  0.8942006538234893  0.005235408512490402  0.7193769732991058  1.0000
  N   N19       1.0  0.6819933657623239  0.7095405150423205  0.7198874080244977  1.0000
  N   N20       1.0  0.9621396378977425  0.28032414285020485  0.9899866603034936  1.0000
  N   N21       1.0  0.9725923149193039  0.0100917021924829  0.29036838149879424  1.0000
  N   N22       1.0  0.318004231975209  0.29045920119764906  0.2801108214394787  1.0000
  N   N23       1.0  0.03785966857008567  0.7196768398218296  0.010012836101836281  1.0000
  N   N24       1.0  0.027405601586771477  0.9899086475893741  0.7096317864238985  1.0000
  N   N25       1.0  0.39429762813787766  0.4943937585558659  0.82555485909068  1.0000
  N   N26       1.0  0.5688151241345523  0.17433916479220815  0.6688856095967068  1.0000
  N   N27       1.0  0.899704352664969  0.3310563439798672  0.5053535330647919  1.0000
  N   N28       1.0  0.6057038312749086  0.5056072249490385  0.1744475262350349  1.0000
  N   N29       1.0  0.4311847505862546  0.8256586528546849  0.3311141111249539  1.0000
  N   N30       1.0  0.10029710534001172  0.6689446392401949  0.4946477710779149  1.0000
  N   N31       1.0  0.39397709490236127  0.5258483046092695  0.7717775663067387  1.0000
  N   N32       1.0  0.6224201150987341  0.228172063221173  0.7541321435196053  1.0000
  N   N33       1.0  0.8686565743508793  0.24589630822697472  0.4741195565987936  1.0000
  N   N34       1.0  0.6060260732407131  0.474153945327707  0.2282260859603227  1.0000
  N   N35       1.0  0.37758039293574813  0.771827020654989  0.2458682105704781  1.0000
  N   N36       1.0  0.13134134215518867  0.7541040415548823  0.5258806113238919  1.0000
  N   N37       1.0  0.5792661090912079  0.577918817123191  0.7199542779927698  1.0000
  N   N38       1.0  0.8594755189871466  0.2800106165765329  0.8581240815656912  1.0000
  N   N39       1.0  0.0017575940076568158  0.14196100659811614  0.42197081895499616  1.0000
  N   N40       1.0  0.42073964987637424  0.42208216676566934  0.28004901985018893  1.0000
  N   N41       1.0  0.140525054811917  0.7199928986964608  0.14187722216798448  1.0000
  N   N42       1.0  0.9982424712199675  0.8580393431620835  0.5780289943390642  1.0000
