data_image0
_chemical_formula_structural       Cd2H26C40N6O14
_chemical_formula_sum              "Cd2 H26 C40 N6 O14"
_cell_length_a       7.288268425394814
_cell_length_b       10.435506901798535
_cell_length_c       12.215153128776489
_cell_angle_alpha    85.16992531088381
_cell_angle_beta     80.19238453555248
_cell_angle_gamma    81.52987282695659

_space_group_name_H-M_alt    "P 1"
_space_group_IT_number       1

loop_
  _space_group_symop_operation_xyz
  'x, y, z'

loop_
  _atom_site_type_symbol
  _atom_site_label
  _atom_site_symmetry_multiplicity
  _atom_site_fract_x
  _atom_site_fract_y
  _atom_site_fract_z
  _atom_site_occupancy
  Cd  Cd1       1.0  0.7004870996022419  0.16048877603584802  0.12009733966164046  1.0000
  Cd  Cd2       1.0  0.29951116822009277  0.8395108048582572  0.8799018558182893  1.0000
  H   H1        1.0  0.4402395477549065  0.7156923877990096  0.2803801342752834  1.0000
  H   H2        1.0  0.5597614899334146  0.28430719888456946  0.7196220579448109  1.0000
  H   H3        1.0  0.8518690506837959  0.8805445819500689  0.3646943642074304  1.0000
  H   H4        1.0  0.14813023826901173  0.1194569361008462  0.6353037676157098  1.0000
  H   H5        1.0  0.49154572436307126  0.8782045870898118  0.4555523860609866  1.0000
  H   H6        1.0  0.5084546911956239  0.12179110726214765  0.5444460619156999  1.0000
  H   H7        1.0  0.5984052734182582  0.801522145261032  0.09571871439990073  1.0000
  H   H8        1.0  0.40159279099272277  0.19847841554411622  0.904283703910913  1.0000
  H   H9        1.0  0.2841033103885095  0.7211838594133511  0.5568986427603022  1.0000
  H   H10       1.0  0.7158953368800454  0.2788137779241283  0.44309983922335033  1.0000
  H   H11       1.0  0.4601413667787996  0.30043251223580825  0.3389844248776086  1.0000
  H   H12       1.0  0.5398598664990217  0.6995660991840043  0.6610161822731797  1.0000
  H   H13       1.0  0.9555983387390725  0.6026073894408769  0.7741194996628522  1.0000
  H   H14       1.0  0.04440213955723488  0.3973951067685421  0.22588171559969078  1.0000
  H   H15       1.0  0.05582952959025529  0.3707455980099681  0.7254909635075959  1.0000
  H   H16       1.0  0.944169747629772  0.6292559270118547  0.27450962495790066  1.0000
  H   H17       1.0  0.7850496761534769  0.7578400435595685  0.9098924895300015  1.0000
  H   H18       1.0  0.21494978101235057  0.24216051549304052  0.0901097893893237  1.0000
  H   H19       1.0  0.35654494599234704  0.5224827101462353  0.4075894580130423  1.0000
  H   H20       1.0  0.6434576761293941  0.4775159018446757  0.5924118286270499  1.0000
  H   H21       1.0  0.9538406732791244  0.19286811667016224  0.8625898327625234  1.0000
  H   H22       1.0  0.04616139336152968  0.8071334025229504  0.1374096580392106  1.0000
  H   H23       1.0  0.8723496633477412  0.0024683342935531995  0.9343901963190572  1.0000
  H   H24       1.0  0.12765120221664011  0.9975322137119707  0.06560866768564465  1.0000
  H   H25       1.0  0.6639916056149675  0.0012093343671110996  0.9243101850320767  1.0000
  H   H26       1.0  0.33600823881893394  0.9987892764816029  0.07568974262940734  1.0000
  C   C1        1.0  0.48354164528952026  0.6169137845234759  0.2543482465680853  1.0000
  C   C2        1.0  0.5164593963097274  0.383085799836465  0.7456531267712307  1.0000
  C   C3        1.0  0.751416985897798  0.4419027970694033  0.008240566429890385  1.0000
  C   C4        1.0  0.2485824830008099  0.5580977550122912  0.9917592558470784  1.0000
  C   C5        1.0  0.2916363172636025  0.9638302618402151  0.3497258984525543  1.0000
  C   C6        1.0  0.7083633433135788  0.0361693173013578  0.6502731576358869  1.0000
  C   C7        1.0  0.641277518605193  0.46678677090836374  0.11635457450344687  1.0000
  C   C8        1.0  0.35872195029341464  0.5332137811733376  0.8836452477735219  1.0000
  C   C9        1.0  0.06216013011590594  0.7889592309021796  0.4618796390983135  1.0000
  C   C10       1.0  0.9378411148946951  0.21103937354672553  0.5381185114101115  1.0000
  C   C11       1.0  0.4323860427979227  0.043148430733396005  0.2821291774889118  1.0000
  C   C12       1.0  0.5676151943908252  0.9568501783627785  0.717870610781091  1.0000
  C   C13       1.0  0.9933570901967812  0.8788620886462797  0.38272052857449507  1.0000
  C   C14       1.0  0.006643783189453188  0.12113845471196782  0.6172766976686361  1.0000
  C   C15       1.0  0.35264333091256367  0.8770302388374416  0.4345001889338391  1.0000
  C   C16       1.0  0.6473582857224045  0.12296642670211363  0.5654988858398865  1.0000
  C   C17       1.0  0.5867940914078105  0.5972031313209598  0.14698840255240234  1.0000
  C   C18       1.0  0.41320536966894383  0.4027974254080107  0.8530130574861373  1.0000
  C   C19       1.0  0.10759036505785957  0.9678269355650003  0.3267586219194314  1.0000
  C   C20       1.0  0.892409291608395  0.03217264590020361  0.6732412530497952  1.0000
  C   C21       1.0  0.019046376979247295  0.07055100966121591  0.25026186617746754  1.0000
  C   C22       1.0  0.9809541052279868  0.9294514842245651  0.7497385302042828  1.0000
  C   C23       1.0  0.6391143118603112  0.702130934600149  0.07044771139677407  1.0000
  C   C24       1.0  0.3608853369840901  0.2978686515123314  0.9295538013340234  1.0000
  C   C25       1.0  0.23886779056976337  0.7888318929641046  0.49109638393272786  1.0000
  C   C26       1.0  0.7611304772525713  0.21116768793000065  0.5089028115472018  1.0000
  C   C27       1.0  0.4953544653157352  0.38622628254772456  0.2870617383210998  1.0000
  C   C28       1.0  0.504646584105366  0.61377329716494  0.7129379972566381  1.0000
  C   C29       1.0  0.9138329651138761  0.5220328127868754  0.831113072278235  1.0000
  C   C30       1.0  0.08616631601707779  0.4779687099113161  0.16888669730647615  1.0000
  C   C31       1.0  0.968622744038953  0.3944041211640652  0.8047507398621291  1.0000
  C   C32       1.0  0.03137653709200794  0.6055974015341266  0.19524902972258215  1.0000
  C   C33       1.0  0.7428630640472562  0.6786848458866149  0.9682481679392723  1.0000
  C   C34       1.0  0.2571350003637249  0.3213157149185335  0.03175425037154158  1.0000
  C   C35       1.0  0.4381838288307947  0.5115715873974125  0.3247353385318447  1.0000
  C   C36       1.0  0.5618174044470265  0.4884270240223998  0.6752652686189433  1.0000
  C   C37       1.0  0.8021369884024239  0.5487760691605318  0.9351404572992832  1.0000
  C   C38       1.0  0.19786248049618388  0.45122448292116973  0.0648593649776927  1.0000
  C   C39       1.0  0.9113548805407704  0.29439114646287123  0.881573184560416  1.0000
  C   C40       1.0  0.08864579334503724  0.7056103744827811  0.11842644563281367  1.0000
  N   N1        1.0  0.5943115634302601  0.3649667472347389  0.1865057617115012  1.0000
  N   N2        1.0  0.40568809323599436  0.6350328342304722  0.8134941132577251  1.0000
  N   N3        1.0  0.8059898373083099  0.3173297733910091  0.980260995906022  1.0000
  N   N4        1.0  0.19400963550122435  0.682670776367054  0.019738007490161587  1.0000
  N   N5        1.0  0.9462205345836735  0.6902045135301267  0.5143112628002982  1.0000
  N   N6        1.0  0.05377773323866108  0.3097950673639788  0.48568793267963156  1.0000
  O   O1        1.0  0.43359827707821813  0.057307341976709815  0.17567026623707693  1.0000
  O   O2        1.0  0.5663999868331899  0.9426922412410335  0.8243297481236311  1.0000
  O   O3        1.0  0.9416718154582142  0.025842414020331706  0.1752196281267544  1.0000
  O   O4        1.0  0.058330063414793173  0.9741600757892714  0.8247798099827292  1.0000
  O   O5        1.0  0.7450108050272419  0.014167769724409102  0.9793200278725391  1.0000
  O   O6        1.0  0.2549888555499392  0.9858318094171568  0.020679028215902  1.0000
  O   O7        1.0  0.5485208463892663  0.0864718586676929  0.32911834136856294  1.0000
  O   O8        1.0  0.451479185812282  0.9135257815645234  0.6708816389851789  1.0000
  O   O9        1.0  0.7822054923522404  0.6999838802749354  0.4947967265183235  1.0000
  O   O10       1.0  0.21779416822494113  0.3000156988666305  0.5052023295701175  1.0000
  O   O11       1.0  0.01854818134075489  0.6005825714503247  0.5729035262701173  1.0000
  O   O12       1.0  0.9814453253594663  0.3994199381690537  0.42710002371141786  1.0000
  O   O13       1.0  0.01740769062720909  0.18693944354604508  0.265470423108951  1.0000
  O   O14       1.0  0.982592975436745  0.8130620820468838  0.7345308448458423  1.0000
