data_image0
_chemical_formula_structural       Ni2H26C36N6O14
_chemical_formula_sum              "Ni2 H26 C36 N6 O14"
_cell_length_a       8.333047358297675
_cell_length_b       10.232613154812006
_cell_length_c       11.743313490191898
_cell_angle_alpha    73.49455673789762
_cell_angle_beta     69.84169590375927
_cell_angle_gamma    66.18951882357426

_space_group_name_H-M_alt    "P 1"
_space_group_IT_number       1

loop_
  _space_group_symop_operation_xyz
  'x, y, z'

loop_
  _atom_site_type_symbol
  _atom_site_label
  _atom_site_symmetry_multiplicity
  _atom_site_fract_x
  _atom_site_fract_y
  _atom_site_fract_z
  _atom_site_occupancy
  Ni  Ni1       1.0  0.011304237031602295  0.016359015665003102  0.794379819051571  1.0000
  Ni  Ni2       1.0  0.98876235627872  0.9836463219059083  0.20565000829797941  1.0000
  H   H1        1.0  0.8174207700457289  0.9810467209411514  0.014917551302858179  1.0000
  H   H2        1.0  0.18373881238045442  0.018449737830742694  0.9850724175849667  1.0000
  H   H3        1.0  0.8553980132032705  0.12694863927572436  0.9810065092054716  1.0000
  H   H4        1.0  0.14601552939100781  0.8727055864882586  0.01844715254208752  1.0000
  H   H5        1.0  0.08255053474555032  0.523657585831181  0.7591506345148816  1.0000
  H   H6        1.0  0.9176202866921914  0.47641107530328947  0.240872875270135  1.0000
  H   H7        1.0  0.2633062693542315  0.5865388845722493  0.03629300175219902  1.0000
  H   H8        1.0  0.7368884575945103  0.4140360587718277  0.9634760079454028  1.0000
  H   H9        1.0  0.35726760408980607  0.15561296403396335  0.992845178683773  1.0000
  H   H10       1.0  0.6434871591353261  0.8447776399790924  0.007171108956427473  1.0000
  H   H11       1.0  0.37701472362977756  0.796113788826247  0.7136367770642454  1.0000
  H   H12       1.0  0.6234314892483965  0.20420084405913744  0.2859834093097363  1.0000
  H   H13       1.0  0.49286350755187414  0.9124547796969653  0.31801560358398023  1.0000
  H   H14       1.0  0.5049479312878803  0.08687307472531099  0.6815656826945686  1.0000
  H   H15       1.0  0.6709382998690927  0.2742614890357301  0.8337895298501227  1.0000
  H   H16       1.0  0.33109964955693993  0.7271649298593912  0.16682460436800287  1.0000
  H   H17       1.0  0.1985438892959905  0.11785149236037278  0.3443098171997505  1.0000
  H   H18       1.0  0.7993300654849875  0.8815313207865786  0.655869540828711  1.0000
  H   H19       1.0  0.5860065900763871  0.7497352746086605  0.5051719897732384  1.0000
  H   H20       1.0  0.4133074103611991  0.2503392173924438  0.49418245183836274  1.0000
  H   H21       1.0  0.6775585326896947  0.505737241288898  0.4620705668576834  1.0000
  H   H22       1.0  0.32137448249218187  0.4935592961531795  0.5383753171020944  1.0000
  H   H23       1.0  0.9594745229743183  0.30177381556946864  0.3890668943899557  1.0000
  H   H24       1.0  0.03818551018688506  0.6966601001442143  0.611195059474703  1.0000
  H   H25       1.0  0.5262033719764858  0.4877945001521979  0.6910679596814335  1.0000
  H   H26       1.0  0.47518931717950624  0.5132974666408926  0.30957976717571983  1.0000
  C   C1        1.0  0.16447768602377277  0.5746973447473636  0.8916929325664216  1.0000
  C   C2        1.0  0.8358158890108671  0.4255544296523509  0.10812516960093897  1.0000
  C   C3        1.0  0.15190248483343552  0.4801172573420231  0.8320541061073002  1.0000
  C   C4        1.0  0.8482683390534478  0.5200054595995169  0.16797811770957347  1.0000
  C   C5        1.0  0.19577600832707287  0.23728623405067137  0.7976345152356857  1.0000
  C   C6        1.0  0.8048977691447521  0.7627058222867332  0.20250591322810862  1.0000
  C   C7        1.0  0.9665191727296188  0.18715173543646557  0.5722107909763212  1.0000
  C   C8        1.0  0.03269919702461275  0.8123908897343098  0.42806540408862076  1.0000
  C   C9        1.0  0.2216919250436504  0.3298094233414588  0.8654263159895309  1.0000
  C   C10       1.0  0.7787368795893246  0.6703588547075937  0.13467402024785716  1.0000
  C   C11       1.0  0.2519141854358937  0.5173862815131327  0.9863875513635566  1.0000
  C   C12       1.0  0.7485401449916369  0.4831122284722297  0.01333789362269752  1.0000
  C   C13       1.0  0.30586558298170274  0.2718470165271468  0.9612956653781669  1.0000
  C   C14       1.0  0.6948075034555076  0.72852423357061  0.038686822513191894  1.0000
  C   C15       1.0  0.3196421864850907  0.3670032125104896  0.01944746847744477  1.0000
  C   C16       1.0  0.6809700480504334  0.6335605022759907  0.980387510838263  1.0000
  C   C17       1.0  0.13434394569072342  0.06665088676378872  0.5424112746791894  1.0000
  C   C18       1.0  0.864668056297106  0.9328354300808  0.4576451980651584  1.0000
  C   C19       1.0  0.34094937893036825  0.863066348633474  0.6299087749547639  1.0000
  C   C20       1.0  0.6588785127581646  0.13684540408114287  0.3697649614038312  1.0000
  C   C21       1.0  0.40488943560809804  0.9288544103310838  0.4095917218537581  1.0000
  C   C22       1.0  0.593417518767467  0.07056169739237819  0.5900919717151893  1.0000
  C   C23       1.0  0.7308959960518068  0.2864386877716498  0.7349376746123825  1.0000
  C   C24       1.0  0.27016182267165334  0.7143507104532957  0.26563679585335365  1.0000
  C   C25       1.0  0.24211241820741244  0.04503440806257689  0.4240448545695445  1.0000
  C   C26       1.0  0.7561980275008654  0.9542769973939115  0.5759298721679187  1.0000
  C   C27       1.0  0.45595372093551145  0.8378301410773118  0.5139513878008871  1.0000
  C   C28       1.0  0.5430985046444406  0.1618813298408384  0.4855732438596691  1.0000
  C   C29       1.0  0.7333589424817435  0.4130263246075783  0.5279117200641608  1.0000
  C   C30       1.0  0.2659181846257114  0.5865583016417518  0.472559261921326  1.0000
  C   C31       1.0  0.8924563862942136  0.301834616627282  0.48673714444082355  1.0000
  C   C32       1.0  0.10610786812438282  0.697270759985969  0.513560270746453  1.0000
  C   C33       1.0  0.6506494391054574  0.40408216851913187  0.6539199604325178  1.0000
  C   C34       1.0  0.34993886476586056  0.5964580457247594  0.34668154037129284  1.0000
  C   C35       1.0  0.07473983237363059  0.733609063748915  0.851787560437707  1.0000
  C   C36       1.0  0.9253239223866531  0.26654261206392243  0.14783747311174272  1.0000
  N   N1        1.0  0.18177018451460478  0.9737502908792662  0.6439011289922336  1.0000
  N   N2        1.0  0.8179216996903166  0.026071460883585498  0.3560590515132063  1.0000
  N   N3        1.0  0.8866628445901842  0.18065424120256776  0.6955740666201751  1.0000
  N   N4        1.0  0.11362968157111922  0.8195520544548102  0.3048800879036052  1.0000
  N   N5        1.0  0.3998750163183546  0.3050845220191859  0.12430507118996564  1.0000
  N   N6        1.0  0.6006593322884725  0.6954986734555249  0.8756693379036024  1.0000
  O   O1        1.0  0.18585560290177486  0.11266848612417846  0.8573363976330983  1.0000
  O   O2        1.0  0.8152572384100624  0.8872289220992259  0.14271580400368578  1.0000
  O   O3        1.0  0.18368012681636275  0.28891600199402473  0.6895830192113979  1.0000
  O   O4        1.0  0.8168538360890099  0.7109010882983569  0.31055699977464724  1.0000
  O   O5        1.0  0.4021904371260875  0.39042880145372993  0.18085011304549434  1.0000
  O   O6        1.0  0.5987393138641081  0.6098752164977768  0.8192083006950174  1.0000
  O   O7        1.0  0.4601748845701223  0.17143872773249308  0.15213229075543222  1.0000
  O   O8        1.0  0.5399557706284528  0.8291490812929253  0.8478682129956925  1.0000
  O   O9        1.0  0.8259255390754136  0.06684800386283027  0.9436283179490349  1.0000
  O   O10       1.0  0.1750541332650928  0.9326569729559038  0.05624257061730023  1.0000
  O   O11       1.0  0.9659565398399795  0.7719025014694267  0.7878470912612486  1.0000
  O   O12       1.0  0.03419568556312671  0.22789913174185022  0.21180841575982615  1.0000
  O   O13       1.0  0.11904459184861349  0.8250441317051764  0.8830112267291313  1.0000
  O   O14       1.0  0.8807740800853382  0.17538837967921236  0.11644973119748418  1.0000
