data_image0
_chemical_formula_structural       Gd4Ag4H24C48N16O32
_chemical_formula_sum              "Gd4 Ag4 H24 C48 N16 O32"
_cell_length_a       8.05911474412388
_cell_length_b       10.080822447268577
_cell_length_c       18.504118686005622
_cell_angle_alpha    90.00004046370701
_cell_angle_beta     89.99991650311054
_cell_angle_gamma    95.66259356827372

_space_group_name_H-M_alt    "P 1"
_space_group_IT_number       1

loop_
  _space_group_symop_operation_xyz
  'x, y, z'

loop_
  _atom_site_type_symbol
  _atom_site_label
  _atom_site_symmetry_multiplicity
  _atom_site_fract_x
  _atom_site_fract_y
  _atom_site_fract_z
  _atom_site_occupancy
  Gd  Gd1       1.0  0.25866547914159804  0.14375536730995725  0.10582449339211308  1.0000
  Gd  Gd2       1.0  0.24133332903868876  0.8562434656485534  0.6058241306499497  1.0000
  Gd  Gd3       1.0  0.741335669935637  0.8562447236286347  0.8941765317306646  1.0000
  Gd  Gd4       1.0  0.7586650970108834  0.14375462741395492  0.3941763540530871  1.0000
  Ag  Ag1       1.0  0.6060489330186202  0.6512242041767352  0.0740645238175617  1.0000
  Ag  Ag2       1.0  0.8939514981655277  0.3487738126273001  0.5740644096108767  1.0000
  Ag  Ag3       1.0  0.39395209563449635  0.34877488991595845  0.9259343396241558  1.0000
  Ag  Ag4       1.0  0.10604941006086932  0.6512242846203338  0.4259339134104677  1.0000
  H   H1        1.0  0.6163376265058743  0.3518205052351818  0.08257500083335859  1.0000
  H   H2        1.0  0.8836614158915096  0.6481765215458638  0.5825760888701054  1.0000
  H   H3        1.0  0.38366352257396125  0.6481795857025573  0.9174244030287397  1.0000
  H   H4        1.0  0.11633849209905378  0.35182356729959713  0.41742493625307014  1.0000
  H   H5        1.0  0.8156082467814796  0.1745640108233815  0.0920128021887834  1.0000
  H   H6        1.0  0.6843897651437698  0.8254350174392188  0.5920130043244781  1.0000
  H   H7        1.0  0.18439166121167722  0.8254360780212341  0.9079866016737127  1.0000
  H   H8        1.0  0.31560890176098155  0.17456506931283403  0.4079874803788641  1.0000
  H   H9        1.0  0.018355938300025812  0.6451491791308471  0.0841370620164952  1.0000
  H   H10       1.0  0.4816428189474279  0.3548486342662614  0.5841363538557971  1.0000
  H   H11       1.0  0.981645331207403  0.3548519086516677  0.9158623418457595  1.0000
  H   H12       1.0  0.5183568481914236  0.6451494608885329  0.4158625095861622  1.0000
  H   H13       1.0  0.8032962284797305  0.7947096385736432  0.3504467408492573  1.0000
  H   H14       1.0  0.6967036783633771  0.20529165825990256  0.8504450759989337  1.0000
  H   H15       1.0  0.1967049206009719  0.20529045236381901  0.6495521225926169  1.0000
  H   H16       1.0  0.303294988543108  0.7947084284915888  0.14955432786395306  1.0000
  H   H17       1.0  0.7656206755779851  0.638915797719335  0.24314682754104666  1.0000
  H   H18       1.0  0.7343805753225467  0.36108339512701093  0.7431457388700123  1.0000
  H   H19       1.0  0.23437935284363215  0.3610852879697647  0.7568520359013746  1.0000
  H   H20       1.0  0.26561548898386184  0.6389156905931658  0.25685312457328985  1.0000
  H   H21       1.0  0.6192121457794002  0.9491097322632531  0.11826987039430747  1.0000
  H   H22       1.0  0.880789625698952  0.05089032662563402  0.6182685694667214  1.0000
  H   H23       1.0  0.38078415938045396  0.05089134714703652  0.8817300738897558  1.0000
  H   H24       1.0  0.1192142464068198  0.9491117621887569  0.381732455655566  1.0000
  C   C1        1.0  0.7504913483578404  0.37736245560500953  0.0850338750287989  1.0000
  C   C2        1.0  0.7495065655029619  0.6226355685026947  0.5850339578902746  1.0000
  C   C3        1.0  0.24950968029441603  0.6226366384879611  0.91496552883315  1.0000
  C   C4        1.0  0.25049198097506314  0.3773635214043054  0.414965986392687  1.0000
  C   C5        1.0  0.8609782597861723  0.27972044510269006  0.0902450933470007  1.0000
  C   C6        1.0  0.6390208784634127  0.7202775865563994  0.5902447436277781  1.0000
  C   C7        1.0  0.13902288929453022  0.7202796458347651  0.9097537700948733  1.0000
  C   C8        1.0  0.3609776680146126  0.27972150335060064  0.4097552006551836  1.0000
  C   C9        1.0  0.08133092196706569  0.4414860238764646  0.09173801337286848  1.0000
  C   C10       1.0  0.41866769049561  0.5585108006378192  0.5917379638735125  1.0000
  C   C11       1.0  0.9186689860243646  0.5585140649687192  0.9082624713300759  1.0000
  C   C12       1.0  0.5813318562139215  0.4414862976727677  0.4082619804087527  1.0000
  C   C13       1.0  0.9717573145256252  0.5399470320696764  0.08657079085568137  1.0000
  C   C14       1.0  0.5282418354977736  0.46005099574075814  0.5865704118875783  1.0000
  C   C15       1.0  0.028242593466671902  0.4600530567752231  0.9134291534270388  1.0000
  C   C16       1.0  0.47175919315361625  0.5399480983524968  0.4134295323945949  1.0000
  C   C17       1.0  0.2679076442158888  0.4736035268453024  0.0924740124513974  1.0000
  C   C18       1.0  0.23208960437482054  0.5263922995017795  0.592473529070304  1.0000
  C   C19       1.0  0.7320921433470886  0.5263955651553973  0.9075270126716218  1.0000
  C   C20       1.0  0.7679097014804056  0.47360280511898645  0.4075258747914319  1.0000
  C   C21       1.0  0.6644900319159034  0.995658558059404  0.2305502731300422  1.0000
  C   C22       1.0  0.8355128617164665  0.004343614220609001  0.7305500640314406  1.0000
  C   C23       1.0  0.33550739390303613  0.004341526599240801  0.7694496711534737  1.0000
  C   C24       1.0  0.1644936129911158  0.995659475624521  0.2694504206699903  1.0000
  C   C25       1.0  0.7605699315763985  0.8286389790862289  0.2983643021171076  1.0000
  C   C26       1.0  0.7394328651841133  0.17136426107000352  0.7983636778730556  1.0000
  C   C27       1.0  0.23942997641763233  0.17136110975810226  0.7016345613251572  1.0000
  C   C28       1.0  0.2605697658367134  0.8286378256506881  0.20163626640918145  1.0000
  C   C29       1.0  0.7409424736570571  0.7431936547358903  0.23884511040361636  1.0000
  C   C30       1.0  0.759061152776141  0.2568045409452396  0.7388423447498056  1.0000
  C   C31       1.0  0.25905743433696665  0.25680643410844084  0.7611537530386485  1.0000
  C   C32       1.0  0.24094011673128793  0.7431965468372682  0.26115705911244896  1.0000
  C   C33       1.0  0.6567199175434695  0.9125853054065519  0.17029826826836109  1.0000
  C   C34       1.0  0.8432818076441676  0.0874158048244524  0.6702975456658677  1.0000
  C   C35       1.0  0.34328011087641386  0.08741578028312351  0.8297016760145084  1.0000
  C   C36       1.0  0.15671958228998048  0.912586279803115  0.3297023986167673  1.0000
  C   C37       1.0  0.6017749610662406  0.13200962500341257  0.22830684310498126  1.0000
  C   C38       1.0  0.8982254575810485  0.8679925407406159  0.7283069253420321  1.0000
  C   C39       1.0  0.3982263084325267  0.8679914627819301  0.7716979649595288  1.0000
  C   C40       1.0  0.10177345017195445  0.13200953970324042  0.2716978827234229  1.0000
  C   C41       1.0  0.45587888205959337  0.9316899801605769  0.012075723432680296  1.0000
  C   C42       1.0  0.0441131412904738  0.0683117325755731  0.5120735628227705  1.0000
  C   C43       1.0  0.5441199052727511  0.06831110343624401  0.9879247612708181  1.0000
  C   C44       1.0  0.9558773197213596  0.9316923269025285  0.4879247602030432  1.0000
  C   C45       1.0  0.9570972395523967  0.9612784557369172  0.032404557094622484  1.0000
  C   C46       1.0  0.5429046866442988  0.038720516366723204  0.5324013050668838  1.0000
  C   C47       1.0  0.0429050301813376  0.038720640450883116  0.9675980892882877  1.0000
  C   C48       1.0  0.45709894461408834  0.9612795787555796  0.46759485627307373  1.0000
  N   N1        1.0  0.02563486112470769  0.31116690480968856  0.09277237043114889  1.0000
  N   N2        1.0  0.47436262736614043  0.6888309155391072  0.5927712546000024  1.0000
  N   N3        1.0  0.974365167293449  0.6888341808805409  0.9072286546921827  1.0000
  N   N4        1.0  0.5256357986842984  0.31116717752311746  0.40722868968280307  1.0000
  N   N5        1.0  0.8061369458062515  0.5073665499462836  0.08238258061034288  1.0000
  N   N6        1.0  0.6938622176360665  0.49263147347773645  0.5823831894722176  1.0000
  N   N7        1.0  0.19386420327445103  0.49263354099117873  0.9176162828315311  1.0000
  N   N8        1.0  0.3061375699295041  0.5073676185221103  0.4176162143901223  1.0000
  N   N9        1.0  0.7235774947914777  0.9552547268059829  0.2938529101387175  1.0000
  N   N10       1.0  0.7764239549101147  0.044747509687155705  0.7938527541806195  1.0000
  N   N11       1.0  0.2764222927741001  0.0447443651938642  0.7061464937236293  1.0000
  N   N12       1.0  0.22358127870992206  0.9552555780651346  0.2061482709414335  1.0000
  N   N13       1.0  0.6928230745181949  0.7861474531128608  0.17428221042367648  1.0000
  N   N14       1.0  0.8071785174775171  0.21385266444581674  0.6742804784803339  1.0000
  N   N15       1.0  0.30717459215765064  0.21385462523475957  0.8257166530196898  1.0000
  N   N16       1.0  0.1928216313708191  0.7861494180883356  0.3257189253824677  1.0000
  O   O1        1.0  0.35336385748838234  0.3735941330807791  0.091490941659373  1.0000
  O   O2        1.0  0.14663499662085394  0.6264046848643546  0.5914910915008562  1.0000
  O   O3        1.0  0.6466360505030478  0.6264059557644045  0.9085095430435713  1.0000
  O   O4        1.0  0.8533647909455908  0.37359440713520803  0.4085077719412595  1.0000
  O   O5        1.0  0.32349382123459236  0.5949297631408473  0.09200925662140948  1.0000
  O   O6        1.0  0.1765036697022779  0.4050680564083892  0.5920076812716316  1.0000
  O   O7        1.0  0.6765047252451665  0.4050693267655847  0.9079896068211042  1.0000
  O   O8        1.0  0.8234972385249787  0.5949300408389604  0.4079901013294886  1.0000
  O   O9        1.0  0.6442591603858075  0.20919146894424057  0.2804374006249332  1.0000
  O   O10       1.0  0.8557386090442732  0.790810747217293  0.7804369399008521  1.0000
  O   O11       1.0  0.3557418682638485  0.7908076251495829  0.7195636244976953  1.0000
  O   O12       1.0  0.1442579369698862  0.20919232588281034  0.21956354480374068  1.0000
  O   O13       1.0  0.5101675456804315  0.15669738866352395  0.17522301949158248  1.0000
  O   O14       1.0  0.9898357660939608  0.8433067193540041  0.6752235743200571  1.0000
  O   O15       1.0  0.48983112122258626  0.8433026980890902  0.824778546052215  1.0000
  O   O16       1.0  0.010169587952795198  0.156697365243339  0.3247779912223691  1.0000
  O   O17       1.0  0.5116716095471572  0.8289301721294465  0.985536800511241  1.0000
  O   O18       1.0  0.9883299853080912  0.17106827985656284  0.48553648700394086  1.0000
  O   O19       1.0  0.4883281780166867  0.17106891987096162  0.0144636841915542  1.0000
  O   O20       1.0  0.01166968182643302  0.8289298152996454  0.5144650785391532  1.0000
  O   O21       1.0  0.33727471971306494  0.9344509966752242  0.05666313247670019  1.0000
  O   O22       1.0  0.16272808968389538  0.06554878791390449  0.5566635973485532  1.0000
  O   O23       1.0  0.662725067851639  0.06554809532489969  0.9433368118058709  1.0000
  O   O24       1.0  0.8372755415649705  0.9344513072115105  0.4433385086138911  1.0000
  O   O25       1.0  0.999889297302829  0.0018139623990265001  0.09513687968409809  1.0000
  O   O26       1.0  0.5001109459322562  0.9981830796318438  0.5951356442190203  1.0000
  O   O27       1.0  0.00011049025755479612  0.9981851296025113  0.9048657666996008  1.0000
  O   O28       1.0  0.4998899622924072  0.0018150176163587003  0.40486375964277227  1.0000
  O   O29       1.0  0.8499058948452782  0.8650841981487292  0.016925316258124195  1.0000
  O   O30       1.0  0.6500921168328945  0.1349127577736837  0.5169247349455972  1.0000
  O   O31       1.0  0.15009513380437767  0.13491489594509432  0.983075708864497  1.0000
  O   O32       1.0  0.34990222467648374  0.8650823384742808  0.48307412849748477  1.0000
