data_image0
_chemical_formula_structural       Zr6H25C54Br5O36
_chemical_formula_sum              "Zr6 H25 C54 Br5 O36"
_cell_length_a       14.786063163858394
_cell_length_b       14.756325385595941
_cell_length_c       14.74833730773011
_cell_angle_alpha    60.10767181542738
_cell_angle_beta     60.04451199305542
_cell_angle_gamma    60.087138723070545

_space_group_name_H-M_alt    "P 1"
_space_group_IT_number       1

loop_
  _space_group_symop_operation_xyz
  'x, y, z'

loop_
  _atom_site_type_symbol
  _atom_site_label
  _atom_site_symmetry_multiplicity
  _atom_site_fract_x
  _atom_site_fract_y
  _atom_site_fract_z
  _atom_site_occupancy
  Zr  Zr1       1.0  0.8792030392166909  0.8828466956709209  0.6170647481244631  1.0000
  Zr  Zr2       1.0  0.1196153560418196  0.12035575616627632  0.38201245531968914  1.0000
  Zr  Zr3       1.0  0.1175830997830116  0.8796096773691106  0.6210495064816969  1.0000
  Zr  Zr4       1.0  0.8807158285220353  0.12032104694780803  0.37889335685108  1.0000
  Zr  Zr5       1.0  0.12090102502414612  0.8818770483553064  0.37893810565955033  1.0000
  Zr  Zr6       1.0  0.8797588286467928  0.12218956359980378  0.6182251130560488  1.0000
  H   H1        1.0  0.09632542454333042  0.7174540472010521  0.5921239234301938  1.0000
  H   H2        1.0  0.09730167589798808  0.09508353476112323  0.21737566115142934  1.0000
  H   H3        1.0  0.09335609143879242  0.0929125393551971  0.5972197193676864  1.0000
  H   H4        1.0  0.7170717122702895  0.09709254957902415  0.5903794620437852  1.0000
  H   H5        1.0  0.820788381784084  0.6346986538182262  0.5741590516068131  1.0000
  H   H6        1.0  0.1748393218518841  0.5438085233377024  0.41953094948840447  1.0000
  H   H7        1.0  0.8290160638156719  0.4622032648952442  0.5704941196371042  1.0000
  H   H8        1.0  0.6013090456510138  0.838624509845417  0.9399763921956109  1.0000
  H   H9        1.0  0.5733406607050994  0.16222711895294836  0.8924026241867581  1.0000
  H   H10       1.0  0.43368443374112065  0.8447452035647203  0.11151708333934347  1.0000
  H   H11       1.0  0.16681491848273547  0.8852633640351188  0.05204254121968428  1.0000
  H   H12       1.0  0.8256804487318091  0.0926506823067613  0.13303248037325244  1.0000
  H   H13       1.0  0.15479367781799136  0.8897389434191538  0.8858611504464734  1.0000
  H   H14       1.0  0.6010070557975026  0.43907601315939354  0.6239597570521697  1.0000
  H   H15       1.0  0.5959427043187802  0.41547599358489135  0.34806425067246494  1.0000
  H   H16       1.0  0.42960379658337206  0.6068828928488514  0.6193854378987712  1.0000
  H   H17       1.0  0.05231502955748344  0.5593590253352687  0.72851545460032  1.0000
  H   H18       1.0  0.1076800810625612  0.3774084854654092  0.7165012645998985  1.0000
  H   H19       1.0  0.044300680749401494  0.22632226160313  0.06870991054541523  1.0000
  H   H20       1.0  0.10335218624452824  0.20999337836585855  0.888022070916101  1.0000
  H   H21       1.0  0.603396233878236  0.11753955208330069  0.33090195498888164  1.0000
  H   H22       1.0  0.5907365715533783  0.8563630622367171  0.6456730362943549  1.0000
  H   H23       1.0  0.4334189823001111  0.10795026210634256  0.3414523493812568  1.0000
  H   H24       1.0  0.9285148842089864  0.6553608029241645  0.18363032894097855  1.0000
  H   H25       1.0  0.8259287501414361  0.7854135080216269  0.9151640355018673  1.0000
  C   C1        1.0  0.996178026986513  0.7013590191697789  0.49541150298650666  1.0000
  C   C2        1.0  0.30786313057899417  0.0018212175210052584  0.20000216028405055  1.0000
  C   C3        1.0  0.0015149472494399283  0.3053772422690741  0.49749352346346143  1.0000
  C   C4        1.0  0.6970528612673377  0.0003119160892878385  0.8045967374882894  1.0000
  C   C5        1.0  0.9910846580409043  0.7003083460238031  0.8105364191588151  1.0000
  C   C6        1.0  0.7024989956791566  0.9951191101078581  0.49084557080180946  1.0000
  C   C7        1.0  0.9882923577753074  0.3111666057986042  0.20695983212159058  1.0000
  C   C8        1.0  0.3088349866439302  0.9877637765059504  0.5008343915529424  1.0000
  C   C9        1.0  0.3089668636701007  0.7013148841723336  0.4925383484050343  1.0000
  C   C10       1.0  0.9882039833464231  0.9939549738570223  0.8120371229792842  1.0000
  C   C11       1.0  0.7041033953800664  0.311374688780937  0.4920253876737065  1.0000
  C   C12       1.0  0.0009624270777734215  0.9938238192361271  0.19832288532652612  1.0000
  C   C13       1.0  0.005314029342997509  0.4049003216208433  0.49704448470325263  1.0000
  C   C14       1.0  0.9973299183368736  0.5996564009559293  0.4956045231917302  1.0000
  C   C15       1.0  0.10329027362830347  0.4277361339432558  0.45589856928193495  1.0000
  C   C16       1.0  0.8993434410767587  0.5766480347237605  0.5403660849674027  1.0000
  C   C17       1.0  0.0991146655488321  0.5254829965878898  0.4530152908467998  1.0000
  C   C18       1.0  0.9040304328847668  0.4808877045774481  0.5392435555038945  1.0000
  C   C19       1.0  0.4087425096228755  0.005998650998861872  0.09870517948125727  1.0000
  C   C20       1.0  0.5972246927005572  0.0004296918827720235  0.9066479217837512  1.0000
  C   C21       1.0  0.44934304960532495  0.0959752619744236  0.03648602138189726  1.0000
  C   C22       1.0  0.5585088865214015  0.910147552630214  0.9676536285210418  1.0000
  C   C23       1.0  0.5424926747645102  0.09263206360338917  0.9412605122640089  1.0000
  C   C24       1.0  0.46562644487761407  0.913767185354196  0.062210435421469916  1.0000
  C   C25       1.0  0.9843354222707886  0.9923193531641773  0.9160912816880471  1.0000
  C   C26       1.0  0.9969928741959677  0.9906476990109851  0.10092289820893555  1.0000
  C   C27       1.0  0.8904586175066311  0.04828956785340212  0.9878552309003583  1.0000
  C   C28       1.0  0.09019020171790261  0.9314024341528437  0.032822295501333094  1.0000
  C   C29       1.0  0.89766413191375  0.04838959528547096  0.07837840504645759  1.0000
  C   C30       1.0  0.08315662358620535  0.9335326498229009  0.9413398167854228  1.0000
  C   C31       1.0  0.41460186788070513  0.6050624841058152  0.48333065288927207  1.0000
  C   C32       1.0  0.6073506234290135  0.41644955314650645  0.4870369543700834  1.0000
  C   C33       1.0  0.4639418148133317  0.5510434812366684  0.40495365740590483  1.0000
  C   C34       1.0  0.5620400167942917  0.47097579595326516  0.5630242415934036  1.0000
  C   C35       1.0  0.5590193875056993  0.4578743856971031  0.40742171303066504  1.0000
  C   C36       1.0  0.46721403416488244  0.5636831878665731  0.5604237587243193  1.0000
  C   C37       1.0  0.9832850920068592  0.6027990084599325  0.916527692027195  1.0000
  C   C38       1.0  0.01980998537064948  0.4981366746899382  0.9061964924645879  1.0000
  C   C39       1.0  0.9433157339970535  0.6152135990428677  0.01897162110425644  1.0000
  C   C40       1.0  0.053998433104062486  0.4862657944498138  0.8027909843791791  1.0000
  C   C41       1.0  0.08389388258994042  0.3845682317722705  0.7961894787507335  1.0000
  C   C42       1.0  0.9825726584332485  0.41585115125877087  0.10765957244478153  1.0000
  C   C43       1.0  0.9452316888334096  0.5187971717545992  0.11751017859597132  1.0000
  C   C44       1.0  0.01793076661366644  0.4026963147287789  0.00420752981830223  1.0000
  C   C45       1.0  0.04971365995552173  0.2989304320045889  0.9943551809108372  1.0000
  C   C46       1.0  0.08150383188065272  0.29009985889168627  0.8930620188819349  1.0000
  C   C47       1.0  0.4144038167726408  0.9798049956374157  0.4997374822753714  1.0000
  C   C48       1.0  0.6057073888355048  0.9885166363310631  0.4892000600401688  1.0000
  C   C49       1.0  0.46122662839432105  0.906683257441756  0.5848960623639529  1.0000
  C   C50       1.0  0.563028295264722  0.059007997488968976  0.4017732327844997  1.0000
  C   C51       1.0  0.5556945350340072  0.9115628769612913  0.5791892099399193  1.0000
  C   C52       1.0  0.46890338716905694  0.05377841855066379  0.4078569751255473  1.0000
  C   C53       1.0  0.9050196829378759  0.5163327637040355  0.23576875006677508  1.0000
  C   C54       1.0  0.8995508002049065  0.7306428511777484  0.020857832588625284  1.0000
  Br  Br1       1.0  0.24792638743001305  0.3265104713259745  0.4099781003454766  1.0000
  Br  Br2       1.0  0.38558650842281844  0.2289754791764126  0.06972679574796821  1.0000
  Br  Br3       1.0  0.7468437545256563  0.12198739901500498  0.9753223254617186  1.0000
  Br  Br4       1.0  0.4097214346570723  0.592613092951332  0.29134658785717715  1.0000
  Br  Br5       1.0  0.404555408709747  0.7971964177825511  0.7150462618510718  1.0000
  O   O1        1.0  0.9182427004055425  0.7407233676559881  0.5723760838318699  1.0000
  O   O2        1.0  0.26525839708622106  0.07665030983319092  0.24302632519088263  1.0000
  O   O3        1.0  0.07671804066279006  0.26472168435800114  0.420991484108683  1.0000
  O   O4        1.0  0.7376201803592651  0.9206874844613326  0.7677609770812737  1.0000
  O   O5        1.0  0.0724966452350129  0.7323244948269193  0.7702533976862115  1.0000
  O   O6        1.0  0.7397848645505505  0.07354376276629897  0.41480382170335167  1.0000
  O   O7        1.0  0.9179257933532838  0.26600021393552  0.23959326324182237  1.0000
  O   O8        1.0  0.2634205318532992  0.9155934035056178  0.5789671974795925  1.0000
  O   O9        1.0  0.26556161927683763  0.7434711158489477  0.4181396748417401  1.0000
  O   O10       1.0  0.9166342094152926  0.07383090033029308  0.7673431179453232  1.0000
  O   O11       1.0  0.741805345337319  0.2716687914301373  0.5703746929530386  1.0000
  O   O12       1.0  0.08101289798745613  0.9202471337307545  0.234301446637332  1.0000
  O   O13       1.0  0.06650084613390564  0.917168661274921  0.772596198645026  1.0000
  O   O14       1.0  0.7387667007664546  0.2667034898036462  0.42041795875822885  1.0000
  O   O15       1.0  0.9243738708361351  0.07112745040317485  0.23745297912005733  1.0000
  O   O16       1.0  0.26776087029733  0.7340806771291924  0.5748849819908557  1.0000
  O   O17       1.0  0.9138955302532705  0.740510731644548  0.7710594492194363  1.0000
  O   O18       1.0  0.27036283270586375  0.06746833447672879  0.4246961558257283  1.0000
  O   O19       1.0  0.06999139615607664  0.27042265903342166  0.2392893618189262  1.0000
  O   O20       1.0  0.7391503764920702  0.9221387369441204  0.5708681132077873  1.0000
  O   O21       1.0  0.7340890122863682  0.0795283056453541  0.7615631811649594  1.0000
  O   O22       1.0  0.07447512776293035  0.7393445021850342  0.4204484761379278  1.0000
  O   O23       1.0  0.27027840387597746  0.9244579075275327  0.23579568076095828  1.0000
  O   O24       1.0  0.9234515537249877  0.2680073360067326  0.5746284374220424  1.0000
  O   O25       1.0  0.7972950029498803  0.0687672561470124  0.565190043619623  1.0000
  O   O26       1.0  0.06686751917601436  0.06666251109068355  0.5694695671807467  1.0000
  O   O27       1.0  0.06860364229505926  0.06819009616295799  0.2977373683283205  1.0000
  O   O28       1.0  0.06592497864756533  0.7976586600759676  0.568612918527279  1.0000
  O   O29       1.0  0.1481026295636735  0.9503657170140021  0.4520798169443482  1.0000
  O   O30       1.0  0.9512018470230997  0.9506434045642608  0.4487123249580023  1.0000
  O   O31       1.0  0.9508545028587535  0.14847584751873893  0.4503314310274149  1.0000
  O   O32       1.0  0.9485974809972785  0.9510536790127091  0.6489738912346612  1.0000
  O   O33       1.0  0.9101928050922083  0.5927515099698297  0.25451187034771305  1.0000
  O   O34       1.0  0.8719586971177617  0.4408616634689225  0.31372345801496954  1.0000
  O   O35       1.0  0.8370161685950559  0.8116816410390655  0.9573828005093648  1.0000
  O   O36       1.0  0.9176944451744615  0.7565057183793018  0.07627237209201362  1.0000
