data_image0
_chemical_formula_structural       Zn4H24C40N12O8
_chemical_formula_sum              "Zn4 H24 C40 N12 O8"
_cell_length_a       9.232130128412335
_cell_length_b       9.83725586500055
_cell_length_c       10.742996682337168
_cell_angle_alpha    89.9999774608096
_cell_angle_beta     95.89918641563486
_cell_angle_gamma    89.99997140563865

_space_group_name_H-M_alt    "P 1"
_space_group_IT_number       1

loop_
  _space_group_symop_operation_xyz
  'x, y, z'

loop_
  _atom_site_type_symbol
  _atom_site_label
  _atom_site_symmetry_multiplicity
  _atom_site_fract_x
  _atom_site_fract_y
  _atom_site_fract_z
  _atom_site_occupancy
  Zn  Zn1       1.0  0.7790221703196423  0.27232268253769837  0.13974033183998816  1.0000
  Zn  Zn2       1.0  0.7209775011092462  0.7723227515679484  0.8602594412557639  1.0000
  Zn  Zn3       1.0  0.22097654638927364  0.7276783048315423  0.8602592486553394  1.0000
  Zn  Zn4       1.0  0.2790233979857462  0.22767823580053917  0.13974125509284366  1.0000
  H   H1        1.0  0.960328623285477  0.932378549099923  0.6777415080190539  1.0000
  H   H2        1.0  0.5396709553485907  0.4323785140225384  0.3222581992243222  1.0000
  H   H3        1.0  0.0396711823544038  0.06762243826904069  0.3222581647876481  1.0000
  H   H4        1.0  0.4603288548154296  0.5676224733462263  0.6777424048129108  1.0000
  H   H5        1.0  0.09966632975870479  0.13281432264182064  0.613112259585954  1.0000
  H   H6        1.0  0.40033366509094753  0.6328145108317359  0.38688735196189583  1.0000
  H   H7        1.0  0.9003345648121409  0.8671866647268731  0.3868875055321226  1.0000
  H   H8        1.0  0.5996661405489334  0.36718647653722764  0.6131123208448062  1.0000
  H   H9        1.0  0.10781956569231  0.3466950797133492  0.7310780126877107  1.0000
  H   H10       1.0  0.3921803142049569  0.8466953224074272  0.26892337332341754  1.0000
  H   H11       1.0  0.8921802444717103  0.6533059076554153  0.2689225913495222  1.0000
  H   H12       1.0  0.6078194959590631  0.15330566496133002  0.7310772307138153  1.0000
  H   H13       1.0  0.9740850012711418  0.37356208434102467  0.9208293234543989  1.0000
  H   H14       1.0  0.5259157003934902  0.8735625804903648  0.07917050029932682  1.0000
  H   H15       1.0  0.0259148088931767  0.6264378864840837  0.07917128058304002  1.0000
  H   H16       1.0  0.4740851941776539  0.12643739033467233  0.9208292648189627  1.0000
  H   H17       1.0  0.7595299540020976  0.0216246555961277  0.4619752589679537  1.0000
  H   H18       1.0  0.7404698627730752  0.5216238373615881  0.5380246172736208  1.0000
  H   H19       1.0  0.2404763942718802  0.9783763317707825  0.5380268301680574  1.0000
  H   H20       1.0  0.25952340023329873  0.47837511692213036  0.46197263920419135  1.0000
  H   H21       1.0  0.3091003879896165  0.11855323667560923  0.3613276541053808  1.0000
  H   H22       1.0  0.1908985261974507  0.61855239847435  0.6386718709987991  1.0000
  H   H23       1.0  0.6909048668295483  0.8814467341481277  0.6386734114889309  1.0000
  H   H24       1.0  0.8090936478779582  0.38144655580963865  0.3613252931676386  1.0000
  C   C1        1.0  0.8877945492403682  0.041996079709711906  0.837033145587114  1.0000
  C   C2        1.0  0.6122063446547656  0.5419964993526847  0.16296681458408813  1.0000
  C   C3        1.0  0.11220634533077603  0.958003891115325  0.16296661953117567  1.0000
  C   C4        1.0  0.3877934609854066  0.45800347147262954  0.8370328582228199  1.0000
  C   C5        1.0  0.9620152298786308  0.027229772193081207  0.7300037045548039  1.0000
  C   C6        1.0  0.5379856771016449  0.5272301806990785  0.2699971929222826  1.0000
  C   C7        1.0  0.037986758147333405  0.9727712151751292  0.26999708410517803  1.0000
  C   C8        1.0  0.4620141330623752  0.4727708066696864  0.7300034111149432  1.0000
  C   C9        1.0  0.039747703237822  0.13914636949181874  0.6951470560623891  1.0000
  C   C10       1.0  0.4602533813958374  0.6391465647945012  0.30485357642214694  1.0000
  C   C11       1.0  0.9602531958571705  0.860854617876676  0.3048536402862184  1.0000
  C   C12       1.0  0.5397475176991549  0.36085442257398637  0.6951471199264605  1.0000
  C   C13       1.0  0.04484923916572821  0.26253137248683345  0.7632278789173058  1.0000
  C   C14       1.0  0.45515177393357215  0.7625315994313483  0.23677270280246182  1.0000
  C   C15       1.0  0.9551516599292642  0.7374696148816543  0.23677281743130157  1.0000
  C   C16       1.0  0.5448480317063088  0.23746938793762246  0.7632269700042401  1.0000
  C   C17       1.0  0.9719096700538401  0.27846748705349  0.8687325257443916  1.0000
  C   C18       1.0  0.5280899978123799  0.7784679598015601  0.13126724482309274  1.0000
  C   C19       1.0  0.0280890466553672  0.7215324837721014  0.13126705475114162  1.0000
  C   C20       1.0  0.4719108967587645  0.22153201102347717  0.8687325202951899  1.0000
  C   C21       1.0  0.8934422656476709  0.16544512488522403  0.9048409889789114  1.0000
  C   C22       1.0  0.6065585611998261  0.6654465928526039  0.09515985163149311  1.0000
  C   C23       1.0  0.10655754451693872  0.8345538293962421  0.09515961505874061  1.0000
  C   C24       1.0  0.3934423378951665  0.33455439451589103  0.9048408447171141  1.0000
  C   C25       1.0  0.5834480741235383  0.15291439648354552  0.28829517371048763  1.0000
  C   C26       1.0  0.9165516665341471  0.6529144375213678  0.7117046485138732  1.0000
  C   C27       1.0  0.4165550028339808  0.8470845577970892  0.711705707261281  1.0000
  C   C28       1.0  0.0834459567202472  0.34708451676104357  0.2882939084399681  1.0000
  C   C29       1.0  0.5390221198306051  0.07666344394645111  0.3983930877712752  1.0000
  C   C30       1.0  0.9609776605102949  0.5766645279699107  0.6016058345945653  1.0000
  C   C31       1.0  0.46098422391952454  0.9233365268770087  0.6016080701344181  1.0000
  C   C32       1.0  0.0390156024957946  0.4233354428574573  0.39839142188304083  1.0000
  C   C33       1.0  0.6460096022698708  0.011356571124842701  0.47915746074250626  1.0000
  C   C34       1.0  0.8539902159336634  0.5113577400681494  0.5208414884927707  1.0000
  C   C35       1.0  0.3539978349353632  0.9886433996981409  0.5208447207050855  1.0000
  C   C36       1.0  0.1460030515968498  0.4886412142153703  0.47915669921557225  1.0000
  C   C37       1.0  0.3927217881819942  0.06527411838100512  0.4208845793165423  1.0000
  C   C38       1.0  0.107277156894142  0.565274361563752  0.5791149677082431  1.0000
  C   C39       1.0  0.6072845600922747  0.9347258524422486  0.5791175098196747  1.0000
  C   C40       1.0  0.8927150171809686  0.4347256092638931  0.4208821964579884  1.0000
  N   N1        1.0  0.8097942838405672  0.14621233258357344  0.0018655526876542878  1.0000
  N   N2        1.0  0.6902054652268816  0.6462123568294444  0.9981352035246972  1.0000
  N   N3        1.0  0.19020552632374432  0.8537876382415419  0.9981350513497846  1.0000
  N   N4        1.0  0.30979434493743707  0.35378761399567094  0.0018654005127415987  1.0000
  N   N5        1.0  0.7546822668506651  0.0213063639195923  0.995744826129624  1.0000
  N   N6        1.0  0.7453175501089718  0.5213057727121396  0.0042550502428540145  1.0000
  N   N7        1.0  0.2453175387895072  0.9786936069057222  0.004254846677284299  1.0000
  N   N8        1.0  0.2546822600553397  0.4786941981129687  0.995745553794585  1.0000
  N   N9        1.0  0.7999400734554527  0.956536699447888  0.8974003354335383  1.0000
  N   N10       1.0  0.7000605846276642  0.4565366834407811  0.10260038541225922  1.0000
  N   N11       1.0  0.20006082563983807  0.04346327137695031  0.10260036091527522  1.0000
  N   N12       1.0  0.29993922553665453  0.543463287384327  0.8974002186251795  1.0000
  O   O1        1.0  0.7203065920890594  0.1761952471044665  0.28814413067206607  1.0000
  O   O2        1.0  0.7796931350714688  0.6761943357806006  0.7118556819739583  1.0000
  O   O3        1.0  0.2796964803440289  0.8238047237200233  0.7118558190689726  1.0000
  O   O4        1.0  0.22030449723120432  0.3238046185014126  0.2881447374409376  1.0000
  O   O5        1.0  0.492370344480122  0.192214014592281  0.19911679118677483  1.0000
  O   O6        1.0  0.0076296159319398016  0.6922131927406028  0.8008827959222417  1.0000
  O   O7        1.0  0.5076305636634402  0.8077859562321522  0.8008857676231006  1.0000
  O   O8        1.0  0.992369087205148  0.3077857615419362  0.19911399088191223  1.0000
