data_image0
_chemical_formula_structural       Cd4H16C20N16O16
_chemical_formula_sum              "Cd4 H16 C20 N16 O16"
_cell_length_a       7.86293111444175
_cell_length_b       7.952535256123195
_cell_length_c       13.565002985078356
_cell_angle_alpha    89.98769707871006
_cell_angle_beta     90.01794029402065
_cell_angle_gamma    113.26443878511586

_space_group_name_H-M_alt    "P 1"
_space_group_IT_number       1

loop_
  _space_group_symop_operation_xyz
  'x, y, z'

loop_
  _atom_site_type_symbol
  _atom_site_label
  _atom_site_symmetry_multiplicity
  _atom_site_fract_x
  _atom_site_fract_y
  _atom_site_fract_z
  _atom_site_occupancy
  Cd  Cd1       1.0  0.30353661547624  0.529008475335381  0.2734786695188448  1.0000
  Cd  Cd2       1.0  0.6964616584875146  0.47099134393731396  0.7265198951716985  1.0000
  Cd  Cd3       1.0  0.3036800144995767  0.0290022721042789  0.22668408158927636  1.0000
  Cd  Cd4       1.0  0.6963227769424449  0.9709961423561567  0.7733144836020218  1.0000
  H   H1        1.0  0.2685943564196408  0.08230399742865302  0.6477972045292619  1.0000
  H   H2        1.0  0.7314115273536717  0.9176957673752852  0.3522050468136159  1.0000
  H   H3        1.0  0.2870899362928159  0.8810273622450426  0.6950101834252395  1.0000
  H   H4        1.0  0.7129117451816996  0.1189683146386997  0.3049898562212619  1.0000
  H   H5        1.0  0.7318407438968678  0.41771525274970145  0.14759112777568364  1.0000
  H   H6        1.0  0.26815626242375873  0.5822845753458452  0.8524096483722874  1.0000
  H   H7        1.0  0.7128175337443636  0.6187423854934053  0.19475021645028792  1.0000
  H   H8        1.0  0.28718383237890077  0.3812587841893986  0.8052512972006627  1.0000
  H   H9        1.0  0.77587901126725  0.045232207491054104  0.008696616610151904  1.0000
  H   H10       1.0  0.22412655612416196  0.9547730505115268  0.9913026855901567  1.0000
  H   H11       1.0  0.8795011679747802  0.9778105730736187  0.11089814050305342  1.0000
  H   H12       1.0  0.12049750432774428  0.0221933609873801  0.8891048471091241  1.0000
  H   H13       1.0  0.2235655397624896  0.45457713681024353  0.5088745196844259  1.0000
  H   H14       1.0  0.7764347158779544  0.5454212954956575  0.491126256848226  1.0000
  H   H15       1.0  0.12032486923951785  0.5222148476228483  0.6111121782310107  1.0000
  H   H16       1.0  0.8796730079314303  0.47778085626218575  0.38888859825841865  1.0000
  C   C1        1.0  0.2135036148809348  0.9326903772160976  0.6419275948658837  1.0000
  C   C2        1.0  0.7864991772481816  0.06730803697795548  0.35807391909008873  1.0000
  C   C3        1.0  0.2464866306001952  0.883706000121684  0.5409569549336198  1.0000
  C   C4        1.0  0.7535154481824479  0.1162937919499356  0.4590430844875045  1.0000
  C   C5        1.0  0.9913212337712312  0.6499596228984998  0.17184916599356373  1.0000
  C   C6        1.0  0.00867941866201959  0.3500429247950692  0.8281493987402018  1.0000
  C   C7        1.0  0.786723665433982  0.5673363272622467  0.14176722970533012  1.0000
  C   C8        1.0  0.2132720723846475  0.4326635099891192  0.8582320719442224  1.0000
  C   C9        1.0  0.7539282935458261  0.6164127776998642  0.04075930117487302  1.0000
  C   C10       1.0  0.24607109107252267  0.38358977888314183  0.9592407378251482  1.0000
  C   C11       1.0  0.7562286433878143  0.9379248755170124  0.0632868036170962  1.0000
  C   C12       1.0  0.24377383253118984  0.062079031809076896  0.9367124983874862  1.0000
  C   C13       1.0  0.243491849218053  0.5619161964636918  0.5634703116987299  1.0000
  C   C14       1.0  0.7565058702772662  0.43808225382087335  0.4365312017929243  1.0000
  C   C15       1.0  0.4080380783258165  0.5862560543192218  0.6314608849828505  1.0000
  C   C16       1.0  0.5919610668318073  0.41373964060977636  0.36853915443149543  1.0000
  C   C17       1.0  0.5917578901596132  0.913351416356406  0.13133824383854187  1.0000
  C   C18       1.0  0.40823935424755586  0.0866552739259063  0.8686566343657633  1.0000
  C   C19       1.0  0.008822595441557717  0.8503451291706838  0.6717969662854559  1.0000
  C   C20       1.0  0.9911809093469304  0.1496519074121778  0.32820307344069743  1.0000
  N   N1        1.0  0.26338690220997313  0.9900132021281821  0.4624224501681483  1.0000
  N   N2        1.0  0.7366140662616231  0.0099838524999427  0.5375775893258421  1.0000
  N   N3        1.0  0.285749856781564  0.8954952728005596  0.3851271564389835  1.0000
  N   N4        1.0  0.7142516668455556  0.10450315054931282  0.6148728830185777  1.0000
  N   N5        1.0  0.2846356618647621  0.7375763732655614  0.41150863136616084  1.0000
  N   N6        1.0  0.7153653067786083  0.26242068129596424  0.5884921453189949  1.0000
  N   N7        1.0  0.25960565317403467  0.7267918117237857  0.5098933049432406  1.0000
  N   N8        1.0  0.7403927789806628  0.2732052609495952  0.4901067343185873  1.0000
  N   N9        1.0  0.7376114591441266  0.5103753349436249  0.9621937782794776  1.0000
  N   N10       1.0  0.2623835661868982  0.4896258798523334  0.03780773479106611  1.0000
  N   N11       1.0  0.7404060650408368  0.7731706231636154  0.009701300653794901  1.0000
  N   N12       1.0  0.2595958558944106  0.22683191537413455  0.990298738578389  1.0000
  N   N13       1.0  0.7151351944218404  0.6048734635123411  0.8848897583757424  1.0000
  N   N14       1.0  0.28486054374033654  0.39512637360583386  0.11511101765614742  1.0000
  N   N15       1.0  0.7156545730207997  0.7625324793776758  0.9112903948494523  1.0000
  N   N16       1.0  0.2843460799277722  0.2374700681161031  0.08871038145782252  1.0000
  O   O1        1.0  0.03539810025978344  0.5625552912410683  0.23830873801571079  1.0000
  O   O2        1.0  0.9646021552088869  0.43744314113143196  0.7616913013257689  1.0000
  O   O3        1.0  0.09503860013211353  0.7997923690329003  0.13220475271062784  1.0000
  O   O4        1.0  0.9049603871781075  0.2002060723622279  0.8677952865147703  1.0000
  O   O5        1.0  0.4791672551880099  0.7321411088278823  0.679936518192541  1.0000
  O   O6        1.0  0.5208348241099613  0.26785868304394717  0.3200657328020925  1.0000
  O   O7        1.0  0.4478941164527087  0.4461393414648143  0.636772351084311  1.0000
  O   O8        1.0  0.5521030471999921  0.5538577403643855  0.36322621367909863  1.0000
  O   O9        1.0  0.9647003840835283  0.9379727407903148  0.7380561100258591  1.0000
  O   O10       1.0  0.035302250026418805  0.062028419936460515  0.2619446665500078  1.0000
  O   O11       1.0  0.5520303086224062  0.053525830696472106  0.13686808113284604  1.0000
  O   O12       1.0  0.4479793032204001  0.946486261692428  0.8631334325748912  1.0000
  O   O13       1.0  0.5206246531391302  0.7672258275910552  0.17963370764517356  1.0000
  O   O14       1.0  0.4793549115660908  0.23276863508777984  0.8203537978145194  1.0000
  O   O15       1.0  0.9050933202592619  0.7004385085745427  0.6321852255849907  1.0000
  O   O16       1.0  0.09491240532310029  0.2995640028287169  0.36781555118660253  1.0000
