data_image0
_chemical_formula_structural       Sm4H24C24N36
_chemical_formula_sum              "Sm4 H24 C24 N36"
_cell_length_a       9.411891618758363
_cell_length_b       9.411894688875323
_cell_length_c       12.829928717115571
_cell_angle_alpha    92.18734538520478
_cell_angle_beta     92.18759088334049
_cell_angle_gamma    119.75059175502618

_space_group_name_H-M_alt    "P 1"
_space_group_IT_number       1

loop_
  _space_group_symop_operation_xyz
  'x, y, z'

loop_
  _atom_site_type_symbol
  _atom_site_label
  _atom_site_symmetry_multiplicity
  _atom_site_fract_x
  _atom_site_fract_y
  _atom_site_fract_z
  _atom_site_occupancy
  Sm  Sm1       1.0  0.5225312309668269  0.25712245706969844  0.42773731563285367  1.0000
  Sm  Sm2       1.0  0.7428828602956158  0.477465849481618  0.07226174786386248  1.0000
  Sm  Sm3       1.0  0.47746617435910826  0.7428824578791622  0.5722621878560971  1.0000
  Sm  Sm4       1.0  0.25712014402085975  0.522526813323225  0.9277375839959131  1.0000
  H   H1        1.0  0.9645513022361739  0.9960073021248093  0.3997955216536296  1.0000
  H   H2        1.0  0.003984426385081001  0.0354446564266127  0.10021049090079966  1.0000
  H   H3        1.0  0.035447482747372305  0.003993955946860698  0.6002062614145272  1.0000
  H   H4        1.0  0.9960064798461801  0.9645492768268866  0.899795576582974  1.0000
  H   H5        1.0  0.9041865154010368  0.243356295582565  0.33548664472409223  1.0000
  H   H6        1.0  0.7566271444201503  0.0958015617489067  0.16450678647261435  1.0000
  H   H7        1.0  0.09580763714060228  0.7566399908909247  0.6645070961561641  1.0000
  H   H8        1.0  0.24335847450838335  0.9041861289131673  0.8354857330480456  1.0000
  H   H9        1.0  0.7716083191010625  0.7063165759710089  0.7700352460441591  1.0000
  H   H10       1.0  0.2936922484054492  0.22839181183851312  0.7299599334732816  1.0000
  H   H11       1.0  0.22839361678690293  0.29369320872042687  0.22995982331135417  1.0000
  H   H12       1.0  0.7063178548699584  0.7716044848646674  0.27003343975112404  1.0000
  H   H13       1.0  0.8654587318581122  0.47044600487316046  0.7333357077161506  1.0000
  H   H14       1.0  0.5295656646039006  0.1345325835114437  0.7666613940516879  1.0000
  H   H15       1.0  0.13453319535319244  0.5295650142838395  0.2666614735914266  1.0000
  H   H16       1.0  0.4704459710425085  0.8654539402085462  0.2333356637918057  1.0000
  H   H17       1.0  0.36572308609589754  0.06323693833114417  0.004778343365586599  1.0000
  H   H18       1.0  0.9367553048586713  0.6342948621741087  0.49522175879332037  1.0000
  H   H19       1.0  0.6342797846096744  0.936761859677631  0.9952219227645639  1.0000
  H   H20       1.0  0.06323954249446467  0.3657198628474205  0.5047787112227482  1.0000
  H   H21       1.0  0.16329562750834728  0.876971988359152  0.1579461521638166  1.0000
  H   H22       1.0  0.12302338368419903  0.8367095531378013  0.3420528862471952  1.0000
  H   H23       1.0  0.836705575469594  0.1230255884778018  0.8420548188775071  1.0000
  H   H24       1.0  0.8769738585042502  0.16329290368863517  0.6579457701766953  1.0000
  C   C1        1.0  0.8629352800570158  0.016528771613259597  0.4133100174843917  1.0000
  C   C2        1.0  0.9834725171445697  0.1370588849201724  0.08670147017164709  1.0000
  C   C3        1.0  0.13706533579164668  0.9834761657526628  0.586691907737652  1.0000
  C   C4        1.0  0.016530739454282264  0.862936325130761  0.9133096255343529  1.0000
  C   C5        1.0  0.8329336073591875  0.13941216638023232  0.3811854437086665  1.0000
  C   C6        1.0  0.8605754529669981  0.1670608371646694  0.11882156138360499  1.0000
  C   C7        1.0  0.167060602489876  0.8605841773870323  0.6188153151023383  1.0000
  C   C8        1.0  0.13940937990712846  0.8329294251010138  0.8811858135893257  1.0000
  C   C9        1.0  0.7343309417346757  0.6125164495329826  0.7069873995203436  1.0000
  C   C10       1.0  0.3875002627941839  0.26566187705731176  0.7930141190905359  1.0000
  C   C11       1.0  0.2656634584675786  0.3874995071795695  0.2930138701761534  1.0000
  C   C12       1.0  0.6125208453395388  0.7343308236538844  0.20698801914227966  1.0000
  C   C13       1.0  0.7812132814185445  0.4952807425141899  0.688466726711219  1.0000
  C   C14       1.0  0.5047248086700477  0.2187931188749701  0.811535891293502  1.0000
  C   C15       1.0  0.2187943339264891  0.504725434287394  0.31153619051121945  1.0000
  C   C16       1.0  0.49528218365162496  0.7812118187632463  0.18846541900414585  1.0000
  C   C17       1.0  0.3802796235020977  0.08331074766876871  0.08902290311528559  1.0000
  C   C18       1.0  0.9166835609973487  0.6197314211816118  0.4109794039005549  1.0000
  C   C19       1.0  0.6197232599384607  0.9166880630719519  0.9109789225550313  1.0000
  C   C20       1.0  0.08331402020105116  0.38027596462163155  0.5890225061936148  1.0000
  C   C21       1.0  0.27922894719156943  0.9913677099801319  0.16542152072785393  1.0000
  C   C22       1.0  0.008633689286462257  0.7207770747664385  0.3345792561828844  1.0000
  C   C23       1.0  0.7207724125563715  0.0086323186132802  0.8345795176084464  1.0000
  C   C24       1.0  0.9913679776339704  0.2792278509739106  0.665421136973272  1.0000
  N   N1        1.0  0.689538024581161  0.11182081058944958  0.419104013364631  1.0000
  N   N2        1.0  0.888173749585796  0.3104552990309912  0.08089594518974508  1.0000
  N   N3        1.0  0.3104596647581702  0.888180414545964  0.5808938433788312  1.0000
  N   N4        1.0  0.11182242473928744  0.6895385888266007  0.9191040215047719  1.0000
  N   N5        1.0  0.6346524241536856  0.9770184205405814  0.47205196661008125  1.0000
  N   N6        1.0  0.02297642274784553  0.36533993498369455  0.027948868923097298  1.0000
  N   N7        1.0  0.36534482440224986  0.022984042651828004  0.5279474695838927  1.0000
  N   N8        1.0  0.977020205095613  0.634652727548854  0.9720510778610743  1.0000
  N   N9        1.0  0.7366168493904937  0.9169128738899701  0.47007113424904634  1.0000
  N   N10       1.0  0.0830867788188954  0.2633811057592723  0.029934121254385094  1.0000
  N   N11       1.0  0.2633820987305313  0.08309084230413082  0.5299314958841704  1.0000
  N   N12       1.0  0.9169127819013809  0.7366152753697649  0.9700706737784512  1.0000
  N   N13       1.0  0.6957084031399745  0.40477960576969  0.6001040656034674  1.0000
  N   N14       1.0  0.5952279310960195  0.30428345560259373  0.89989355967878  1.0000
  N   N15       1.0  0.3042842743380945  0.5952265109807727  0.39989300858844246  1.0000
  N   N16       1.0  0.4047785486541144  0.6957055207079392  0.10010420785836517  1.0000
  N   N17       1.0  0.601601719917859  0.46500915157810135  0.566607208364452  1.0000
  N   N18       1.0  0.5349991261447186  0.39839159560894183  0.9333910108751977  1.0000
  N   N19       1.0  0.3983920341019457  0.5349969790106927  0.43339145284191  1.0000
  N   N20       1.0  0.4650085678146637  0.6015998271984485  0.06660607166111278  1.0000
  N   N21       1.0  0.622532818748894  0.5911063283075393  0.6292660405046319  1.0000
  N   N22       1.0  0.4089013972046017  0.3774613617073683  0.8707312423364467  1.0000
  N   N23       1.0  0.3774636604377974  0.4089010181934826  0.3707311634947529  1.0000
  N   N24       1.0  0.5911069006756619  0.6225312811654646  0.12926510781441178  1.0000
  N   N25       1.0  0.3541513077363376  0.0694253989854872  0.2593492616975154  1.0000
  N   N26       1.0  0.9305743826544131  0.6458485068779255  0.24065053926940286  1.0000
  N   N27       1.0  0.6458477676281049  0.9305721756387086  0.7406516543952434  1.0000
  N   N28       1.0  0.0694284816836657  0.35415028476487015  0.7593489470906645  1.0000
  N   N29       1.0  0.49459789172358626  0.202782124011101  0.24022849535190716  1.0000
  N   N30       1.0  0.7972190836756708  0.5054030261394685  0.25977216143476056  1.0000
  N   N31       1.0  0.5054018002967168  0.7972166834104896  0.759773247895559  1.0000
  N   N32       1.0  0.20278333987901223  0.4945970035603224  0.7402289043758187  1.0000
  N   N33       1.0  0.5135435640259373  0.21491940317034164  0.13773490779664135  1.0000
  N   N34       1.0  0.7850766557590559  0.4864635217700127  0.3622657859581578  1.0000
  N   N35       1.0  0.4864565751452546  0.7850781725602333  0.8622660357704032  1.0000
  N   N36       1.0  0.21492305305284273  0.5135438662459961  0.6377361790845695  1.0000
