data_image0
_chemical_formula_structural       Gd4Zn6H72C48O72
_chemical_formula_sum              "Gd4 Zn6 H72 C48 O72"
_cell_length_a       14.563635814562264
_cell_length_b       14.563658606054632
_cell_length_c       16.052778855146926
_cell_angle_alpha    89.99959834553177
_cell_angle_beta     90.00044536270676
_cell_angle_gamma    120.00013383627149

_space_group_name_H-M_alt    "P 1"
_space_group_IT_number       1

loop_
  _space_group_symop_operation_xyz
  'x, y, z'

loop_
  _atom_site_type_symbol
  _atom_site_label
  _atom_site_symmetry_multiplicity
  _atom_site_fract_x
  _atom_site_fract_y
  _atom_site_fract_z
  _atom_site_occupancy
  Gd  Gd1       1.0  0.33333122691907124  0.6666690368471819  0.7499994186578365  1.0000
  Gd  Gd2       1.0  0.6666675149021087  0.33333241887379467  0.7499997883551189  1.0000
  Gd  Gd3       1.0  0.6666666352997411  0.33333425118794235  0.24999912973746066  1.0000
  Gd  Gd4       1.0  0.33333185528334025  0.6666652413504011  0.24999876006342708  1.0000
  Zn  Zn1       1.0  0.9999974723260081  0.4999973621994585  6.948900480000161e-08  1.0000
  Zn  Zn2       1.0  0.49999948435363706  6.887480381657384e-07  1.142415015900001e-06  1.0000
  Zn  Zn3       1.0  0.4999990320644159  0.49999784377945394  0.9999965066207469  1.0000
  Zn  Zn4       1.0  0.5000014016990876  0.5000005467183541  0.4999989627373156  1.0000
  Zn  Zn5       1.0  0.500001172388771  0.9999993842058574  0.4999992391720981  1.0000
  Zn  Zn6       1.0  0.99999990919968  0.49999946575037063  0.5000001051545128  1.0000
  H   H1        1.0  0.18318258769396334  0.6400016946966575  0.9499662208070775  1.0000
  H   H2        1.0  0.45681941768757645  0.8168176518965001  0.9499672467647998  1.0000
  H   H3        1.0  0.35999744112922355  0.5431783829642924  0.9499683993460268  1.0000
  H   H4        1.0  0.816817406914659  0.35999884463950627  0.949966857974012  1.0000
  H   H5        1.0  0.5431815537760442  0.18318465715425697  0.94996645495921  1.0000
  H   H6        1.0  0.6400020792858142  0.4568185107160191  0.9499659253352066  1.0000
  H   H7        1.0  0.5431811360705794  0.35999904481057143  0.5500345118576819  1.0000
  H   H8        1.0  0.6400023779303935  0.18318299784014883  0.5500341709419274  1.0000
  H   H9        1.0  0.8168159622383868  0.4568177778333649  0.5500339237487282  1.0000
  H   H10       1.0  0.4568198146417257  0.6400012389120492  0.5500326922413168  1.0000
  H   H11       1.0  0.3599970932752753  0.8168173921020028  0.5500336560966161  1.0000
  H   H12       1.0  0.18318419561217072  0.5431832987495753  0.5500345262351588  1.0000
  H   H13       1.0  0.8168162798417882  0.35999784146022773  0.05003419643903581  1.0000
  H   H14       1.0  0.5431815097789396  0.18318394418560763  0.05003379342713291  1.0000
  H   H15       1.0  0.6400022192741446  0.45682036032798845  0.05003264085051031  1.0000
  H   H16       1.0  0.1831824374721902  0.6400024612348291  0.05003293632480421  1.0000
  H   H17       1.0  0.4568176039737254  0.8168159620735839  0.050035208174684015  1.0000
  H   H18       1.0  0.3599987704101792  0.5431790432857967  0.05003324603400471  1.0000
  H   H19       1.0  0.4568197913978836  0.640002551270115  0.4499671512793456  1.0000
  H   H20       1.0  0.35999619939720884  0.8168154552415106  0.44996686925171064  1.0000
  H   H21       1.0  0.1831835919422601  0.5431824449643158  0.4499671164427285  1.0000
  H   H22       1.0  0.543180822612726  0.359999274097689  0.4499677250079302  1.0000
  H   H23       1.0  0.6400024609053646  0.183182830695678  0.4499673840948334  1.0000
  H   H24       1.0  0.8168164416422814  0.45681721426016253  0.4499658910140881  1.0000
  H   H25       1.0  0.17094045796765303  0.3585836078989929  0.845775767461433  1.0000
  H   H26       1.0  0.18764147382831456  0.829058909098883  0.8457761968905404  1.0000
  H   H27       1.0  0.6414184892873037  0.8123594682050098  0.8457759834030514  1.0000
  H   H28       1.0  0.8290588838911076  0.6414174089084811  0.8457765673826287  1.0000
  H   H29       1.0  0.8123577618096789  0.17094358721254835  0.84577676089355  1.0000
  H   H30       1.0  0.3585832311645163  0.18763917001579974  0.8457751055667801  1.0000
  H   H31       1.0  0.8123573740846554  0.6414154641673592  0.6542240035378344  1.0000
  H   H32       1.0  0.358583804331559  0.1709406877082956  0.6542226538677482  1.0000
  H   H33       1.0  0.8290579036552401  0.18764157912203688  0.6542248847399394  1.0000
  H   H34       1.0  0.1876409801521817  0.35858347145063624  0.6542245674345895  1.0000
  H   H35       1.0  0.6414184857696409  0.8290598051880949  0.6542240482783017  1.0000
  H   H36       1.0  0.17094142743854218  0.812359126209124  0.6542249321205063  1.0000
  H   H37       1.0  0.8290594926399638  0.6414162184713779  0.1542234038973689  1.0000
  H   H38       1.0  0.8123587669933131  0.17094200034243567  0.15422422035604916  1.0000
  H   H39       1.0  0.3585826506227008  0.18763916886775442  0.1542244338539476  1.0000
  H   H40       1.0  0.17093958721181926  0.358582523679992  0.15422384986081286  1.0000
  H   H41       1.0  0.18764208258497198  0.8290577186560739  0.1542255251856872  1.0000
  H   H42       1.0  0.6414157425900555  0.8123588866385492  0.15422406579421025  1.0000
  H   H43       1.0  0.18764120324099307  0.3585829889157283  0.345776413710695  1.0000
  H   H44       1.0  0.6414154596331229  0.8290584520198649  0.3457765174908119  1.0000
  H   H45       1.0  0.17094136031529686  0.8123575606018394  0.34577615545393314  1.0000
  H   H46       1.0  0.8123599473045716  0.6414181246386123  0.3457733580318135  1.0000
  H   H47       1.0  0.3585850042792629  0.17094197488512466  0.3457763689769849  1.0000
  H   H48       1.0  0.8290591035931884  0.18764286630599983  0.34577548512365314  1.0000
  H   H49       1.0  0.0777876973142994  0.3549607608212709  0.7708413834921829  1.0000
  H   H50       1.0  0.27717198705730073  0.9222123309572866  0.7708427726576591  1.0000
  H   H51       1.0  0.6450404289565908  0.7228290120897684  0.7708422147181084  1.0000
  H   H52       1.0  0.9222120741768338  0.6450383270137581  0.7708440640292766  1.0000
  H   H53       1.0  0.7228279684212282  0.07778931945693315  0.7708426748562901  1.0000
  H   H54       1.0  0.3549597389615187  0.27716967931795733  0.7708413639707036  1.0000
  H   H55       1.0  0.7228270806167102  0.6450384489788377  0.72915774250243  1.0000
  H   H56       1.0  0.3549608196951227  0.07778709760480508  0.7291563814173048  1.0000
  H   H57       1.0  0.9222110930838242  0.277172462178754  0.7291596180553129  1.0000
  H   H58       1.0  0.2771727199291689  0.3549619129590554  0.729157715800824  1.0000
  H   H59       1.0  0.6450396674897902  0.9222139509781614  0.7291578309959876  1.0000
  H   H60       1.0  0.07778899768192087  0.7228289828258098  0.7291589549710411  1.0000
  H   H61       1.0  0.9222112764402723  0.6450372958330775  0.22915778786880744  1.0000
  H   H62       1.0  0.7228282537682277  0.07778857848118315  0.22915889047913404  1.0000
  H   H63       1.0  0.35496266465167997  0.27717316442073786  0.22915571075409966  1.0000
  H   H64       1.0  0.07778718979760407  0.3549608127072617  0.22915822205480654  1.0000
  H   H65       1.0  0.27717266884103237  0.922211193547092  0.22916023417337786  1.0000
  H   H66       1.0  0.6450388383641367  0.72282877376513  0.22915905327783295  1.0000
  H   H67       1.0  0.2771714967069912  0.3549600041056707  0.27084205180099735  1.0000
  H   H68       1.0  0.645037757626625  0.922211355481139  0.2708427899410212  1.0000
  H   H69       1.0  0.07778885753550221  0.7228273641830543  0.2708432909741134  1.0000
  H   H70       1.0  0.7228292905994421  0.6450399733436784  0.2708389637782673  1.0000
  H   H71       1.0  0.35496046711106993  0.0777884379671221  0.2708432091906161  1.0000
  H   H72       1.0  0.9222115333498098  0.27717300968932096  0.2708414622731184  1.0000
  C   C1        1.0  0.13157474555921309  0.4810287115094526  0.8608056579871575  1.0000
  C   C2        1.0  0.3494478048800429  0.8684198309386418  0.8608027016914124  1.0000
  C   C3        1.0  0.5189910372609035  0.6505513003715181  0.8608114695129389  1.0000
  C   C4        1.0  0.8684371278236612  0.5189886380471835  0.8608143682040039  1.0000
  C   C5        1.0  0.6505476175090124  0.13157551763050893  0.8608104721155814  1.0000
  C   C6        1.0  0.4810135524073402  0.34944449393285754  0.8608073108309429  1.0000
  C   C7        1.0  0.6505440994308174  0.5189792375647003  0.639187173224464  1.0000
  C   C8        1.0  0.48102200676240875  0.131572744635463  0.6391921691186085  1.0000
  C   C9        1.0  0.8684253023794497  0.34945338433708184  0.6391922200815119  1.0000
  C   C10       1.0  0.3494463173292033  0.48101113081613533  0.639191214611941  1.0000
  C   C11       1.0  0.5189856823014832  0.8684333102897098  0.6391887105092453  1.0000
  C   C12       1.0  0.13157964013612378  0.6505499240020923  0.6391961348866391  1.0000
  C   C13       1.0  0.868424673936758  0.5189785123864399  0.13919413629131586  1.0000
  C   C14       1.0  0.6505481605312369  0.13156887449734025  0.13919024023768867  1.0000
  C   C15       1.0  0.4810200627685718  0.3494469895918543  0.1391864559999121  1.0000
  C   C16       1.0  0.1315731224513783  0.481021487939323  0.13919227849961405  1.0000
  C   C17       1.0  0.34945304822105777  0.868419473776413  0.13919555165729497  1.0000
  C   C18       1.0  0.5189763887546662  0.6505461158866199  0.13918812285124463  1.0000
  C   C19       1.0  0.34944906250237306  0.4810177644752189  0.36080888339383693  1.0000
  C   C20       1.0  0.5189801100025874  0.8684276621518947  0.36080887108131077  1.0000
  C   C21       1.0  0.13157490998412394  0.6505530466942134  0.3608081971473851  1.0000
  C   C22       1.0  0.6505560118636637  0.5189863169732903  0.3608042190922093  1.0000
  C   C23       1.0  0.4810238812954922  0.13157612908027272  0.36080672318225754  1.0000
  C   C24       1.0  0.8684217899878846  0.34944979614162014  0.3608055282581405  1.0000
  C   C25       1.0  0.1507177490168843  0.4076836149007121  0.8058061358969439  1.0000
  C   C26       1.0  0.25696231727469154  0.8492817938533931  0.805804481667636  1.0000
  C   C27       1.0  0.5923186058852183  0.7430354779220568  0.8058060040935617  1.0000
  C   C28       1.0  0.8492824255123567  0.5923178752830156  0.8058080143145362  1.0000
  C   C29       1.0  0.7430360875241463  0.15071871948605065  0.8058059308700792  1.0000
  C   C30       1.0  0.40768355080034974  0.25696403010945096  0.8058056543508201  1.0000
  C   C31       1.0  0.7430346972826812  0.5923170177968661  0.6941945648271429  1.0000
  C   C32       1.0  0.40768367829056723  0.15071702272572915  0.6941916724789863  1.0000
  C   C33       1.0  0.849281478551646  0.25696301928577747  0.6941966309384713  1.0000
  C   C34       1.0  0.25696528064921853  0.407683107937075  0.6941934366714548  1.0000
  C   C35       1.0  0.5923180693463618  0.8492840798710545  0.6941919684070117  1.0000
  C   C36       1.0  0.15071918603879209  0.7430377930789619  0.6941963541211964  1.0000
  C   C37       1.0  0.8492804318739927  0.592315234615384  0.19419365840381894  1.0000
  C   C38       1.0  0.7430368404692231  0.15071882537872494  0.19419531263093862  1.0000
  C   C39       1.0  0.407683220661859  0.25696384579720194  0.19419254432835942  1.0000
  C   C40       1.0  0.1507178153151186  0.4076830341540258  0.19419427176735843  1.0000
  C   C41       1.0  0.2569642595260506  0.8492807104455979  0.19419635521690282  1.0000
  C   C42       1.0  0.5923171926748694  0.7430350033963222  0.19419413995841245  1.0000
  C   C43       1.0  0.25696485689406506  0.4076832050036644  0.3058052294741032  1.0000
  C   C44       1.0  0.5923163785358627  0.849281324142105  0.30580625299469233  1.0000
  C   C45       1.0  0.15071818185561622  0.7430357240036545  0.3058056551482764  1.0000
  C   C46       1.0  0.7430346699564506  0.5923167184347234  0.3058051117422451  1.0000
  C   C47       1.0  0.4076838349653825  0.15071928593278727  0.3058065800023045  1.0000
  C   C48       1.0  0.8492813449929388  0.25696419943616206  0.30580406312296304  1.0000
  O   O1        1.0  0.14892840392894147  0.6494823201309217  2.8179657150000006e-06  1.0000
  O   O2        1.0  0.5005525881995609  0.851073402027261  0.9999997510830956  1.0000
  O   O3        1.0  0.3505176680149731  0.499443452163483  0.9999966035534062  1.0000
  O   O4        1.0  0.8510710440231294  0.35051938217642253  0.999996353385335  1.0000
  O   O5        1.0  0.4994478366172571  0.1489300699875429  3.1579363977000012e-06  1.0000
  O   O6        1.0  0.6494817021646213  0.5005542080649977  7.602982780000033e-08  1.0000
  O   O7        1.0  0.4994467684434198  0.350519890427144  0.49999943684607484  1.0000
  O   O8        1.0  0.6494810441201794  0.14892754731002364  0.49999936271879625  1.0000
  O   O9        1.0  0.8510709032700845  0.5005516436102156  0.5000008234582937  1.0000
  O   O10       1.0  0.500554159021135  0.649481705656399  0.500000980400749  1.0000
  O   O11       1.0  0.3505161599254621  0.8510695324843457  0.5000029233645762  1.0000
  O   O12       1.0  0.1489267749710946  0.4994490818385772  0.5000008396700367  1.0000
  O   O13       1.0  0.05354984547486198  0.43524782533216927  0.9088582677701782  1.0000
  O   O14       1.0  0.3816894335398828  0.9464474755383208  0.9088615359403821  1.0000
  O   O15       1.0  0.5647521996633101  0.6183006797837436  0.9088607355890022  1.0000
  O   O16       1.0  0.9464473290314003  0.5647527183827421  0.9088659914613262  1.0000
  O   O17       1.0  0.6183065516659453  0.053554257472775646  0.908862100338034  1.0000
  O   O18       1.0  0.43524656056840877  0.3816982782091074  0.9088616548178409  1.0000
  O   O19       1.0  0.6183022497503217  0.56474915676926  0.5911379118250653  1.0000
  O   O20       1.0  0.43524687784229604  0.05354897380566104  0.5911364017997158  1.0000
  O   O21       1.0  0.9464475141467334  0.3816950151403663  0.5911390304638078  1.0000
  O   O22       1.0  0.38169848428446324  0.4352472929305122  0.5911387347700982  1.0000
  O   O23       1.0  0.5647546490405729  0.9464466830437815  0.5911346382948326  1.0000
  O   O24       1.0  0.05355102528823613  0.6183063757209767  0.5911407308333951  1.0000
  O   O25       1.0  0.9464502891064868  0.5647545636273892  0.09113654296537993  1.0000
  O   O26       1.0  0.6183064749845569  0.053552273056197953  0.09114075012992372  1.0000
  O   O27       1.0  0.43524730518340243  0.3816899793593649  0.09113158340127113  1.0000
  O   O28       1.0  0.05354937235868819  0.4352462373486007  0.0911362946142944  1.0000
  O   O29       1.0  0.38169535266531074  0.9464491083167916  0.09114267752232763  1.0000
  O   O30       1.0  0.5647502185765915  0.6183047196139526  0.09113751651966603  1.0000
  O   O31       1.0  0.3816983097394627  0.4352473141558947  0.40886250543677977  1.0000
  O   O32       1.0  0.5647532852068552  0.946447893556787  0.40886152367905043  1.0000
  O   O33       1.0  0.05355792961996276  0.6183103043563278  0.4088651244577336  1.0000
  O   O34       1.0  0.6183042906673605  0.5647593220876034  0.4088629283574718  1.0000
  O   O35       1.0  0.4352444309367201  0.05354989410518138  0.40886453307124543  1.0000
  O   O36       1.0  0.9464436161828117  0.38169052007657456  0.4088646699670377  1.0000
  O   O37       1.0  0.19605663406494517  0.5809674465362777  0.854216054055094  1.0000
  O   O38       1.0  0.38490876801363044  0.803944249987154  0.8542160107026149  1.0000
  O   O39       1.0  0.419034673440784  0.6150961486751784  0.8542198473621596  1.0000
  O   O40       1.0  0.8039449268410479  0.41903411200048174  0.8542224537404908  1.0000
  O   O41       1.0  0.6150952492442342  0.1960589720518088  0.8542193823708291  1.0000
  O   O42       1.0  0.5809672839038881  0.3849050134257083  0.8542205292714018  1.0000
  O   O43       1.0  0.6150904061753408  0.419033987824278  0.6457799943934648  1.0000
  O   O44       1.0  0.5809669906061501  0.19605674609988466  0.6457793381621928  1.0000
  O   O45       1.0  0.8039421086029249  0.3849051791737992  0.6457832616515875  1.0000
  O   O46       1.0  0.3849040370485355  0.5809674713047244  0.64577866594108  1.0000
  O   O47       1.0  0.4190347439398963  0.8039456614283084  0.6457799451401771  1.0000
  O   O48       1.0  0.19605825268652657  0.6150958550485512  0.6457853658268748  1.0000
  O   O49       1.0  0.8039396708649987  0.4190319056466407  0.14577751078640233  1.0000
  O   O50       1.0  0.6150921594431225  0.1960573461020943  0.14578191476378785  1.0000
  O   O51       1.0  0.5809637976562882  0.38490378391757224  0.14577870104597682  1.0000
  O   O52       1.0  0.19605798279350484  0.5809655019208435  0.14577983235495404  1.0000
  O   O53       1.0  0.3849068675285635  0.803941434729836  0.14578414960950437  1.0000
  O   O54       1.0  0.4190349390877303  0.6150939138534001  0.14578175682380853  1.0000
  O   O55       1.0  0.38490737828660565  0.5809652581205498  0.3542210457948515  1.0000
  O   O56       1.0  0.4190321955997194  0.8039383515394082  0.35422170204428494  1.0000
  O   O57       1.0  0.1960576580329132  0.6150920846059621  0.35422089327556  1.0000
  O   O58       1.0  0.6150928483152852  0.41903404701579916  0.3542192595113037  1.0000
  O   O59       1.0  0.5809657870898874  0.19605633108824363  0.35421984915888066  1.0000
  O   O60       1.0  0.8039446284977741  0.3849092804570447  0.3542194120313057  1.0000
  O   O61       1.0  0.23490684451699187  0.4698194130996142  0.7500003210212187  1.0000
  O   O62       1.0  0.23491022226598807  0.7650924800238458  0.7500000035905644  1.0000
  O   O63       1.0  0.5301826382352033  0.7650933130260144  0.7499991772792642  1.0000
  O   O64       1.0  0.7650908142342844  0.5301817524064492  0.750000754824143  1.0000
  O   O65       1.0  0.7650902892777863  0.2349099525471275  0.750000449315735  1.0000
  O   O66       1.0  0.46981877238719244  0.23490684718353105  0.749998160911922  1.0000
  O   O67       1.0  0.7650916265800872  0.5301805194931362  0.24999822738691801  1.0000
  O   O68       1.0  0.7650913918395545  0.2349098027033422  0.24999979071139228  1.0000
  O   O69       1.0  0.46981731237046626  0.2349065133457842  0.24999937113443593  1.0000
  O   O70       1.0  0.23490873994636272  0.469818470391232  0.25000028536730673  1.0000
  O   O71       1.0  0.23490926490480737  0.765090270249125  0.25000121382082346  1.0000
  O   O72       1.0  0.530180597794356  0.7650908130435214  0.24999914161641368  1.0000
