data_image0
_chemical_formula_structural       AlH15C27S3O15
_chemical_formula_sum              "Al1 H15 C27 S3 O15"
_cell_length_a       4.221198364249152
_cell_length_b       15.815905650642518
_cell_length_c       15.808781146749784
_cell_angle_alpha    120.19849448770078
_cell_angle_beta     84.4422362410264
_cell_angle_gamma    94.00884270070803

_space_group_name_H-M_alt    "P 1"
_space_group_IT_number       1

loop_
  _space_group_symop_operation_xyz
  'x, y, z'

loop_
  _atom_site_type_symbol
  _atom_site_label
  _atom_site_symmetry_multiplicity
  _atom_site_fract_x
  _atom_site_fract_y
  _atom_site_fract_z
  _atom_site_occupancy
  Al  Al1       1.0  0.8620671586477044  0.4998923947146494  0.5020032422195797  1.0000
  H   H1        1.0  0.5669316989897338  0.9338941730898539  0.08427699849778496  1.0000
  H   H2        1.0  0.5182035589488407  0.654184747586548  0.06967260774823808  1.0000
  H   H3        1.0  0.628985442598456  0.9174860610725656  0.3452506977594466  1.0000
  H   H4        1.0  0.6016158366907124  0.2543089671201598  0.26458241196706916  1.0000
  H   H5        1.0  0.7318116201661339  0.0800199238049899  0.1676146719953664  1.0000
  H   H6        1.0  0.3678385877984596  0.042537658015291406  0.4123091384313541  1.0000
  H   H7        1.0  0.3672502737635242  0.8704765326970403  0.9599135972989998  1.0000
  H   H8        1.0  0.5224593470417105  0.5136811067120419  0.7479284752029115  1.0000
  H   H9        1.0  0.6408198562408457  0.5937960453535284  0.9208648952830886  1.0000
  H   H10       1.0  0.8087689072407899  0.5973175162517138  0.1433179803535865  1.0000
  H   H11       1.0  0.22788355515545794  0.7256583844581711  0.46983640592385  1.0000
  H   H12       1.0  0.29467213661099123  0.8291228415751989  0.39286538185101705  1.0000
  H   H13       1.0  0.6602978286257654  0.29187483614337845  0.6022787787343802  1.0000
  H   H14       1.0  0.7264860085162823  0.8093923191155596  0.7099836181534586  1.0000
  H   H15       1.0  0.32936885605843713  0.399856238706647  0.19537239360982986  1.0000
  C   C1        1.0  0.3415359934894511  0.5933958394035841  0.6466491764321346  1.0000
  C   C2        1.0  0.4132481115960687  0.5497117121791105  0.40693480646642394  1.0000
  C   C3        1.0  0.3542358131856603  0.3555223914107799  0.4503655167483487  1.0000
  C   C4        1.0  0.555695836872026  0.7877930242509165  0.06271584421984494  1.0000
  C   C5        1.0  0.5751113413621027  0.890265025300252  0.11962333754717487  1.0000
  C   C6        1.0  0.5902444999272447  0.9384922105589196  0.22166343610095396  1.0000
  C   C7        1.0  0.6029137980743757  0.8817960422852877  0.2666205212380888  1.0000
  C   C8        1.0  0.5801779269261831  0.7795108276212874  0.21216251301454767  1.0000
  C   C9        1.0  0.5550591212384219  0.7333533606496447  0.11056720170356735  1.0000
  C   C10       1.0  0.5535108682886546  0.2074895802254133  0.2969043385299982  1.0000
  C   C11       1.0  0.6257735028786868  0.10862170967418187  0.24234288761569187  1.0000
  C   C12       1.0  0.5605341429673771  0.04606611328875229  0.281425365093682  1.0000
  C   C13       1.0  0.43362727241995463  0.0876048001123308  0.379003168230291  1.0000
  C   C14       1.0  0.3690551733828614  0.18686599278078828  0.4341943476267075  1.0000
  C   C15       1.0  0.42008457935077104  0.24807588581604284  0.3935518743441905  1.0000
  C   C16       1.0  0.41300902806583656  0.7926565897455261  0.915213144581031  1.0000
  C   C17       1.0  0.3590483403846462  0.7472618452814003  0.8160716062019658  1.0000
  C   C18       1.0  0.3890402133358607  0.6459779120507678  0.7545295106258791  1.0000
  C   C19       1.0  0.49013728234080395  0.5921892822963031  0.7948439443428156  1.0000
  C   C20       1.0  0.5548391753612593  0.6380792545240367  0.8932093893513481  1.0000
  C   C21       1.0  0.5117236888698146  0.7390752477563751  0.956224545821321  1.0000
  C   C22       1.0  0.6823648676899269  0.6270232329143469  0.21546780005176205  1.0000
  C   C23       1.0  0.6497953902275031  0.5693922194249055  0.25980761555021553  1.0000
  C   C24       1.0  0.4819401961478251  0.6045431062745337  0.352644423924495  1.0000
  C   C25       1.0  0.3601929581945811  0.6990589933007527  0.3987642590052899  1.0000
  C   C26       1.0  0.39968171441704214  0.7569941900212241  0.3553791667298256  1.0000
  C   C27       1.0  0.5584823741206435  0.7213409902512923  0.2620366199192006  1.0000
  S   S1        1.0  0.18078210348851795  0.22781985847016978  0.5536389598060154  1.0000
  S   S2        1.0  0.23014826137167435  0.8243011322925896  0.7748117147469243  1.0000
  S   S3        1.0  0.8257959554979096  0.4508664527259398  0.1841034070670062  1.0000
  O   O1        1.0  0.1143291423147446  0.3840723462285851  0.43002449953004873  1.0000
  O   O2        1.0  0.08532680307575193  0.5437389312566694  0.6182907884182994  1.0000
  O   O3        1.0  0.15021177447406597  0.5698297662752482  0.4592806464324255  1.0000
  O   O4        1.0  0.5572486433280375  0.4088523381431913  0.5118878568919882  1.0000
  O   O5        1.0  0.6179442724642998  0.4907087010854808  0.39960812530583917  1.0000
  O   O6        1.0  0.5749220105428634  0.6005792294990397  0.592968032908544  1.0000
  O   O7        1.0  0.4345705638138924  0.2757857049227326  0.6284217870873476  1.0000
  O   O8        1.0  0.03262964579167262  0.14534098522788952  0.557854779457081  1.0000
  O   O9        1.0  0.9681557734225523  0.3063394983267004  0.5710311113998827  1.0000
  O   O10       1.0  0.5228656704535268  0.8520645793102092  0.727194966085122  1.0000
  O   O11       1.0  0.09639157558259372  0.910730134280776  0.8574879544143029  1.0000
  O   O12       1.0  0.017821047580753202  0.7627848426809932  0.6958792889343639  1.0000
  O   O13       1.0  0.047073238065635806  0.4366636235064973  0.24250351010064009  1.0000
  O   O14       1.0  0.9687779523180852  0.44696162003851464  0.09592055569448375  1.0000
  O   O15       1.0  0.5624671821563751  0.3726090599041072  0.16158344445989312  1.0000
