data_image0
_chemical_formula_structural       Ag4P4H26C28N2O10
_chemical_formula_sum              "Ag4 P4 H26 C28 N2 O10"
_cell_length_a       5.79390218577361
_cell_length_b       10.991189934282525
_cell_length_c       13.077177517961985
_cell_angle_alpha    83.63018440534617
_cell_angle_beta     84.77005452360164
_cell_angle_gamma    86.92036556180533

_space_group_name_H-M_alt    "P 1"
_space_group_IT_number       1

loop_
  _space_group_symop_operation_xyz
  'x, y, z'

loop_
  _atom_site_type_symbol
  _atom_site_label
  _atom_site_symmetry_multiplicity
  _atom_site_fract_x
  _atom_site_fract_y
  _atom_site_fract_z
  _atom_site_occupancy
  Ag  Ag1       1.0  0.18166711375998554  0.46439626714975196  0.4223572698979155  1.0000
  Ag  Ag2       1.0  0.8183060544766932  0.5356073495720183  0.5776326663249023  1.0000
  Ag  Ag3       1.0  0.26478190774086136  0.7039069588793937  0.4718782628601303  1.0000
  Ag  Ag4       1.0  0.7351867813077178  0.2960814867834785  0.528126556082718  1.0000
  P   P1        1.0  0.20484041656826696  0.3393388372846289  0.6672440736860352  1.0000
  P   P2        1.0  0.7951321975916201  0.6606667887022583  0.3327510033487471  1.0000
  P   P3        1.0  0.30206357499111663  0.5861775852145358  0.7218780582376212  1.0000
  P   P4        1.0  0.6979176039190662  0.4138246559123645  0.2781240601440516  1.0000
  H   H1        1.0  0.6034429407238023  0.259674782555429  0.7864339097518283  1.0000
  H   H2        1.0  0.3965372516657839  0.7403418604755174  0.2135589226706429  1.0000
  H   H3        1.0  0.7071608866568226  0.06061760481684792  0.8844866930699739  1.0000
  H   H4        1.0  0.2928285429783983  0.9394083602180744  0.1155078708279405  1.0000
  H   H5        1.0  0.46041397369184267  0.8810833838870521  0.8830795009850833  1.0000
  H   H6        1.0  0.5396124253011578  0.11893640870133741  0.11691551858558571  1.0000
  H   H7        1.0  0.11030236590347897  0.9025086615611644  0.7863758999484461  1.0000
  H   H8        1.0  0.889729381912808  0.09749283231062121  0.21362108125543242  1.0000
  H   H9        1.0  0.9977524891308605  0.10424683556585991  0.6932757090360938  1.0000
  H   H10       1.0  0.002245612107081689  0.8957487561746407  0.3067167594814392  1.0000
  H   H11       1.0  0.8461445067730935  0.6873753103293653  0.7962324667750879  1.0000
  H   H12       1.0  0.153848396745488  0.312624583609612  0.20377954726963307  1.0000
  H   H13       1.0  0.7019127885991027  0.7569856122287817  0.9670616528208743  1.0000
  H   H14       1.0  0.2980933887282263  0.2430007403766369  0.0329553820676409  1.0000
  H   H15       1.0  0.9504676190835044  0.7275630123616069  0.11271648446319917  1.0000
  H   H16       1.0  0.04956004698085081  0.2724213771960251  0.8872925301239718  1.0000
  H   H17       1.0  0.4991186040528958  0.5705612685247632  0.9174207714013963  1.0000
  H   H18       1.0  0.500879727844506  0.4294316006891918  0.08257276988654638  1.0000
  H   H19       1.0  0.3459738089244624  0.629095236628885  0.08991770397070549  1.0000
  H   H20       1.0  0.6540493936245824  0.37088876765927375  0.9100807640689581  1.0000
  H   H21       1.0  0.29249987911622105  0.19037512461382286  0.4679804316935119  1.0000
  H   H22       1.0  0.707499933351194  0.8096187467499758  0.5320152490866975  1.0000
  H   H23       1.0  0.09168849407296163  0.17447117559929384  0.37542028608379513  1.0000
  H   H24       1.0  0.9083234926525564  0.8255183899847086  0.6245816771976466  1.0000
  H   H25       1.0  0.39670986505155537  0.1639752699821102  0.3400379889722132  1.0000
  H   H26       1.0  0.6032788056111684  0.8360215161608479  0.6599645512954099  1.0000
  C   C1        1.0  0.2923661945076291  0.19490775375603414  0.7346191357152349  1.0000
  C   C2        1.0  0.7076392659697675  0.8050980910938538  0.26537577412221214  1.0000
  C   C3        1.0  0.4937064601861891  0.18201721893998274  0.7877065394405137  1.0000
  C   C4        1.0  0.5062891083970628  0.8179952653654613  0.21229629660621188  1.0000
  C   C5        1.0  0.553200947893167  0.06949304922472521  0.8415500476946178  1.0000
  C   C6        1.0  0.44680373170334065  0.9305314289380036  0.1584519194069927  1.0000
  C   C7        1.0  0.41524420203111845  0.9690777340415554  0.8408761160865624  1.0000
  C   C8        1.0  0.5847860386622799  0.0309340633580959  0.1591266067434276  1.0000
  C   C9        1.0  0.21756366034065164  0.9810300620628215  0.7861228224294836  1.0000
  C   C10       1.0  0.7824693272501051  0.018974291204216304  0.21387685612818072  1.0000
  C   C11       1.0  0.1552229468018496  0.09369707174304413  0.7335154135702241  1.0000
  C   C12       1.0  0.844786648385032  0.9062988953360931  0.26648587783995475  1.0000
  C   C13       1.0  0.18357856154565164  0.6269318817131194  0.8458715881532728  1.0000
  C   C14       1.0  0.8164063008911812  0.3730667919772799  0.15413313562837766  1.0000
  C   C15       1.0  0.9576074250681118  0.6784323275917431  0.8597726106623612  1.0000
  C   C16       1.0  0.04238438518054719  0.32156376566097583  0.1402360451852829  1.0000
  C   C17       1.0  0.8764468414755343  0.7158158037981863  0.9557320024045666  1.0000
  C   C18       1.0  0.1235600262970422  0.2841667329699504  0.044280861460613594  1.0000
  C   C19       1.0  0.016087790686270875  0.6990401326376131  0.038095093270079886  1.0000
  C   C20       1.0  0.9839210361811511  0.3009483952743253  0.9619040156952039  1.0000
  C   C21       1.0  0.3233969910571801  0.610010903857166  0.9288651903566604  1.0000
  C   C22       1.0  0.6766051186578679  0.38997748196589305  0.0711310593130392  1.0000
  C   C23       1.0  0.2385932671498097  0.6445468838920547  0.02505992400334381  1.0000
  C   C24       1.0  0.7614161293189812  0.3554500498147136  0.9749427920752042  1.0000
  C   C25       1.0  0.26253299301374966  0.011665833835529304  0.4324954801509548  1.0000
  C   C26       1.0  0.7374872063178162  0.9883170567707042  0.5674978420973177  1.0000
  C   C27       1.0  0.2606246721697972  0.1413325928925744  0.4021257077474161  1.0000
  C   C28       1.0  0.7393806815582735  0.8586550493670161  0.5978751298521487  1.0000
  N   N1        1.0  0.26275955647463434  0.9066364567527996  0.45705637388776676  1.0000
  N   N2        1.0  0.7372559119931951  0.09335921150707802  0.5429348407929027  1.0000
  O   O1        1.0  0.29531952227713276  0.434918767698747  0.7378674793727455  1.0000
  O   O2        1.0  0.7046448115385859  0.5650831435425874  0.26212825459504785  1.0000
  O   O3        1.0  0.941194415567651  0.34989160538517455  0.6697271987518008  1.0000
  O   O4        1.0  0.0587849983663915  0.6501167331974217  0.3302650818577106  1.0000
  O   O5        1.0  0.3352378528746058  0.3548256336977644  0.5595237144833193  1.0000
  O   O6        1.0  0.6647499154224475  0.6451837731137007  0.440471273438817  1.0000
  O   O7        1.0  0.5531851228401264  0.6170087998371941  0.7040582842147245  1.0000
  O   O8        1.0  0.44679846788086747  0.3829887703568745  0.2959412447743617  1.0000
  O   O9        1.0  0.1382152403899752  0.6355762926241654  0.6409349412977932  1.0000
  O   O10       1.0  0.8617703903663171  0.3644298202334255  0.3590719649287522  1.0000
