data_image0
_chemical_formula_structural       Zn4H39C68N20O8F
_chemical_formula_sum              "Zn4 H39 C68 N20 O8 F1"
_cell_length_a       16.22744170164812
_cell_length_b       16.34770503459059
_cell_length_c       19.214461905049323
_cell_angle_alpha    99.56868791792252
_cell_angle_beta     117.92050820689558
_cell_angle_gamma    102.77348651057383

_space_group_name_H-M_alt    "P 1"
_space_group_IT_number       1

loop_
  _space_group_symop_operation_xyz
  'x, y, z'

loop_
  _atom_site_type_symbol
  _atom_site_label
  _atom_site_symmetry_multiplicity
  _atom_site_fract_x
  _atom_site_fract_y
  _atom_site_fract_z
  _atom_site_occupancy
  Zn  Zn1       1.0  0.6519995546797049  0.07637399670453962  0.9900715753773143  1.0000
  Zn  Zn2       1.0  0.34401108295211436  0.875379410769021  0.0014237265453401597  1.0000
  Zn  Zn3       1.0  0.5705212238950279  0.9834925320873964  0.12776923037748128  1.0000
  Zn  Zn4       1.0  0.402322050854643  0.998378730368813  0.9005282153154894  1.0000
  H   H1        1.0  0.15829910632830035  0.7057703059716471  0.836524984428621  1.0000
  H   H2        1.0  0.6774175567590532  0.8539637269161845  0.06911832053279446  1.0000
  H   H3        1.0  0.3540406800722025  0.8374057933916248  0.7525709164831156  1.0000
  H   H4        1.0  0.3618612326694689  0.7141095439255525  0.8967016766378465  1.0000
  H   H5        1.0  0.6739557172351667  0.9297130494505764  0.8752764777728926  1.0000
  H   H6        1.0  0.219171824527514  0.8931267367834366  0.7173919815700174  1.0000
  H   H7        1.0  0.9441633395617329  0.9835985114912164  0.13860465773974087  1.0000
  H   H8        1.0  0.6725826567056713  0.25947830067750743  0.9494864981427541  1.0000
  H   H9        1.0  0.29661194830505616  0.7824955153402159  0.13728807663155604  1.0000
  H   H10       1.0  0.7181314871814876  0.1454695784095179  0.28981899838070296  1.0000
  H   H11       1.0  0.3723043387680677  0.16943529809864086  0.9623119606230973  1.0000
  H   H12       1.0  0.2373910898164267  0.9891383757331977  0.05079937010120955  1.0000
  H   H13       1.0  0.7604601650262808  0.2575436716831803  0.11529168425265361  1.0000
  H   H14       1.0  0.3526144522181627  0.1659082330545871  0.8341889743583978  1.0000
  H   H15       1.0  0.5947507021431305  0.9715073367165914  0.298466019855823  1.0000
  H   H16       1.0  0.3251349450703885  0.7397341549784144  0.4951346518855502  1.0000
  H   H17       1.0  0.3414933369561553  0.7602436646750872  0.6312265096566706  1.0000
  H   H18       1.0  0.6598017884328443  0.8708511521278482  0.7510618977201063  1.0000
  H   H19       1.0  0.6431209056272635  0.8473780692807936  0.6153138839300497  1.0000
  H   H20       1.0  0.590796359162617  0.9343827221821002  0.5328335745738499  1.0000
  H   H21       1.0  0.5748027963908128  0.9672736978031792  0.4081314161617086  1.0000
  H   H22       1.0  0.3377286048629172  0.7171673804080781  0.2559890040730081  1.0000
  H   H23       1.0  0.35263049630592047  0.6853275366004041  0.3814761148467412  1.0000
  H   H24       1.0  0.9335733316607386  0.4911282170053966  0.5662940684809641  1.0000
  H   H25       1.0  0.01575831659815212  0.6155079770696474  0.6949198046185785  1.0000
  H   H26       1.0  0.18843067686208298  0.7600475611570161  0.611060241469012  1.0000
  H   H27       1.0  0.1068999729427844  0.635912913419894  0.4831730720366778  1.0000
  H   H28       1.0  0.8254608564323576  0.4072412602452644  0.2271183564230057  1.0000
  H   H29       1.0  0.883337208316469  0.25056697455863025  0.39349188369286753  1.0000
  H   H30       1.0  0.986887040831128  0.3866986850812637  0.5123579480849969  1.0000
  H   H31       1.0  0.3905258146497417  0.5905760233161529  0.8645702476885759  1.0000
  H   H32       1.0  0.7074989463736685  0.7237064497441851  0.02213908738883673  1.0000
  H   H33       1.0  0.32258925010339823  0.4297934525253595  0.8017708717074613  1.0000
  H   H34       1.0  0.7339917690896128  0.5821920045121588  0.008010542711304016  1.0000
  H   H35       1.0  0.3455004725832539  0.2860190556674241  0.7980053235061888  1.0000
  H   H36       1.0  0.0939270528218972  0.9133505571774592  0.809687311144046  1.0000
  H   H37       1.0  0.13398644375802599  0.19125466992893794  0.8622325179890922  1.0000
  H   H38       1.0  0.20248449026555446  0.19556762060174995  0.009648093732025083  1.0000
  H   H39       1.0  0.0871803500774249  0.14050049066899106  0.05447945299963659  1.0000
  C   C1        1.0  0.8395839891800989  0.07157784902878458  0.994689049846862  1.0000
  C   C2        1.0  0.18319688695141417  0.7626658473083694  0.820069146926393  1.0000
  C   C3        1.0  0.5968573993230989  0.8303103699350061  0.032294082457482845  1.0000
  C   C4        1.0  0.4336563515967525  0.8686586054123849  0.7940801532435415  1.0000
  C   C5        1.0  0.43578774589765595  0.7592681202369176  0.9443673514102358  1.0000
  C   C6        1.0  0.5968161619215661  0.9159443026619697  0.8567050902245086  1.0000
  C   C7        1.0  0.21509798659135274  0.8578112060664081  0.7594847076297313  1.0000
  C   C8        1.0  0.9025526430770654  0.0142355982817577  0.09453291341174716  1.0000
  C   C9        1.0  0.9133797219932802  0.033494067428136994  0.030189452403085744  1.0000
  C   C10       1.0  0.16226995523486198  0.768963119417691  0.7417287387653175  1.0000
  C   C11       1.0  0.5288689201185975  0.7495413709475259  0.9703957627186527  1.0000
  C   C12       1.0  0.5104348702821754  0.8608262152726951  0.7813478920327414  1.0000
  C   C13       1.0  0.594697526463719  0.2250559829880032  0.9249144850749859  1.0000
  C   C14       1.0  0.36958535647905677  0.8318698568320143  0.16539630678720837  1.0000
  C   C15       1.0  0.7191805253093121  0.1593213231712269  0.23683026533749546  1.0000
  C   C16       1.0  0.35155838253164273  0.11838634854176888  0.9864240541945861  1.0000
  C   C17       1.0  0.2824912400381265  0.026435014309463205  0.031364915110870584  1.0000
  C   C18       1.0  0.7390920146838764  0.21658085418972914  0.14728852205178797  1.0000
  C   C19       1.0  0.4314866076317757  0.17625004126698232  0.8645032869509138  1.0000
  C   C20       1.0  0.5208594437288028  0.9292856825822825  0.24781871844984957  1.0000
  C   C21       1.0  0.5117270043817614  0.25243175216186836  0.8888277308039464  1.0000
  C   C22       1.0  0.4476713522213771  0.8662973877531357  0.2490760855570925  1.0000
  C   C23       1.0  0.771289588695943  0.2366505692694929  0.23204089105321646  1.0000
  C   C24       1.0  0.2742096124112052  0.0986385313866052  0.001642232986846178  1.0000
  C   C25       1.0  0.39900888017801606  0.7671834080478137  0.5512410726885193  1.0000
  C   C26       1.0  0.40844018850913233  0.7798587591027014  0.6285161401442352  1.0000
  C   C27       1.0  0.5015707517463426  0.8232030102650114  0.7024030590316171  1.0000
  C   C28       1.0  0.5858815976323727  0.8418944203573773  0.6955054602234442  1.0000
  C   C29       1.0  0.5764351932892139  0.8290210627442601  0.6185447332302232  1.0000
  C   C30       1.0  0.4826096589177736  0.7968028611951465  0.5448531444013227  1.0000
  C   C31       1.0  0.5366037895483158  0.8856245622300347  0.4721684629449212  1.0000
  C   C32       1.0  0.5271892509598359  0.904164205774876  0.4015452928979144  1.0000
  C   C33       1.0  0.45506076942510976  0.8446529085163091  0.3221100040327227  1.0000
  C   C34       1.0  0.3929876880861017  0.765612978264862  0.3166915463903095  1.0000
  C   C35       1.0  0.40170650552636994  0.7474074788592516  0.3877353919237904  1.0000
  C   C36       1.0  0.47369347898159475  0.8071505783066825  0.46709401804135803  1.0000
  C   C37       1.0  0.9907594410563119  0.5497421858457087  0.5766805122817187  1.0000
  C   C38       1.0  0.03687796293380087  0.6200006991942572  0.6491140042955338  1.0000
  C   C39       1.0  0.10872860594803073  0.6973820388117036  0.6631916229982338  1.0000
  C   C40       1.0  0.13177324281865302  0.7013649477322584  0.6013951804828322  1.0000
  C   C41       1.0  0.08549207098424465  0.6310088129450335  0.5287705144367152  1.0000
  C   C42       1.0  0.013784218431382611  0.5536581377532812  0.5149659352863196  1.0000
  C   C43       1.0  0.917584976240654  0.47669689770942364  0.3575280587095904  1.0000
  C   C44       1.0  0.8596227719112262  0.40058123680753976  0.2891010135834833  1.0000
  C   C45       1.0  0.8411222117140653  0.3175511796866957  0.3007942852374796  1.0000
  C   C46       1.0  0.8905697731763806  0.3144429578343164  0.3826309355647126  1.0000
  C   C47       1.0  0.9488611491963183  0.3911142236623562  0.44970196784685607  1.0000
  C   C48       1.0  0.9611949185860451  0.4756539234172976  0.44004062325499405  1.0000
  C   C49       1.0  0.5459738675138793  0.6677320172158546  0.9478993086824374  1.0000
  C   C50       1.0  0.5050364932830931  0.33903045251367553  0.8838720874338293  1.0000
  C   C51       1.0  0.39691065534805137  0.4266905756728788  0.8373274812376578  1.0000
  C   C52       1.0  0.40977909632961473  0.34641070753979614  0.8357782122842963  1.0000
  C   C53       1.0  0.5848964516094526  0.4180386878265097  0.9281251760653504  1.0000
  C   C54       1.0  0.5766578536240272  0.5027775556030321  0.9304349870534949  1.0000
  C   C55       1.0  0.4788118087023604  0.5069040317171273  0.8860180568970151  1.0000
  C   C56       1.0  0.46627659256684256  0.5898104575061114  0.8959215888030629  1.0000
  C   C57       1.0  0.6433208462803817  0.6630655709668929  0.9852048938852817  1.0000
  C   C58       1.0  0.6584123995887834  0.5832742882396075  0.9771373806786129  1.0000
  C   C59       1.0  0.1196839526912399  0.05387456015150601  0.8296723886051396  1.0000
  C   C60       1.0  0.9734943242854258  0.01212154241905239  0.9961886629775166  1.0000
  C   C61       1.0  0.9740711016280202  0.9143725298348571  0.8861649653101795  1.0000
  C   C62       1.0  0.938304740284437  0.9289386755847886  0.9389670379223176  1.0000
  C   C63       1.0  0.056626666250792795  0.0765005144334552  0.007695845556227691  1.0000
  C   C64       1.0  0.09468506565732328  0.06160229404763841  0.9573022922624332  1.0000
  C   C65       1.0  0.04798099302573188  0.9810713889823433  0.8908486347607507  1.0000
  C   C66       1.0  0.08564759125621885  0.974088118170215  0.8338418307587148  1.0000
  C   C67       1.0  0.15178078511114315  0.13476401933579749  0.8803666871044771  1.0000
  C   C68       1.0  0.1867802204713841  0.13111500776965815  0.9687885884021624  1.0000
  N   N1        1.0  0.7905298405156528  0.0733249783769025  0.035454620558347395  1.0000
  N   N2        1.0  0.24507885201077784  0.8408365395165163  0.8792682427264253  1.0000
  N   N3        1.0  0.5466166685766751  0.8821442599931473  0.04259537076380577  1.0000
  N   N4        1.0  0.4715739453739261  0.9255664801804642  0.8698318920999455  1.0000
  N   N5        1.0  0.4475201759594753  0.838036571263373  0.9885836863486189  1.0000
  N   N6        1.0  0.5726249134408903  0.9546724575107033  0.9086790680919422  1.0000
  N   N7        1.0  0.26555462262803076  0.9003605706576465  0.8416639048858272  1.0000
  N   N8        1.0  0.8286039236602676  0.038069273497448805  0.0968258149120728  1.0000
  N   N9        1.0  0.5657451675179103  0.1410999447455481  0.9236867392702309  1.0000
  N   N10       1.0  0.39484189671806286  0.8710264972714227  0.11844938805993611  1.0000
  N   N11       1.0  0.6622136660388306  0.0982746896475106  0.16090251783533918  1.0000
  N   N12       1.0  0.3996390697901617  0.059352436425847095  0.001680297793399213  1.0000
  N   N13       1.0  0.3570554185219592  0.0030590918838982006  0.030566277937481307  1.0000
  N   N14       1.0  0.6747963179331932  0.1334762350893897  0.10531852898396472  1.0000
  N   N15       1.0  0.464499246330533  0.1106070213582839  0.8860992634682675  1.0000
  N   N16       1.0  0.48881973000959533  0.9318191788928518  0.1698613219539382  1.0000
  N   N17       1.0  0.809839117680106  0.1022359125773704  0.9243120384817942  1.0000
  N   N18       1.0  0.9257568526293412  0.5611237900990106  0.3387423712314757  1.0000
  N   N19       1.0  0.6856255990885031  0.41662683509333226  0.982048956011411  1.0000
  N   N20       1.0  0.8561804842185056  0.8574400306857373  0.9285337289526582  1.0000
  O   O1        1.0  0.7405934803826925  0.13289487641834088  0.905035043871628  1.0000
  O   O2        1.0  0.8527334789534678  0.09601256469271388  0.8853552169496909  1.0000
  O   O3        1.0  0.90287677869577  0.6160314262673054  0.37203778078946936  1.0000
  O   O4        1.0  0.9540789205749929  0.570321390837293  0.2898014741855092  1.0000
  O   O5        1.0  0.7088966221442661  0.4134774871917273  0.052648427444374674  1.0000
  O   O6        1.0  0.7399933400238436  0.4189317085836776  0.9533409423524759  1.0000
  O   O7        1.0  0.7744591161048002  0.8343200024010925  0.8635901018483236  1.0000
  O   O8        1.0  0.8752193158637026  0.8258274503020856  0.986232005169917  1.0000
  F   F1        1.0  0.9333388329372526  0.8342997214399689  0.8279163360220211  1.0000
