data_image0
_chemical_formula_structural       Cd4H44C24N4Cl8O4
_chemical_formula_sum              "Cd4 H44 C24 N4 Cl8 O4"
_cell_length_a       6.604674673814103
_cell_length_b       10.02333981728602
_cell_length_c       14.85129141728856
_cell_angle_alpha    90.0005586925285
_cell_angle_beta     90.00023992885805
_cell_angle_gamma    108.29184006804995

_space_group_name_H-M_alt    "P 1"
_space_group_IT_number       1

loop_
  _space_group_symop_operation_xyz
  'x, y, z'

loop_
  _atom_site_type_symbol
  _atom_site_label
  _atom_site_symmetry_multiplicity
  _atom_site_fract_x
  _atom_site_fract_y
  _atom_site_fract_z
  _atom_site_occupancy
  Cd  Cd1       1.0  0.5577172239577238  0.7829001944439257  0.2505718605636531  1.0000
  Cd  Cd2       1.0  0.9422854111076193  0.21710178867653712  0.7505719852242551  1.0000
  Cd  Cd3       1.0  0.44228743596123365  0.21710246886104304  0.7494308904558766  1.0000
  Cd  Cd4       1.0  0.05771521575683643  0.7828987771071922  0.24942807241625797  1.0000
  H   H1        1.0  0.7126586919564063  0.0140280032203322  0.10703582832618963  1.0000
  H   H2        1.0  0.787336267277972  0.9859671594797778  0.6070353393540062  1.0000
  H   H3        1.0  0.28732428967300905  0.9859641745930646  0.8929642292707669  1.0000
  H   H4        1.0  0.2126774683928403  0.0140386460130912  0.3929647183156107  1.0000
  H   H5        1.0  0.16872333142997323  0.10311291112743963  0.1771130355294801  1.0000
  H   H6        1.0  0.33127294947387054  0.8968859694177171  0.677113387323786  1.0000
  H   H7        1.0  0.8312641866590341  0.8968824149778954  0.8228903887925157  1.0000
  H   H8        1.0  0.6687377570643207  0.10312299443596372  0.3228886903798198  1.0000
  H   H9        1.0  0.2589405788499235  0.14959549585913834  0.06553644127201613  1.0000
  H   H10       1.0  0.24105768892672344  0.8504002901525641  0.5655363239585398  1.0000
  H   H11       1.0  0.7410378634501312  0.850396688021405  0.9344656363471914  1.0000
  H   H12       1.0  0.7589646191403219  0.14960760680668986  0.43446575375207175  1.0000
  H   H13       1.0  0.301583099570756  0.35298509534232647  0.17966729051002522  1.0000
  H   H14       1.0  0.19841221853162236  0.6470148846391979  0.6796684523282936  1.0000
  H   H15       1.0  0.6984034087702826  0.6470112835130524  0.8203327671039278  1.0000
  H   H16       1.0  0.8016070633034788  0.352993016352528  0.32033362537958965  1.0000
  H   H17       1.0  0.5088495751408003  0.3037724131432853  0.22953166710244235  1.0000
  H   H18       1.0  0.9911466210562312  0.6962291937791251  0.7295309897465858  1.0000
  H   H19       1.0  0.4911374365744195  0.6962250164520469  0.7704656971469533  1.0000
  H   H20       1.0  0.00887165395631232  0.30377660565889647  0.2704683945850093  1.0000
  H   H21       1.0  0.4874134375002868  0.39267069924824244  0.032908634979023105  1.0000
  H   H22       1.0  0.012583221359143726  0.6073255436648639  0.5329085256857198  1.0000
  H   H23       1.0  0.5125604683278057  0.6073183363280567  0.9670887292309021  1.0000
  H   H24       1.0  0.9874451333209536  0.39268865383695584  0.46709220536684637  1.0000
  H   H25       1.0  0.63448675407264  0.5018300443449634  0.11918175912034464  1.0000
  H   H26       1.0  0.865512967556569  0.498165334117232  0.6191802254285862  1.0000
  H   H27       1.0  0.3654952177902545  0.49816318620003136  0.8808129117422114  1.0000
  H   H28       1.0  0.13451438613325448  0.5018404532049487  0.3808171388848437  1.0000
  H   H29       1.0  0.8710541394516653  0.35092942099570484  0.13239177658962126  1.0000
  H   H30       1.0  0.628937255297686  0.6490609529428684  0.6323881125460178  1.0000
  H   H31       1.0  0.12892228629640806  0.6490617140996164  0.8676062609716129  1.0000
  H   H32       1.0  0.37109060185287757  0.3509458852053556  0.3676159851924937  1.0000
  H   H33       1.0  0.8677140781121011  0.4164488530218479  0.022396840726671006  1.0000
  H   H34       1.0  0.6322833626738672  0.5835437070820932  0.5223934254141582  1.0000
  H   H35       1.0  0.13226386074575916  0.5835422800510983  0.9776005234938128  1.0000
  H   H36       1.0  0.36773541870628185  0.41645998885978497  0.47761134564791524  1.0000
  H   H37       1.0  0.5930361680253214  0.1864614824935273  0.9784554539270973  1.0000
  H   H38       1.0  0.9069565422774418  0.8135310125786931  0.47845414376405426  1.0000
  H   H39       1.0  0.406951355846509  0.8135275349366752  0.0215419102951202  1.0000
  H   H40       1.0  0.09304962779497572  0.18647480297689611  0.5215438938723836  1.0000
  H   H41       1.0  0.8513309515606623  0.17932556784793263  0.002206556504575  1.0000
  H   H42       1.0  0.6486615791218002  0.8206666296038352  0.5022067495964394  1.0000
  H   H43       1.0  0.1486520300749348  0.8206666099716102  0.9977941744344891  1.0000
  H   H44       1.0  0.3513486298744937  0.17933497488394323  0.49779734810887544  1.0000
  C   C1        1.0  0.4484579492457996  0.056833153158194705  0.14513611986339475  1.0000
  C   C2        1.0  0.051540770628953715  0.9431651393480536  0.6451349220518384  1.0000
  C   C3        1.0  0.5515214998273521  0.9431611322268555  0.8548632643951636  1.0000
  C   C4        1.0  0.9484780077639599  0.05684171083607482  0.3548624422573142  1.0000
  C   C5        1.0  0.3112759597653039  0.15052316494165305  0.1361290059441558  1.0000
  C   C6        1.0  0.18872209130648096  0.849473912312668  0.6361287876577324  1.0000
  C   C7        1.0  0.6887090325590821  0.8494763702582945  0.8638730717051504  1.0000
  C   C8        1.0  0.8112946705962757  0.15053188914773594  0.363871270014613  1.0000
  C   C9        1.0  0.4246592447860777  0.3033057215404185  0.16543278644481776  1.0000
  C   C10       1.0  0.07533329197854507  0.6966918989530769  0.6654327050005051  1.0000
  C   C11       1.0  0.5753277640161018  0.6966948623709542  0.8345652511570595  1.0000
  C   C12       1.0  0.9246824631325694  0.30331180098436755  0.3345680260061388  1.0000
  C   C13       1.0  0.5774944258623904  0.3924629165638152  0.09537129741566022  1.0000
  C   C14       1.0  0.9224993094309681  0.6075330858803485  0.5953699126031468  1.0000
  C   C15       1.0  0.422494605256027  0.6075324074392086  0.9046227001180612  1.0000
  C   C16       1.0  0.07751492960166219  0.3924737703401889  0.4046261050176768  1.0000
  C   C17       1.0  0.7694640646549971  0.34444861391154563  0.0727752988652099  1.0000
  C   C18       1.0  0.7305312750970218  0.6555448702953798  0.5727732082932206  1.0000
  C   C19       1.0  0.23051438052100806  0.6555404156160523  0.927222065348815  1.0000
  C   C20       1.0  0.2694920426932654  0.3444619738892457  0.4272295427569618  1.0000
  C   C21       1.0  0.7106717989499387  0.19713848582347995  0.0326765650181002  1.0000
  C   C22       1.0  0.789318265068559  0.802854272127604  0.5326762226796549  1.0000
  C   C23       1.0  0.2893076559616645  0.8028494909417816  0.9673228192197245  1.0000
  C   C24       1.0  0.2106944609037456  0.19715258616449924  0.46732585501885654  1.0000
  N   N1        1.0  0.6284746126059417  0.08365574682832741  0.0983794946056662  1.0000
  N   N2        1.0  0.8715196842618412  0.9163382070205445  0.5983793739047985  1.0000
  N   N3        1.0  0.37150887242238195  0.9163374817496222  0.9016205629951985  1.0000
  N   N4        1.0  0.12849052177812584  0.0836665517402366  0.4016206837581749  1.0000
  Cl  Cl1       1.0  0.2245535567955558  0.6117450048630889  0.17630742063469285  1.0000
  Cl  Cl2       1.0  0.27545380164745137  0.3882580519723221  0.6763124079516418  1.0000
  Cl  Cl3       1.0  0.7754505997183045  0.38825660767118114  0.8236946570388142  1.0000
  Cl  Cl4       1.0  0.7245543879023589  0.6117456580647346  0.3236903430745245  1.0000
  Cl  Cl5       1.0  0.824979705129401  0.8189802819755061  0.11105169475265345  1.0000
  Cl  Cl6       1.0  0.6750228876265185  0.18102125263448  0.6110544644352275  1.0000
  Cl  Cl7       1.0  0.1750133590682523  0.18101713957334203  0.888947689528557  1.0000
  Cl  Cl8       1.0  0.3249868121076674  0.8189856096839421  0.38894693991843354  1.0000
  O   O1        1.0  0.39504501140391574  0.9533491323714217  0.2001241352397329  1.0000
  O   O2        1.0  0.10495522170499069  0.04665121513811241  0.7001225279370402  1.0000
  O   O3        1.0  0.6049470430952225  0.04664934197666071  0.7998772690703648  1.0000
  O   O4        1.0  0.8950544809298792  0.9533524928519697  0.2998768563799105  1.0000
