data_image0
_chemical_formula_structural       Cd4H12C18N14Cl6
_chemical_formula_sum              "Cd4 H12 C18 N14 Cl6"
_cell_length_a       6.874327925449503
_cell_length_b       7.383349676009685
_cell_length_c       14.11802479936274
_cell_angle_alpha    90.00016180570721
_cell_angle_beta     94.17145827525229
_cell_angle_gamma    90.00007397908848

_space_group_name_H-M_alt    "P 1"
_space_group_IT_number       1

loop_
  _space_group_symop_operation_xyz
  'x, y, z'

loop_
  _atom_site_type_symbol
  _atom_site_label
  _atom_site_symmetry_multiplicity
  _atom_site_fract_x
  _atom_site_fract_y
  _atom_site_fract_z
  _atom_site_occupancy
  Cd  Cd1       1.0  0.29298784031245617  0.8729720478865415  0.8414491368275634  1.0000
  Cd  Cd2       1.0  0.7070139473007729  0.3729684080990267  0.158551302223124  1.0000
  Cd  Cd3       1.0  0.8351561308972323  0.1184139789447016  0.9220809961039789  1.0000
  Cd  Cd4       1.0  0.16483933151113914  0.618409319512892  0.0779167596842356  1.0000
  H   H1        1.0  0.9138642149461944  0.5145306273895471  0.7899524771415827  1.0000
  H   H2        1.0  0.08613121311452689  0.0145129955494951  0.21004937199781176  1.0000
  H   H3        1.0  0.0238320128364862  0.47142186776898126  0.6271624219999339  1.0000
  H   H4        1.0  0.9761670445110225  0.9714061885328744  0.37283879761034194  1.0000
  H   H5        1.0  0.4260478415169757  0.3881411877266742  0.5202368612566701  1.0000
  H   H6        1.0  0.5739568189621806  0.8881526999405764  0.47976155512004226  1.0000
  H   H7        1.0  0.32077487431782004  0.41886203609331557  0.6831410493434902  1.0000
  H   H8        1.0  0.6792298371699417  0.9188755078964589  0.3168574146133949  1.0000
  H   H9        1.0  0.12432069901038996  0.42273318743059446  0.32428251271845443  1.0000
  H   H10       1.0  0.8756855923811385  0.9227298473703694  0.6757195429019447  1.0000
  H   H11       1.0  0.5485629871950053  0.30841015034777536  0.3858079264623058  1.0000
  H   H12       1.0  0.4514430222824187  0.8084032776834673  0.614191115932023  1.0000
  C   C1        1.0  0.5529234303573034  0.48003267074284367  0.8444136370561992  1.0000
  C   C2        1.0  0.44706973874733075  0.9800314647797207  0.1555853068842268  1.0000
  C   C3        1.0  0.6103191431121218  0.47057873928490307  0.7468003658036722  1.0000
  C   C4        1.0  0.3896769270336549  0.9705752800826485  0.2531986444393652  1.0000
  C   C5        1.0  0.8084064640436492  0.48480677138759615  0.7307998479397924  1.0000
  C   C6        1.0  0.19158817134872658  0.9847950405416763  0.2691991438593675  1.0000
  C   C7        1.0  0.8704218778618011  0.46177636777336767  0.6402124901197296  1.0000
  C   C8        1.0  0.1295800571868071  0.9617609863065366  0.359788086456831  1.0000
  C   C9        1.0  0.7338391321265972  0.4257274069405738  0.5645219508838437  1.0000
  C   C10       1.0  0.26615832191914274  0.9257220705782386  0.43547703036763596  1.0000
  C   C11       1.0  0.5344986654800294  0.41395895789322157  0.5788597837109464  1.0000
  C   C12       1.0  0.4655046485595022  0.9139605491423237  0.42114075929496414  1.0000
  C   C13       1.0  0.47400084224144495  0.4351771788939232  0.6702344962914566  1.0000
  C   C14       1.0  0.5259966275017546  0.9351810603830087  0.32976449960242593  1.0000
  C   C15       1.0  0.9947579055268391  0.40383993505605525  0.3630350078147869  1.0000
  C   C16       1.0  0.005248377519713194  0.9038367274031669  0.6369677275865725  1.0000
  C   C17       1.0  0.7012792966003046  0.3453921150809903  0.39189085421574527  1.0000
  C   C18       1.0  0.2987209868515777  0.8453890950500947  0.608109501648201  1.0000
  N   N1        1.0  0.4047776246864601  0.5752116934348308  0.8769975879870058  1.0000
  N   N2        1.0  0.5952163536738055  0.07521179626738929  0.12300147850592683  1.0000
  N   N3        1.0  0.4072857359343161  0.536608869166578  0.970076890391084  1.0000
  N   N4        1.0  0.5927082013570342  0.03660982528663229  0.029922825358319496  1.0000
  N   N5        1.0  0.5508899959002633  0.42548194797512195  0.9935850151822976  1.0000
  N   N6        1.0  0.4491031056574428  0.9254826547694746  0.0064145533162474  1.0000
  N   N7        1.0  0.6448006791098494  0.3869789468991272  0.9164243713517521  1.0000
  N   N8        1.0  0.3551923585190123  0.8869786028205267  0.0835751375147709  1.0000
  N   N9        1.0  0.8009899626534177  0.40173131630873365  0.4725667972024182  1.0000
  N   N10       1.0  0.19901627084363574  0.9017277482586364  0.5274345168497163  1.0000
  N   N11       1.0  0.990618794353601  0.43914800076517924  0.45480707224964334  1.0000
  N   N12       1.0  0.009387501269920101  0.9391470155379622  0.5451942997532697  1.0000
  N   N13       1.0  0.8197886117301748  0.34486784301581247  0.3213443613985375  1.0000
  N   N14       1.0  0.1802189626996338  0.8448637080438814  0.6786561960177266  1.0000
  Cl  Cl1       1.0  0.13730944035038556  0.1934226491289834  0.8331866498096687  1.0000
  Cl  Cl2       1.0  0.8626876049719882  0.693423342092366  0.16681126262478327  1.0000
  Cl  Cl3       1.0  0.9766229260045448  0.7694180467382312  0.9253345229737775  1.0000
  Cl  Cl4       1.0  0.0233771852482789  0.26940503472964383  0.0746642971349871  1.0000
  Cl  Cl5       1.0  0.6148180658991222  0.99295148298075  0.7775994481284272  1.0000
  Cl  Cl6       1.0  0.3851809811554786  0.4929464554108449  0.22240038675067808  1.0000
