data_image0
_chemical_formula_structural       Li4H28C16O8
_chemical_formula_sum              "Li4 H28 C16 O8"
_cell_length_a       4.831999998034618
_cell_length_b       9.3746892462709
_cell_length_c       10.738525186099402
_cell_angle_alpha    87.69031706974616
_cell_angle_beta     90.0001435184618
_cell_angle_gamma    89.99950023069853

_space_group_name_H-M_alt    "P 1"
_space_group_IT_number       1

loop_
  _space_group_symop_operation_xyz
  'x, y, z'

loop_
  _atom_site_type_symbol
  _atom_site_label
  _atom_site_symmetry_multiplicity
  _atom_site_fract_x
  _atom_site_fract_y
  _atom_site_fract_z
  _atom_site_occupancy
  Li  Li1       1.0  0.9111628462411048  0.35773244154434986  0.9951706604133007  1.0000
  Li  Li2       1.0  0.41114512721431135  0.1422636872412255  0.004823521558833499  1.0000
  Li  Li3       1.0  0.08884504784480636  0.6422609617997138  0.0048235478380292  1.0000
  Li  Li4       1.0  0.588850349568119  0.8577382522480971  0.9951706263560424  1.0000
  H   H1        1.0  0.0570873346517118  0.10443020869898585  0.6835126812938838  1.0000
  H   H2        1.0  0.5570956383573175  0.3955840159362154  0.31648940051524477  1.0000
  H   H3        1.0  0.9429226288174488  0.8955820226144696  0.3164916427012585  1.0000
  H   H4        1.0  0.4428915603526419  0.6044143098310497  0.6835159534575723  1.0000
  H   H5        1.0  0.29143458536967154  0.014296661243939492  0.7823241266024538  1.0000
  H   H6        1.0  0.7914569971001125  0.4857187462431582  0.21768004700239627  1.0000
  H   H7        1.0  0.7085381265043723  0.9857082385969846  0.21767652234930776  1.0000
  H   H8        1.0  0.20853847967351402  0.5142900089239076  0.7823317552346366  1.0000
  H   H9        1.0  0.7405046232504374  0.8916295435859849  0.6894690700130681  1.0000
  H   H10       1.0  0.24047098959496074  0.6083684116828747  0.3105439004612335  1.0000
  H   H11       1.0  0.25954673097217545  0.1083795553858309  0.3105334127208721  1.0000
  H   H12       1.0  0.7595141396841993  0.39162117162043586  0.689467105559757  1.0000
  H   H13       1.0  0.9724988422820784  0.7993295676007007  0.791197171000924  1.0000
  H   H14       1.0  0.4724523501124407  0.7006754647626108  0.20880293985801757  1.0000
  H   H15       1.0  0.027484217259477393  0.20067836131146777  0.2088081150984848  1.0000
  H   H16       1.0  0.5274934577472478  0.29932792013639176  0.7911809490045982  1.0000
  H   H17       1.0  0.060363053339401083  0.728550094356322  0.5723397745316844  1.0000
  H   H18       1.0  0.5603745626865688  0.7714425153105465  0.4276628029626579  1.0000
  H   H19       1.0  0.9396386320934056  0.27145239627162704  0.4276683451432531  1.0000
  H   H20       1.0  0.4396271227117622  0.22856031922734837  0.5723359971802253  1.0000
  H   H21       1.0  0.3493627349696169  0.8218046773726255  0.6303301232845726  1.0000
  H   H22       1.0  0.849357083204481  0.678187738343709  0.3696485230440842  1.0000
  H   H23       1.0  0.6506244637188343  0.1781967462673606  0.3696780039241077  1.0000
  H   H24       1.0  0.1506404631449527  0.32180332374899473  0.6303224089954753  1.0000
  H   H25       1.0  0.11940911239097562  0.9095229462518191  0.5250193697042105  1.0000
  H   H26       1.0  0.6194286691345923  0.5904734675077989  0.47496087951085997  1.0000
  H   H27       1.0  0.8805987814159906  0.0904963061948436  0.4749681338846443  1.0000
  H   H28       1.0  0.38059371187961216  0.4095028291742366  0.5250343813612018  1.0000
  C   C1        1.0  0.9252441700725169  0.0870594628318813  0.8693713749795577  1.0000
  C   C2        1.0  0.42525916774953026  0.4129277672319204  0.1306312695175151  1.0000
  C   C3        1.0  0.07474509790925768  0.9129626467856015  0.1306254255079438  1.0000
  C   C4        1.0  0.5747383788920074  0.5870517314369791  0.8693928517260615  1.0000
  C   C5        1.0  0.0695014831025631  0.022375341988656303  0.7598378592206955  1.0000
  C   C6        1.0  0.5695159271774769  0.47761883773141994  0.24015692312038076  1.0000
  C   C7        1.0  0.9304795069601892  0.9776233620912362  0.2401572432636385  1.0000
  C   C8        1.0  0.4304692020958782  0.5223669589848753  0.7598410657207282  1.0000
  C   C9        1.0  0.9603123469456631  0.8810118771881292  0.714994816887433  1.0000
  C   C10       1.0  0.46029902765277314  0.6189845617027601  0.285008137543727  1.0000
  C   C11       1.0  0.03973279886649549  0.11897505521240956  0.2850013005371252  1.0000
  C   C12       1.0  0.5397109359371725  0.38101397036761847  0.7149916247216551  1.0000
  C   C13       1.0  0.12991925154553027  0.8321663907315227  0.6046002776295436  1.0000
  C   C14       1.0  0.6299056987996179  0.6678363856088011  0.39537993721747  1.0000
  C   C15       1.0  0.8700845032841399  0.1678432585858189  0.3953872938284277  1.0000
  C   C16       1.0  0.37008563889190066  0.33216861737003706  0.6046179158843401  1.0000
  O   O1        1.0  0.0517872072181049  0.18881906186020814  0.9214098231924692  1.0000
  O   O2        1.0  0.5518328523222349  0.3111600064435152  0.0786204530572263  1.0000
  O   O3        1.0  0.9482041305047201  0.8111846677574305  0.0785936291698235  1.0000
  O   O4        1.0  0.44822057183144176  0.6888153616232272  0.9213999705674991  1.0000
  O   O5        1.0  0.6869934855624391  0.042410607488847105  0.9035964061861889  1.0000
  O   O6        1.0  0.18701978562132374  0.4575891871121981  0.09637888924977742  1.0000
  O   O7        1.0  0.31301233881236357  0.957604721705124  0.09641069104267071  1.0000
  O   O8        1.0  0.8129860389467679  0.5423992250695305  0.9036060371746686  1.0000
