data_image0
_chemical_formula_structural       Zn2H20C30N2O10
_chemical_formula_sum              "Zn2 H20 C30 N2 O10"
_cell_length_a       10.879677921462097
_cell_length_b       14.786354863293509
_cell_length_c       16.239738293486955
_cell_angle_alpha    90.001119456508
_cell_angle_beta     90.02141789925493
_cell_angle_gamma    89.9528491782761

_space_group_name_H-M_alt    "P 1"
_space_group_IT_number       1

loop_
  _space_group_symop_operation_xyz
  'x, y, z'

loop_
  _atom_site_type_symbol
  _atom_site_label
  _atom_site_symmetry_multiplicity
  _atom_site_fract_x
  _atom_site_fract_y
  _atom_site_fract_z
  _atom_site_occupancy
  Zn  Zn1       1.0  0.500224205664658  0.4065960973181575  0.5000235364365365  1.0000
  Zn  Zn2       1.0  0.5000700744152055  0.5932256570353404  0.5000150042138927  1.0000
  H   H1        1.0  0.10842379348868292  0.383301028297872  0.42200596397108103  1.0000
  H   H2        1.0  0.1079204898535195  0.6347590290609165  0.5542229079871104  1.0000
  H   H3        1.0  0.1073354387657091  0.48651336026856745  0.3674312246790308  1.0000
  H   H4        1.0  0.1078178818808837  0.6348131359497202  0.44595452626989374  1.0000
  H   H5        1.0  0.8931620422777798  0.48656950540915744  0.36745938711860754  1.0000
  H   H6        1.0  0.8926619864841572  0.6347166968996307  0.44590625261349703  1.0000
  H   H7        1.0  0.8923587660798447  0.38337322901929133  0.421979786176891  1.0000
  H   H8        1.0  0.892752721577054  0.634639601049777  0.5543371974120745  1.0000
  H   H9        1.0  0.108554577301085  0.38321843926131993  0.5779419893717375  1.0000
  H   H10       1.0  0.10751588615144671  0.4863766906707384  0.632602391913892  1.0000
  H   H11       1.0  0.8924941743523294  0.3832723792560629  0.5779613790576832  1.0000
  H   H12       1.0  0.8933470985221845  0.4863956377850585  0.6326034604253505  1.0000
  H   H13       1.0  0.49505637605283676  0.35416739497336647  0.07687120893201888  1.0000
  H   H14       1.0  0.5053137653563907  0.6454562420109655  0.07686980410778692  1.0000
  H   H15       1.0  0.4949806459020678  0.35416803315442985  0.9231872083478689  1.0000
  H   H16       1.0  0.5052426342797746  0.6454467343820981  0.9231777987660621  1.0000
  H   H17       1.0  0.3080287015491479  0.9149372599671113  0.4934407749056788  1.0000
  H   H18       1.0  0.307827365904437  0.08479753721410081  0.49343298406337505  1.0000
  H   H19       1.0  0.720650821295017  0.1552756793645926  0.5075377606865243  1.0000
  H   H20       1.0  0.7213617248579427  0.8444562366700626  0.5074325153070873  1.0000
  C   C1        1.0  0.5003573845102595  0.5008451009847903  0.338282076411673  1.0000
  C   C2        1.0  0.9292235478489349  0.45246833987526  0.5772677743481438  1.0000
  C   C3        1.0  0.4972956857592338  0.4175715871528995  0.9573386451690382  1.0000
  C   C4        1.0  0.5030573193210159  0.5820473962434961  0.9573402833761264  1.0000
  C   C5        1.0  0.5001804582336645  0.49980554729422283  0.9131577166700211  1.0000
  C   C6        1.0  0.5031035097012477  0.5820492787268634  0.0427171441506999  1.0000
  C   C7        1.0  0.4973308484144567  0.4175721199998252  0.04271858391366119  1.0000
  C   C8        1.0  0.5002720546113649  0.49980718892484083  0.0869030030717823  1.0000
  C   C9        1.0  0.5002044439196781  0.49980240349668753  0.8259875918160231  1.0000
  C   C10       1.0  0.5003363061559297  0.4998103093111439  0.17407128770847177  1.0000
  C   C11       1.0  0.5003076897145462  0.4998931037911732  0.2491426952308871  1.0000
  C   C12       1.0  0.5002182405689483  0.49990153748098015  0.7509186474935275  1.0000
  C   C13       1.0  0.39305366944499565  0.046401763567104105  0.49633986399279445  1.0000
  C   C14       1.0  0.3931681042969615  0.9533407023519803  0.4963438857820677  1.0000
  C   C15       1.0  0.261058676524172  0.4992164555978534  0.500009254713305  1.0000
  C   C16       1.0  0.5062496754931161  0.09313993268907692  0.5001677216990572  1.0000
  C   C17       1.0  0.5064633410167617  0.9065824990953644  0.500153226468278  1.0000
  C   C18       1.0  0.6201378213758632  0.0477869230176609  0.5040436236862078  1.0000
  C   C19       1.0  0.620277002693584  0.9518975713157262  0.5040193016927148  1.0000
  C   C20       1.0  0.5059119505750402  0.18879376303121384  0.5001911611121557  1.0000
  C   C21       1.0  0.5061641004605235  0.8109362771033516  0.5001475932632927  1.0000
  C   C22       1.0  0.500366810532853  0.5008417731151128  0.6617799115578791  1.0000
  C   C23       1.0  0.7398799182073006  0.4991720502126571  0.5000607320205502  1.0000
  C   C24       1.0  0.0716386541847811  0.45250499549487705  0.42274242498348247  1.0000
  C   C25       1.0  0.07145621879423911  0.5991649065897633  0.5000802973731524  1.0000
  C   C26       1.0  0.9291070822022646  0.452561087655802  0.4227511080666558  1.0000
  C   C27       1.0  0.9292289331054707  0.5991451726340532  0.5000933148251931  1.0000
  C   C28       1.0  0.07175143791442912  0.45242036427371357  0.5772584752530321  1.0000
  C   C29       1.0  0.12066142145645392  0.5016809070313855  0.5000226008976936  1.0000
  C   C30       1.0  0.8801306495368879  0.5016933158075362  0.5000424834514019  1.0000
  N   N1        1.0  0.5065775117758307  0.7323691289441571  0.5002080271390597  1.0000
  N   N2        1.0  0.5065289364927567  0.26736672609514056  0.5002348759473988  1.0000
  O   O1        1.0  0.5004035968860734  0.42391041155301684  0.37382643973241153  1.0000
  O   O2        1.0  0.5004364580626658  0.5783588792444618  0.3724205027373059  1.0000
  O   O3        1.0  0.31266310913204626  0.4218111462547824  0.5000048512670077  1.0000
  O   O4        1.0  0.3168077086831503  0.5749938621387116  0.4999890370065856  1.0000
  O   O5        1.0  0.5004568863772363  0.42390481551139914  0.6262424655989847  1.0000
  O   O6        1.0  0.5004715075881663  0.5783445316360131  0.6276272125287861  1.0000
  O   O7        1.0  0.6884243047356408  0.42178053179870295  0.500072663005028  1.0000
  O   O8        1.0  0.6838370857253723  0.5748695275838784  0.5000549135938712  1.0000
  O   O9        1.0  0.7302201830831907  0.08943203039640221  0.5078009961928274  1.0000
  O   O10       1.0  0.7304944058974459  0.9103246929917362  0.5077416075670411  1.0000
