data_image0
_chemical_formula_structural       Zn4H44C44N12O20
_chemical_formula_sum              "Zn4 H44 C44 N12 O20"
_cell_length_a       7.33068096614927
_cell_length_b       10.190572896963962
_cell_length_c       16.81661137557221
_cell_angle_alpha    89.99922816376878
_cell_angle_beta     100.89986344487302
_cell_angle_gamma    90.00142140930232

_space_group_name_H-M_alt    "P 1"
_space_group_IT_number       1

loop_
  _space_group_symop_operation_xyz
  'x, y, z'

loop_
  _atom_site_type_symbol
  _atom_site_label
  _atom_site_symmetry_multiplicity
  _atom_site_fract_x
  _atom_site_fract_y
  _atom_site_fract_z
  _atom_site_occupancy
  Zn  Zn1       1.0  0.626286439032107  0.7935060886483002  0.59584954533716  1.0000
  Zn  Zn2       1.0  0.37371908313167523  0.2935219569090465  0.9041479467023168  1.0000
  Zn  Zn3       1.0  0.37373323707674894  0.20648396179447565  0.40415431149684633  1.0000
  Zn  Zn4       1.0  0.6262742134258515  0.7064828128125455  0.0958541145749194  1.0000
  H   H1        1.0  0.2820034118076507  0.6483436874351797  0.481900639655855  1.0000
  H   H2        1.0  0.7179759975381967  0.14837447064386572  0.018092075661677098  1.0000
  H   H3        1.0  0.7180071510104538  0.3516375311635542  0.5181103317314637  1.0000
  H   H4        1.0  0.28202544292394544  0.8516195048764885  0.9819081600266062  1.0000
  H   H5        1.0  0.6492975938860683  0.538952253636616  0.3260852671555627  1.0000
  H   H6        1.0  0.35068270784410066  0.038920504738513315  0.17389531811027586  1.0000
  H   H7        1.0  0.3506806074055008  0.46107017951072743  0.6739002969986743  1.0000
  H   H8        1.0  0.6493100291232068  0.9610567886781213  0.8260995653732268  1.0000
  H   H9        1.0  0.16016615139307083  0.6238899673689603  0.8289585753342694  1.0000
  H   H10       1.0  0.8398210055691065  0.12390003567727355  0.6710360851451898  1.0000
  H   H11       1.0  0.8398313101019069  0.37609713900163666  0.17104376949758665  1.0000
  H   H12       1.0  0.16019617320444723  0.8760851082132394  0.3289711716398075  1.0000
  H   H13       1.0  0.4948286371418646  0.5672441195212131  0.8563596944534243  1.0000
  H   H14       1.0  0.5051379451278991  0.0672490144980102  0.6436435507404571  1.0000
  H   H15       1.0  0.5051546604548989  0.4327292485876058  0.14363811647474026  1.0000
  H   H16       1.0  0.4948520714937104  0.9327557550802438  0.3563695920042776  1.0000
  H   H17       1.0  0.6964405639346866  0.6479802917928339  0.7598710299827618  1.0000
  H   H18       1.0  0.3035262042417628  0.1480003284061908  0.7401351344868844  1.0000
  H   H19       1.0  0.30355407388432115  0.35199111377613695  0.24013052773816676  1.0000
  H   H20       1.0  0.6964372929309661  0.8520122913746422  0.2598744182526503  1.0000
  H   H21       1.0  0.31238360509132684  0.5288701625437611  0.3527676184307397  1.0000
  H   H22       1.0  0.6875924765192565  0.02887320734468091  0.14721633218506724  1.0000
  H   H23       1.0  0.6876110332657318  0.4711336258954761  0.6472339391937967  1.0000
  H   H24       1.0  0.3124028507603428  0.9710962357242895  0.8527763476979974  1.0000
  H   H25       1.0  0.9652637017360276  0.658059089292536  0.52182605232035  1.0000
  H   H26       1.0  0.03470713699396549  0.1580293310159178  0.9781571022066231  1.0000
  H   H27       1.0  0.03474170866066832  0.3419653067414218  0.4781542239661862  1.0000
  H   H28       1.0  0.9652850972330499  0.8419705321585201  0.021849051678579215  1.0000
  H   H29       1.0  0.9149107134051633  0.7936130654291775  0.4550115574509449  1.0000
  H   H30       1.0  0.08505926544447111  0.29358238279672133  0.044974563016140216  1.0000
  H   H31       1.0  0.08506156157089612  0.20641427421648478  0.544968843435619  1.0000
  H   H32       1.0  0.9149534221324841  0.7064145366909146  0.9550282231377172  1.0000
  H   H33       1.0  0.9691039644553071  0.6397050298586323  0.4153073581492921  1.0000
  H   H34       1.0  0.030867515755026904  0.13966964797626963  0.08467596394257271  1.0000
  H   H35       1.0  0.03088598713160451  0.3603242725738555  0.584669485989963  1.0000
  H   H36       1.0  0.9691357326144329  0.8603331591945391  0.9153297496267357  1.0000
  H   H37       1.0  0.7048994261645022  0.010257204987127002  0.5176675940677244  1.0000
  H   H38       1.0  0.2951014542850814  0.5102639267435907  0.9823396436892937  1.0000
  H   H39       1.0  0.29511502252965016  0.9897367705675966  0.48234007184591843  1.0000
  H   H40       1.0  0.7048904538458273  0.48973986166797095  0.017662323090178206  1.0000
  H   H41       1.0  0.8846874671123786  0.957869186260503  0.5813628130873455  1.0000
  H   H42       1.0  0.11531056463821443  0.4578803190683942  0.9186447186457232  1.0000
  H   H43       1.0  0.11532563983115551  0.04212871447386851  0.418645356470222  1.0000
  H   H44       1.0  0.8846817629081869  0.5421273944871958  0.08136263152869111  1.0000
  C   C1        1.0  0.40903997781990137  0.6376007767035149  0.4585103322372249  1.0000
  C   C2        1.0  0.5909435093244328  0.13759651101742784  0.04146846938797213  1.0000
  C   C3        1.0  0.5909671096191715  0.36240203054080683  0.5414914777400883  1.0000
  C   C4        1.0  0.4090532065937397  0.8623866702498618  0.9585243049548854  1.0000
  C   C5        1.0  0.6029916678720683  0.579104108092693  0.3784924321635828  1.0000
  C   C6        1.0  0.3969788144770448  0.07908601886055071  0.12148655987927982  1.0000
  C   C7        1.0  0.39699375484224925  0.42090654948520273  0.6214971934668656  1.0000
  C   C8        1.0  0.6030067941423382  0.9208961810201972  0.8785054584610424  1.0000
  C   C9        1.0  0.9767311680877669  0.7824898687002817  0.7113322939429028  1.0000
  C   C10       1.0  0.02324676950951952  0.28250604938205026  0.7886527013480349  1.0000
  C   C11       1.0  0.023275593189986003  0.21751293858476828  0.2886653289403612  1.0000
  C   C12       1.0  0.976739165613573  0.7174967577390563  0.21134350402499544  1.0000
  C   C13       1.0  0.1796915086311728  0.7451012777921663  0.725235328421995  1.0000
  C   C14       1.0  0.8203129173983895  0.24510787339166745  0.774769031514005  1.0000
  C   C15       1.0  0.8203143300016579  0.2548907351336923  0.2747681815556363  1.0000
  C   C16       1.0  0.1796987080926229  0.7548988590353006  0.22523784720400644  1.0000
  C   C17       1.0  0.2504580783757718  0.6617810689141735  0.789897092579601  1.0000
  C   C18       1.0  0.7495361245481788  0.16180349525886586  0.7101007110847635  1.0000
  C   C19       1.0  0.7495421599072144  0.338204074880082  0.21010544125945785  1.0000
  C   C20       1.0  0.2504821635579759  0.8382110876504502  0.2899030511755428  1.0000
  C   C21       1.0  0.4374380787803959  0.6278943383800241  0.8044926756691101  1.0000
  C   C22       1.0  0.5625459779507908  0.1279069903617653  0.6955136405887716  1.0000
  C   C23       1.0  0.562545358713919  0.37208589880502535  0.19550692970749145  1.0000
  C   C24       1.0  0.4374565810069981  0.8721007232063372  0.3045009508096329  1.0000
  C   C25       1.0  0.549309713676557  0.672346733217765  0.7517355861530819  1.0000
  C   C26       1.0  0.45066892498663697  0.1723720694274533  0.74827059109861  1.0000
  C   C27       1.0  0.4506779821724222  0.32762957879204185  0.24826549904982906  1.0000
  C   C28       1.0  0.5493212315162166  0.8276385879279432  0.2517443460974819  1.0000
  C   C29       1.0  0.30198947887870287  0.7884203242910676  0.6760700078716513  1.0000
  C   C30       1.0  0.6980174489134398  0.2884267431011979  0.8239300015969138  1.0000
  C   C31       1.0  0.6980209910928534  0.21158150160038505  0.323939767141738  1.0000
  C   C32       1.0  0.3019984350626714  0.7115839145433186  0.17607835692404458  1.0000
  C   C33       1.0  0.24852007715392688  0.8875013515665062  0.6089876188419512  1.0000
  C   C34       1.0  0.7514738458018329  0.387522012785695  0.8909976018173753  1.0000
  C   C35       1.0  0.7514993193391674  0.11248575501387852  0.3910126490630575  1.0000
  C   C36       1.0  0.2485199541481649  0.6124994391420487  0.10899318894133363  1.0000
  C   C37       1.0  0.6995831887946976  0.6487980889752053  0.4431834797643505  1.0000
  C   C38       1.0  0.300389469605939  0.1487718368293685  0.05679330295159702  1.0000
  C   C39       1.0  0.30040991212406  0.3512164939461187  0.5567983386704186  1.0000
  C   C40       1.0  0.6996061842099762  0.8512201760781507  0.9432035639583349  1.0000
  C   C41       1.0  0.8992105245230563  0.6866601084812204  0.4600288854001635  1.0000
  C   C42       1.0  0.10076112767258388  0.18662783701995522  0.039954062662175716  1.0000
  C   C43       1.0  0.10077850456567462  0.3133672312839622  0.5399538458071691  1.0000
  C   C44       1.0  0.8992350387966822  0.8133710449172684  0.9600493839465333  1.0000
  N   N1        1.0  0.5756069690519253  0.6839898206876783  0.4927715209165557  1.0000
  N   N2        1.0  0.42437190989011236  0.18399812838758586  0.007216700674746298  1.0000
  N   N3        1.0  0.42440529910954433  0.3160031736559219  0.5072258818423522  1.0000
  N   N4        1.0  0.5756253189259725  0.8160066413958875  0.9927826533230688  1.0000
  N   N5        1.0  0.4810841456985174  0.7484769761859341  0.6879601890117828  1.0000
  N   N6        1.0  0.5189151652547891  0.2484972509023607  0.8120479598795713  1.0000
  N   N7        1.0  0.5189231743705349  0.2515052237482252  0.31204461180832527  1.0000
  N   N8        1.0  0.4810895184292433  0.7515242009564463  0.18795844629121214  1.0000
  N   N9        1.0  0.4211902503813932  0.5730340790790649  0.3896083389040826  1.0000
  N   N10       1.0  0.5787973902515448  0.07302522845551353  0.11038079559821774  1.0000
  N   N11       1.0  0.5788013316045025  0.4269706906723201  0.6103894407784198  1.0000
  N   N12       1.0  0.42119941879035844  0.926954027603742  0.8896131750689096  1.0000
  O   O1        1.0  0.8750804760250972  0.7177493770843528  0.6529113258582699  1.0000
  O   O2        1.0  0.12490211271406793  0.21777982573490107  0.8470727328193708  1.0000
  O   O3        1.0  0.1249252228732232  0.28224557975624986  0.34709038964172834  1.0000
  O   O4        1.0  0.8751030275723081  0.7822465327466903  0.15292180471165304  1.0000
  O   O5        1.0  0.9246599364247031  0.8638366734598366  0.7576213407226151  1.0000
  O   O6        1.0  0.0753319050058252  0.3638625605185979  0.7423651226068702  1.0000
  O   O7        1.0  0.07534256630273009  0.1361582834112696  0.24237480236938327  1.0000
  O   O8        1.0  0.9246640752811996  0.6361480970310824  0.2576359313416178  1.0000
  O   O9        1.0  0.10930944727527962  0.958887712941582  0.6081274822326109  1.0000
  O   O10       1.0  0.890693426746722  0.458916632837557  0.8918708508863704  1.0000
  O   O11       1.0  0.8907086540779761  0.0411043001117335  0.3918738874697001  1.0000
  O   O12       1.0  0.1093162979578111  0.5410999126334701  0.10812935358254093  1.0000
  O   O13       1.0  0.3604767325749166  0.895795792697861  0.5587835949796303  1.0000
  O   O14       1.0  0.639547368268026  0.39582428345315895  0.9412131312952996  1.0000
  O   O15       1.0  0.6395484972566977  0.10419916428413255  0.4412206398425058  1.0000
  O   O16       1.0  0.36047744271876786  0.6042010938532627  0.05878572002965402  1.0000
  O   O17       1.0  0.7464739967188977  0.9617903683930109  0.5702525962530203  1.0000
  O   O18       1.0  0.2535215747972117  0.4617957914958382  0.9297571157783866  1.0000
  O   O19       1.0  0.2535404985697269  0.03820360715589292  0.42975566781691316  1.0000
  O   O20       1.0  0.746466913516528  0.5382021089952505  0.07025413801724062  1.0000
