data_image0
_chemical_formula_structural       Fe2H60C60N8O8
_chemical_formula_sum              "Fe2 H60 C60 N8 O8"
_cell_length_a       11.009772775142164
_cell_length_b       11.597284391076006
_cell_length_c       12.201194846976053
_cell_angle_alpha    73.09438215610413
_cell_angle_beta     65.01392944382802
_cell_angle_gamma    71.9754495409968

_space_group_name_H-M_alt    "P 1"
_space_group_IT_number       1

loop_
  _space_group_symop_operation_xyz
  'x, y, z'

loop_
  _atom_site_type_symbol
  _atom_site_label
  _atom_site_symmetry_multiplicity
  _atom_site_fract_x
  _atom_site_fract_y
  _atom_site_fract_z
  _atom_site_occupancy
  Fe  Fe1       1.0  0.5604960377172289  0.3220832759374801  0.7264052706053904  1.0000
  Fe  Fe2       1.0  0.4394962387966146  0.6779203666244271  0.273594868054289  1.0000
  H   H1        1.0  0.6964299556981998  0.4847386241653808  0.8703814746877967  1.0000
  H   H2        1.0  0.3035700935969815  0.5152576395618241  0.1296194053893415  1.0000
  H   H3        1.0  0.6493717970064311  0.39293265080792855  0.03713263131364647  1.0000
  H   H4        1.0  0.35063205029128136  0.6070645269216614  0.9628632750754207  1.0000
  H   H5        1.0  0.558948911413296  0.270509568185652  0.243408017543203  1.0000
  H   H6        1.0  0.4410552655713645  0.7294903864601565  0.7565902700204887  1.0000
  H   H7        1.0  0.4232243603968868  0.11799577849337337  0.28097358022543534  1.0000
  H   H8        1.0  0.5767733523723706  0.8820060307894407  0.7190299229283426  1.0000
  H   H9        1.0  0.37733962070930005  0.08794388399156361  0.11034490561367251  1.0000
  H   H10       1.0  0.622655753030756  0.9120551527876299  0.8896586167852334  1.0000
  H   H11       1.0  0.33231436210036247  0.1034872609745463  0.9686434027217036  1.0000
  H   H12       1.0  0.667687693949418  0.8965090004680218  0.031355896921709724  1.0000
  H   H13       1.0  0.8574064588854071  0.464416840865674  0.38662363103137676  1.0000
  H   H14       1.0  0.1425948131752222  0.5355784999556192  0.613377041670475  1.0000
  H   H15       1.0  0.7742048485159998  0.6196130299332622  0.400540207948069  1.0000
  H   H16       1.0  0.22579497233424925  0.3803841630053951  0.5994629592386148  1.0000
  H   H17       1.0  0.9250314889080329  0.5572969380105519  0.4339215643692143  1.0000
  H   H18       1.0  0.07496597997477042  0.44269749306426576  0.5660857219927706  1.0000
  H   H19       1.0  0.9316598147646361  0.6702704937561562  0.736948564731833  1.0000
  H   H20       1.0  0.0683383574821264  0.3297294549758121  0.2630495442168197  1.0000
  H   H21       1.0  0.7670591783354155  0.6482658190381086  0.8445447091247047  1.0000
  H   H22       1.0  0.2329372156016802  0.3517332027670363  0.15545269314812055  1.0000
  H   H23       1.0  0.9045012999638828  0.5177194253537537  0.8086149942802977  1.0000
  H   H24       1.0  0.09549731105918371  0.48227867985102074  0.19138428035150673  1.0000
  H   H25       1.0  0.2967061596819534  0.19481996973931368  0.5544996273692249  1.0000
  H   H26       1.0  0.7032925655213802  0.8051818309533373  0.44550021561656905  1.0000
  H   H27       1.0  0.43777987667608903  0.0712750217376978  0.5448899497516991  1.0000
  H   H28       1.0  0.5622212992334497  0.9287249288872133  0.4551078385114596  1.0000
  H   H29       1.0  0.4650478010594982  0.22285782533335657  0.46234406288273516  1.0000
  H   H30       1.0  0.534952923135485  0.7771439794585363  0.5376566596274444  1.0000
  H   H31       1.0  0.27163811276548694  0.9389328383896894  0.9870039623309882  1.0000
  H   H32       1.0  0.7283616119336712  0.06106896435257879  0.012996320417002478  1.0000
  H   H33       1.0  0.13547970937057838  0.0715110312034213  0.004471704401424908  1.0000
  H   H34       1.0  0.8645183511991799  0.9284935400999071  0.9955284400247352  1.0000
  H   H35       1.0  0.12680259185326295  0.9456847854518529  0.953869445316471  1.0000
  H   H36       1.0  0.8731936878191745  0.0543188610526215  0.046130812419903675  1.0000
  H   H37       1.0  0.8549195089899301  0.28680466555484685  0.6889763554607526  1.0000
  H   H38       1.0  0.1450744290656658  0.7131962105739617  0.3110247415067846  1.0000
  H   H39       1.0  0.061334639663620315  0.1172030912730833  0.6564418840632129  1.0000
  H   H40       1.0  0.9386608430814078  0.8827996452498965  0.3435638466617662  1.0000
  H   H41       1.0  0.8170533307661431  0.886857912638753  0.6613685800552461  1.0000
  H   H42       1.0  0.18295050876861307  0.113139271474715  0.3386297862919322  1.0000
  H   H43       1.0  0.6173071063985348  0.06345772010160998  0.7014653566874857  1.0000
  H   H44       1.0  0.3826939579183771  0.9365385329074628  0.2985310432356415  1.0000
  H   H45       1.0  0.17173994020168945  0.9114904617729636  0.5945105199788402  1.0000
  H   H46       1.0  0.8282613447128141  0.0885131885957335  0.4054894766103843  1.0000
  H   H47       1.0  0.0715241522690988  0.8190326440622044  0.5913966322837823  1.0000
  H   H48       1.0  0.9284787915995095  0.1809682420013488  0.4086051425993349  1.0000
  H   H49       1.0  0.10187073490327235  0.8569864774022947  0.8160539847242206  1.0000
  H   H50       1.0  0.8981315495070632  0.14301717501601977  0.18394645162718598  1.0000
  H   H51       1.0  0.9794718279300129  0.7786192794458272  0.8307973275130893  1.0000
  H   H52       1.0  0.020531565065489595  0.221379754578706  0.16920233310904112  1.0000
  H   H53       1.0  0.2885589630870625  0.4018700235167856  0.925982254590629  1.0000
  H   H54       1.0  0.7114399879735487  0.5981308500923747  0.07401612127166142  1.0000
  H   H55       1.0  0.09886715830496942  0.586410820168375  0.9483870538817386  1.0000
  H   H56       1.0  0.9011303441329162  0.41359190343018787  0.051612996479349166  1.0000
  H   H57       1.0  0.31342240196094906  0.7341943952642112  0.5675705154267945  1.0000
  H   H58       1.0  0.6865880107097979  0.2658129541432359  0.43242826747389523  1.0000
  H   H59       1.0  0.489961560655928  0.5479434087325218  0.5611696067070399  1.0000
  H   H60       1.0  0.5100399397652495  0.4520593230645176  0.4388322027028054  1.0000
  C   C1        1.0  0.7455168585745329  0.48944572472950654  0.5706962399921877  1.0000
  C   C2        1.0  0.25448096845937584  0.5105514598539926  0.42930440769804795  1.0000
  C   C3        1.0  0.7484480420385395  0.5197181098973261  0.675556254364544  1.0000
  C   C4        1.0  0.2515522279386175  0.48027723100230446  0.3244447985611458  1.0000
  C   C5        1.0  0.6841274411227332  0.4587724828434432  0.7972593614520139  1.0000
  C   C6        1.0  0.31586871919412834  0.5412274724290711  0.20274196790242635  1.0000
  C   C7        1.0  0.5630472252395222  0.3130251910337947  0.9538347277710955  1.0000
  C   C8        1.0  0.4369499449237678  0.686974757776511  0.046163761401402464  1.0000
  C   C9        1.0  0.5887213908051266  0.32788644391920485  0.051494821834403084  1.0000
  C   C10       1.0  0.4112814492338118  0.6721107381446461  0.9485031047505786  1.0000
  C   C11       1.0  0.5377637123377924  0.2584411130092334  0.16852111071710135  1.0000
  C   C12       1.0  0.4622372403021232  0.7415597625712066  0.831477324683533  1.0000
  C   C13       1.0  0.46168448647364363  0.172416769029752  0.18917202980826178  1.0000
  C   C14       1.0  0.5383144594116658  0.8275841088353245  0.810827986026091  1.0000
  C   C15       1.0  0.4355739121205815  0.1561864300375433  0.0929881270974349  1.0000
  C   C16       1.0  0.5644254751286795  0.8438126021723847  0.9070122344340276  1.0000
  C   C17       1.0  0.48434997203583663  0.2269537537042225  0.9750463044774165  1.0000
  C   C18       1.0  0.5156481924479693  0.7730462014116101  0.024954264429339755  1.0000
  C   C19       1.0  0.3824785871355942  0.15443112619315974  0.8776392030412197  1.0000
  C   C20       1.0  0.6175193540785884  0.845569753878209  0.12236201300301273  1.0000
  C   C21       1.0  0.3556614730303522  0.1380952914200648  0.7794849113684067  1.0000
  C   C22       1.0  0.6443380361621394  0.8619074298938615  0.22051355855896304  1.0000
  C   C23       1.0  0.4207931076497077  0.19525755002747044  0.6539887171532685  1.0000
  C   C24       1.0  0.5792063989551294  0.8047451734144175  0.346010572760129  1.0000
  C   C25       1.0  0.832390450005164  0.5351272019944844  0.4404035737379389  1.0000
  C   C26       1.0  0.16760981738433856  0.46486814103310087  0.5595982991737929  1.0000
  C   C27       1.0  0.8217493533846607  0.6120487784060344  0.6625912726220378  1.0000
  C   C28       1.0  0.1782500545658081  0.3879502367802274  0.3374025290211622  1.0000
  C   C29       1.0  0.8585228312664838  0.6107543731761992  0.7703646796233063  1.0000
  C   C30       1.0  0.14147534098027859  0.38924557555576905  0.22963342932534664  1.0000
  C   C31       1.0  0.40393830737175307  0.1702802044915401  0.5475264006342756  1.0000
  C   C32       1.0  0.5960608591955322  0.8297197505459549  0.4524737880486356  1.0000
  C   C33       1.0  0.2634238302282199  0.054827096639442595  0.8123691029870204  1.0000
  C   C34       1.0  0.7365771379376017  0.9451737661732478  0.18762441249741355  1.0000
  C   C35       1.0  0.19549058820016543  0.000170144646134  0.9476973056204301  1.0000
  C   C36       1.0  0.8045064754614228  0.9998344224796227  0.052301579057513134  1.0000
  C   C37       1.0  0.8488074304019622  0.1962944500803445  0.6853308053321214  1.0000
  C   C38       1.0  0.15118672057264598  0.803705509604761  0.3146729244420713  1.0000
  C   C39       1.0  0.9645431597326067  0.10086423983514695  0.6666007614141164  1.0000
  C   C40       1.0  0.0354533302711957  0.899138492353579  0.333402949114948  1.0000
  C   C41       1.0  0.9563145620519009  0.9849969202911948  0.6604242275656561  1.0000
  C   C42       1.0  0.0436841553884761  0.0150048867853272  0.339578075378249  1.0000
  C   C43       1.0  0.8289847348620543  0.9730960601128088  0.6707767591205143  1.0000
  C   C44       1.0  0.1710166565541584  0.026902971940444297  0.329222841963265  1.0000
  C   C45       1.0  0.7172132441712833  0.07204566335535388  0.6912951580150093  1.0000
  C   C46       1.0  0.28278859119652816  0.9279515209147887  0.3087039687798453  1.0000
  C   C47       1.0  0.07656059761294641  0.8773488229960336  0.6456208347381819  1.0000
  C   C48       1.0  0.923440905395886  0.12265390667305101  0.35438015468562856  1.0000
  C   C49       1.0  0.08064290054088026  0.7998616101487099  0.7706954427476164  1.0000
  C   C50       1.0  0.9193593838694554  0.20014204226961146  0.2293049936037904  1.0000
  C   C51       1.0  0.2905114370778393  0.47839089884712377  0.8487727430197584  1.0000
  C   C52       1.0  0.709491753349255  0.5216090431092725  0.15122100485157813  1.0000
  C   C53       1.0  0.18445439923839754  0.5827178749044963  0.8602073855355243  1.0000
  C   C54       1.0  0.8155489885818098  0.41728116337595383  0.13979391505867508  1.0000
  C   C55       1.0  0.18859292997240829  0.6820204321606482  0.7607165900342922  1.0000
  C   C56       1.0  0.8114135808661447  0.3179822992447043  0.23928331825633348  1.0000
  C   C57       1.0  0.3011228248562077  0.6655705241451741  0.651729752243554  1.0000
  C   C58       1.0  0.6988856901492966  0.3344322071034966  0.348269395599381  1.0000
  C   C59       1.0  0.4028244417575877  0.5586335709252523  0.6463485544193761  1.0000
  C   C60       1.0  0.597181500598481  0.4413673212871601  0.35365453975030897  1.0000
  N   N1        1.0  0.6118604324996896  0.3741241366859924  0.8308035258300137  1.0000
  N   N2        1.0  0.3881426282212176  0.6258721225502838  0.16919457360352652  1.0000
  N   N3        1.0  0.4628309572741572  0.22269543946231352  0.8701761145547168  1.0000
  N   N4        1.0  0.5371718775894792  0.7773017468574536  0.12982345200233417  1.0000
  N   N5        1.0  0.7246288352176294  0.18325869726601235  0.6995822001921185  1.0000
  N   N6        1.0  0.2753687737219578  0.8167394080170993  0.30041745466353126  1.0000
  N   N7        1.0  0.4015751903520054  0.4652181565825373  0.7433995239125013  1.0000
  N   N8        1.0  0.5984286517704049  0.5347790254029762  0.2565980224486354  1.0000
  O   O1        1.0  0.6735756956337157  0.41630317704597525  0.5803875774096883  1.0000
  O   O2        1.0  0.32642256758884247  0.5836921661382847  0.4196150559497269  1.0000
  O   O3        1.0  0.5011377803630737  0.2686278303869329  0.6234477641950917  1.0000
  O   O4        1.0  0.49886338519585394  0.7313721287498113  0.37655330401220505  1.0000
  O   O5        1.0  0.8556289528654233  0.6920127990373787  0.5683483970620956  1.0000
  O   O6        1.0  0.14437009434628584  0.30798346476816363  0.4316528632388881  1.0000
  O   O7        1.0  0.2373972789956937  0.025828394557038302  0.7352077885590235  1.0000
  O   O8        1.0  0.7626016643019681  0.9741724854360002  0.2647930472613709  1.0000
