data_image0
_chemical_formula_structural       Zn4H8C48N16O48
_chemical_formula_sum              "Zn4 H8 C48 N16 O48"
_cell_length_a       10.146890037835414
_cell_length_b       18.323171920133834
_cell_length_c       18.388715942874445
_cell_angle_alpha    90.46302807579052
_cell_angle_beta     95.74293179845277
_cell_angle_gamma    83.93879695375013

_space_group_name_H-M_alt    "P 1"
_space_group_IT_number       1

loop_
  _space_group_symop_operation_xyz
  'x, y, z'

loop_
  _atom_site_type_symbol
  _atom_site_label
  _atom_site_symmetry_multiplicity
  _atom_site_fract_x
  _atom_site_fract_y
  _atom_site_fract_z
  _atom_site_occupancy
  Zn  Zn1       1.0  0.3881877675211811  0.9982571660839809  0.4848347169534293  1.0000
  Zn  Zn2       1.0  0.6659316014288024  0.9728279443762063  0.5044513549384604  1.0000
  Zn  Zn3       1.0  0.6120626530885928  0.4836652668095383  0.9985498898118051  1.0000
  Zn  Zn4       1.0  0.3341012725784296  0.5042909880720285  0.9740516146432582  1.0000
  H   H1        1.0  0.2119054233924729  0.6642165191996766  0.141859878420135  1.0000
  H   H2        1.0  0.7738699299350813  0.8243194716124975  0.3266158227810294  1.0000
  H   H3        1.0  0.22594236921791114  0.3263976635860076  0.8259434979824859  1.0000
  H   H4        1.0  0.7882359783285223  0.14068661715494102  0.6639642389336586  1.0000
  H   H5        1.0  0.2727799252760549  0.3700262088264665  0.1324518433463595  1.0000
  H   H6        1.0  0.7277705149493768  0.13196339053140352  0.3707127263069623  1.0000
  H   H7        1.0  0.757470153726679  0.6456508220514864  0.8675413544850343  1.0000
  H   H8        1.0  0.24234026746383114  0.8671794136423472  0.6465494036986216  1.0000
  C   C1        1.0  0.4614205794151189  0.9003368530773556  0.5903803450545979  1.0000
  C   C2        1.0  0.5718839956401568  0.8907886313656592  0.3950850530175032  1.0000
  C   C3        1.0  0.499987699823059  0.0922636137712729  0.4037567654008711  1.0000
  C   C4        1.0  0.587043716232948  0.0708981716914181  0.6016043933567303  1.0000
  C   C5        1.0  0.5006569743354775  0.40309815147328715  0.0929213606564332  1.0000
  C   C6        1.0  0.41324335380790694  0.6016434730806209  0.0714792009693923  1.0000
  C   C7        1.0  0.5385939423081041  0.5893540741032339  0.900749032746937  1.0000
  C   C8        1.0  0.4278707758432816  0.394116109416352  0.8922104636010958  1.0000
  C   C9        1.0  0.5379524514627504  0.692029982918804  0.14875548079428572  1.0000
  C   C10       1.0  0.3043426156506683  0.6875925811369966  0.15908234389344497  1.0000
  C   C11       1.0  0.31015540698150806  0.7377154744202131  0.21482645266280537  1.0000
  C   C12       1.0  0.4294153706229124  0.7680124348917234  0.24160160468219516  1.0000
  C   C13       1.0  0.4396991108795874  0.8199206027515588  0.2996265010720407  1.0000
  C   C14       1.0  0.6779586702342897  0.8100215916596128  0.3017761990749008  1.0000
  C   C15       1.0  0.6709998755582446  0.767199903234392  0.2402527141654502  1.0000
  C   C16       1.0  0.5496007871166314  0.7424247084571577  0.2078885606971497  1.0000
  C   C17       1.0  0.4192089514386482  0.6635550290139207  0.12532054322232264  1.0000
  C   C18       1.0  0.5611857520469741  0.8390182450409328  0.3315932877941492  1.0000
  C   C19       1.0  0.5601155732689875  0.2983741261125702  0.8208364342778012  1.0000
  C   C20       1.0  0.3218732306986212  0.30131058986543025  0.8113518486112384  1.0000
  C   C21       1.0  0.32888030513001354  0.23983254990671551  0.7682807701063155  1.0000
  C   C22       1.0  0.4503153383375534  0.2072657009937515  0.7430536161889804  1.0000
  C   C23       1.0  0.462075790898666  0.1482475288935561  0.6923934647053755  1.0000
  C   C24       1.0  0.6957772162298211  0.15799318991324898  0.6876323028250084  1.0000
  C   C25       1.0  0.6897695220602245  0.21362490314233903  0.7379653871432552  1.0000
  C   C26       1.0  0.5704504584402343  0.24056051877266782  0.7686089806159302  1.0000
  C   C27       1.0  0.4385905571791042  0.33068911544868484  0.8402555027253414  1.0000
  C   C28       1.0  0.5809190200302371  0.12460176478216307  0.6636252925717515  1.0000
  C   C29       1.0  0.5896303983533144  0.3191654829531245  0.20221836053430306  1.0000
  C   C30       1.0  0.3548018492000011  0.34227582092859177  0.1678338030604962  1.0000
  C   C31       1.0  0.32897526083552725  0.298086556918662  0.22322523954844803  1.0000
  C   C32       1.0  0.4320788523005065  0.25620371749982246  0.2682562822300554  1.0000
  C   C33       1.0  0.41066198114732794  0.20163009163412943  0.3196425430864521  1.0000
  C   C34       1.0  0.6455964448774766  0.16730746159814203  0.3429105123366796  1.0000
  C   C35       1.0  0.6713224564549237  0.22283098806168064  0.2987892786144997  1.0000
  C   C36       1.0  0.5682673807665851  0.26780416106128513  0.2567960021070945  1.0000
  C   C37       1.0  0.4858642790098101  0.3539990351106539  0.15613947617593738  1.0000
  C   C38       1.0  0.514554950838729  0.15555301168161148  0.3545845940548347  1.0000
  C   C39       1.0  0.4294117697053322  0.7006099739193772  0.8270350753528746  1.0000
  C   C40       1.0  0.6678598872982917  0.6770320997826788  0.8421692587354812  1.0000
  C   C41       1.0  0.6782380271746504  0.7361494155956906  0.7987348252730159  1.0000
  C   C42       1.0  0.5647707851793272  0.7759566220582388  0.7593445336019613  1.0000
  C   C43       1.0  0.5701461411729554  0.8267414598329738  0.7014664300398863  1.0000
  C   C44       1.0  0.33182604637661234  0.8417466120814368  0.6778671284281472  1.0000
  C   C45       1.0  0.32131164835858067  0.798151192759704  0.7367499916482956  1.0000
  C   C46       1.0  0.434820678292148  0.758696872371253  0.7764297003537379  1.0000
  C   C47       1.0  0.5427321646049209  0.6570774174846221  0.8560085117812832  1.0000
  C   C48       1.0  0.4569817049779202  0.8556428188856204  0.6579801276539712  1.0000
  N   N1        1.0  0.8004635382516128  0.7505306386598818  0.20973525652522804  1.0000
  N   N2        1.0  0.6566481541954019  0.6668470381408298  0.1104351846538165  1.0000
  N   N3        1.0  0.1843946276140755  0.7521935392195402  0.24993549167400184  1.0000
  N   N4        1.0  0.31540560561463593  0.8580698414646761  0.32469027867493594  1.0000
  N   N5        1.0  0.8155216872238356  0.2484143378259986  0.7524118716639094  1.0000
  N   N6        1.0  0.6844346639096345  0.3227823602239185  0.8587852953898931  1.0000
  N   N7        1.0  0.19952022763606442  0.20970438217975135  0.7514277488708458  1.0000
  N   N8        1.0  0.34360436513476605  0.11009080865800774  0.6673221172289419  1.0000
  N   N9        1.0  0.8149000107562187  0.23333921717147632  0.3028057671739504  1.0000
  N   N10       1.0  0.7270204063123983  0.3337917239980399  0.1902899328173078  1.0000
  N   N11       1.0  0.18515372196477392  0.3020411635589753  0.2335013456588939  1.0000
  N   N12       1.0  0.2732258207020095  0.189587818914994  0.3341207436716189  1.0000
  N   N13       1.0  0.1832284227666108  0.8009607225890889  0.7576477887098676  1.0000
  N   N14       1.0  0.2983874059890752  0.6827083236359642  0.847133916496901  1.0000
  N   N15       1.0  0.8159678177545899  0.7572568491439782  0.8015084583829406  1.0000
  N   N16       1.0  0.7010102398310636  0.847238358649335  0.6838076008498818  1.0000
  O   O1        1.0  0.3498247532653026  0.9315112176850702  0.5604492345494806  1.0000
  O   O2        1.0  0.5734041672155569  0.9035235464653794  0.5666094657695594  1.0000
  O   O3        1.0  0.6885759148608486  0.9000852464728055  0.42527627815547925  1.0000
  O   O4        1.0  0.4639680780770873  0.9220809914839948  0.4143632987361485  1.0000
  O   O5        1.0  0.6085831296557274  0.058254446832350516  0.4315669333299539  1.0000
  O   O6        1.0  0.3829160736746928  0.0766978560695577  0.4133970446724007  1.0000
  O   O7        1.0  0.4774154919898947  0.062244315750383805  0.5651864163513524  1.0000
  O   O8        1.0  0.7010591791352923  0.03986781073803769  0.5877484011651788  1.0000
  O   O9        1.0  0.6177910803635739  0.4122619353217517  0.07699882824970672  1.0000
  O   O10       1.0  0.3921062942049859  0.4313137983978947  0.0592892383457482  1.0000
  O   O11       1.0  0.2992288530240542  0.5880319472546773  0.04094045173798829  1.0000
  O   O12       1.0  0.5229888517837294  0.5649998688569087  0.06231331031474239  1.0000
  O   O13       1.0  0.4267102338138997  0.5657676692849735  0.904358897070729  1.0000
  O   O14       1.0  0.6502497412067428  0.5591194403439346  0.9315483648376174  1.0000
  O   O15       1.0  0.5357706944278959  0.41283942813964103  0.9233643208684866  1.0000
  O   O16       1.0  0.31119090489590207  0.4248266069214282  0.9017874942646101  1.0000
  O   O17       1.0  0.8090146333053456  0.7777617832576311  0.1492417933243502  1.0000
  O   O18       1.0  0.889422721548648  0.7141726360087829  0.2483446846686519  1.0000
  O   O19       1.0  0.6572670077167401  0.6901153756797883  0.047833407969669395  1.0000
  O   O20       1.0  0.7441146833816817  0.6251215784359518  0.144759250874003  1.0000
  O   O21       1.0  0.10714414136901244  0.8056676843433195  0.2276436220623879  1.0000
  O   O22       1.0  0.16790049970100543  0.7074017508226336  0.2969589090880476  1.0000
  O   O23       1.0  0.2718772004497367  0.9151229678810466  0.2916527752244491  1.0000
  O   O24       1.0  0.26675024185211527  0.8295070541525505  0.3747920664946278  1.0000
  O   O25       1.0  0.8929427196763414  0.22530447039905246  0.8051977817440559  1.0000
  O   O26       1.0  0.8318818340941618  0.29595574605222197  0.7081134543804097  1.0000
  O   O27       1.0  0.7278201737401558  0.28884167229845303  0.9151467528116014  1.0000
  O   O28       1.0  0.7333075187199682  0.37318337734124896  0.8307714076849493  1.0000
  O   O29       1.0  0.19069014419519448  0.1488400643223073  0.7780996083674907  1.0000
  O   O30       1.0  0.11102772758350453  0.24888525866983707  0.7153131072326957  1.0000
  O   O31       1.0  0.3430441350723044  0.0472247590500459  0.6904117396584724  1.0000
  O   O32       1.0  0.256281978250044  0.14475318418608651  0.6259009001836233  1.0000
  O   O33       1.0  0.8438708163201909  0.2936929877178045  0.3261596339773476  1.0000
  O   O34       1.0  0.8925315534196016  0.1802792585316411  0.2880115426340737  1.0000
  O   O35       1.0  0.7624476211862187  0.3929035191542667  0.2119976442274236  1.0000
  O   O36       1.0  0.791854528909191  0.28473381871096853  0.1585603540096656  1.0000
  O   O37       1.0  0.1548658291264928  0.3258852610503736  0.2933783304366884  1.0000
  O   O38       1.0  0.10859840206187953  0.2866399394172063  0.1806979092737606  1.0000
  O   O39       1.0  0.236550761214545  0.2118198221653387  0.3927506654741322  1.0000
  O   O40       1.0  0.20957779287829228  0.15735162637318473  0.285411562182702  1.0000
  O   O41       1.0  0.17010188672812634  0.8177371878843828  0.8220452462197443  1.0000
  O   O42       1.0  0.09387789772395651  0.7922498161108465  0.7088879912525314  1.0000
  O   O43       1.0  0.27203021741508593  0.6976558229283399  0.9097119355135632  1.0000
  O   O44       1.0  0.22783794279369127  0.6540530390639744  0.798706332417602  1.0000
  O   O45       1.0  0.8280650231078822  0.8219872224397378  0.8180448617476728  1.0000
  O   O46       1.0  0.9060296782583775  0.7083510538306825  0.7929233660654235  1.0000
  O   O47       1.0  0.7256302628000384  0.9102780627201739  0.6984806342945475  1.0000
  O   O48       1.0  0.7731188550929035  0.7987966978750906  0.6555266599581984  1.0000
