data_image0
_chemical_formula_structural       Zn8H12C48O38
_chemical_formula_sum              "Zn8 H12 C48 O38"
_cell_length_a       18.225046834399297
_cell_length_b       18.331705982027128
_cell_length_c       18.308811930730034
_cell_angle_alpha    61.41978270640865
_cell_angle_beta     61.2199605149437
_cell_angle_gamma    61.29421147130552

_space_group_name_H-M_alt    "P 1"
_space_group_IT_number       1

loop_
  _space_group_symop_operation_xyz
  'x, y, z'

loop_
  _atom_site_type_symbol
  _atom_site_label
  _atom_site_symmetry_multiplicity
  _atom_site_fract_x
  _atom_site_fract_y
  _atom_site_fract_z
  _atom_site_occupancy
  Zn  Zn1       1.0  0.940875256019375  0.149051398583012  0.9421423319570223  1.0000
  Zn  Zn2       1.0  0.941745613252522  0.9751945755782787  0.9368229389567587  1.0000
  Zn  Zn3       1.0  0.9423519776607774  0.9770541804211849  0.11225737024312821  1.0000
  Zn  Zn4       1.0  0.11567018668194606  0.9786913719727439  0.9404250195493872  1.0000
  Zn  Zn5       1.0  0.5255479092952982  0.3899844721287949  0.5265663502394062  1.0000
  Zn  Zn6       1.0  0.5329619547260054  0.5632128382509407  0.5254802730866854  1.0000
  Zn  Zn7       1.0  0.35490547840165476  0.5638622221435627  0.526243363286035  1.0000
  Zn  Zn8       1.0  0.527445271936621  0.5599403542509478  0.3535753939586785  1.0000
  H   H1        1.0  0.6606041600508804  0.21533250431616585  0.895663722849072  1.0000
  H   H2        1.0  0.8123328073906676  0.32265959216961454  0.567405740587944  1.0000
  H   H3        1.0  0.8977168651047763  0.22534486848281435  0.19464594855691789  1.0000
  H   H4        1.0  0.5666184753261589  0.30856061721344474  0.2770091153214624  1.0000
  H   H5        1.0  0.18622644473014566  0.22002890488626292  0.661827430958084  1.0000
  H   H6        1.0  0.2755873753169525  0.327199651673908  0.8055926853832815  1.0000
  H   H7        1.0  0.6601021609538479  0.9330640946549668  0.18450168570208786  1.0000
  H   H8        1.0  0.8123478732449033  0.6044485066466123  0.27452224418236415  1.0000
  H   H9        1.0  0.17770517158125904  0.6970946532072164  0.8955805096248994  1.0000
  H   H10       1.0  0.3024983228428013  0.8434431260912947  0.5689713990426738  1.0000
  H   H11       1.0  0.18106718956779838  0.6984864532775534  0.18801336337533317  1.0000
  H   H12       1.0  0.28801477886946714  0.840640214244097  0.2791781203215251  1.0000
  C   C1        1.0  0.843608539566077  0.1543086557818896  0.8485870624595717  1.0000
  C   C2        1.0  0.7853441625435806  0.21195999827314446  0.7918604131100719  1.0000
  C   C3        1.0  0.6962601922422423  0.23638315655843203  0.8252628610575314  1.0000
  C   C4        1.0  0.6410562974035018  0.2945354525242153  0.7677721291427984  1.0000
  C   C5        1.0  0.6875727641215125  0.3253097931495219  0.6711222822286301  1.0000
  C   C6        1.0  0.7766692698866394  0.30114445918802346  0.6377611104603318  1.0000
  C   C7        1.0  0.8318843419303618  0.24315882165878833  0.6952894581647159  1.0000
  C   C8        1.0  0.6288269970429  0.3832140961473557  0.6148957691003717  1.0000
  C   C9        1.0  0.8517329771603315  0.15596562521660226  0.12302817311572783  1.0000
  C   C10       1.0  0.7940772520685827  0.21276108456905973  0.1811502486559249  1.0000
  C   C11       1.0  0.8268536756548103  0.24161177013587587  0.21071427646334956  1.0000
  C   C12       1.0  0.7676226962363729  0.29800310924850504  0.26693629644446293  1.0000
  C   C13       1.0  0.6703126521394367  0.3214966980808712  0.29009582519075394  1.0000
  C   C14       1.0  0.6374868897753815  0.2922635292687659  0.260947350368376  1.0000
  C   C15       1.0  0.6967383046398725  0.23591026944652785  0.20463896055888853  1.0000
  C   C16       1.0  0.6131882902005613  0.3794841592107404  0.3470392933089174  1.0000
  C   C17       1.0  0.12092846856440793  0.1592466958335734  0.8439223280244549  1.0000
  C   C18       1.0  0.1773273922707332  0.2176366153155272  0.7841062646091429  1.0000
  C   C19       1.0  0.20392233698363074  0.24153618497282991  0.6956695430221912  1.0000
  C   C20       1.0  0.2595043403532743  0.2988092060592253  0.638968804200445  1.0000
  C   C21       1.0  0.28474662269520934  0.3293463053350294  0.68334665129143  1.0000
  C   C22       1.0  0.25769168854637325  0.30585640708262224  0.771779235959123  1.0000
  C   C23       1.0  0.20202597533656788  0.24871524861266187  0.8284589139916391  1.0000
  C   C24       1.0  0.3429733109534114  0.3859818239128573  0.6238684359266388  1.0000
  C   C25       1.0  0.8431686071179173  0.8861288452803537  0.11650470096724766  1.0000
  C   C26       1.0  0.7848914329612028  0.8293570800879241  0.17362622870268762  1.0000
  C   C27       1.0  0.6957849817772159  0.8626271485777864  0.20193416510880277  1.0000
  C   C28       1.0  0.6407777736121149  0.8048809982896901  0.2597055501215095  1.0000
  C   C29       1.0  0.6875303221978941  0.7081575475263123  0.28535436245037  1.0000
  C   C30       1.0  0.7766341891025734  0.6748825181123339  0.25683045142510946  1.0000
  C   C31       1.0  0.831632478065039  0.7326377965466411  0.19916540480455305  1.0000
  C   C32       1.0  0.6292851366579201  0.6513748450448773  0.3439304280386395  1.0000
  C   C33       1.0  0.12291545673151211  0.8786578329983643  0.8483051947901571  1.0000
  C   C34       1.0  0.18185149825042404  0.8198816025969295  0.7921224573691886  1.0000
  C   C35       1.0  0.20289504173016584  0.7316809188756467  0.8255306489163133  1.0000
  C   C36       1.0  0.2625132796781956  0.6758466819249662  0.768645932028491  1.0000
  C   C37       1.0  0.297953790714601  0.7207127541394558  0.6723591918594635  1.0000
  C   C38       1.0  0.2774853080474314  0.8088512687043234  0.6390273180853115  1.0000
  C   C39       1.0  0.2179894135028206  0.8646990104429407  0.6959619651746536  1.0000
  C   C40       1.0  0.35480625370171043  0.6619592205317276  0.6160844171767721  1.0000
  C   C41       1.0  0.12314629867029937  0.8802197306920408  0.12062729505532818  1.0000
  C   C42       1.0  0.18020621675114518  0.8202248663674753  0.1783177229402141  1.0000
  C   C43       1.0  0.20283324613461676  0.7320241927797967  0.20579828374991394  1.0000
  C   C44       1.0  0.25912071298102296  0.6750439096626766  0.2623192771235309  1.0000
  C   C45       1.0  0.28922830981459685  0.7189055045969397  0.2885733979974389  1.0000
  C   C46       1.0  0.2665058506526279  0.8070982793865937  0.2611695271999821  1.0000
  C   C47       1.0  0.2102125253723343  0.8640461522169933  0.2047154703077893  1.0000
  C   C48       1.0  0.3465332118213311  0.6592550245201638  0.3460844674436174  1.0000
  O   O1        1.0  0.985054165267208  0.0195496983952808  0.9826427861095722  1.0000
  O   O2        1.0  0.8667724123039806  0.0721273449820146  0.8656824177789632  1.0000
  O   O3        1.0  0.8631123757017819  0.19467143301142906  0.8733499897386566  1.0000
  O   O4        1.0  0.5594612816846053  0.31758944066860556  0.7979650836612038  1.0000
  O   O5        1.0  0.9134424595483994  0.22126698653589472  0.6652966773662284  1.0000
  O   O6        1.0  0.6102192711868071  0.46537628147713433  0.5937654534801737  1.0000
  O   O7        1.0  0.6040999855350222  0.3431978324905387  0.5949088156841212  1.0000
  O   O8        1.0  0.8733964162938436  0.0737459651056724  0.1623314167658307  1.0000
  O   O9        1.0  0.8720955054368532  0.19647327407734141  0.04092409647023498  1.0000
  O   O10       1.0  0.7968345674532742  0.3252676619647445  0.29403103026898253  1.0000
  O   O11       1.0  0.6675492107904334  0.20848423435772653  0.1776934745290646  1.0000
  O   O12       1.0  0.5939215367652794  0.4614260334532433  0.3062908566757158  1.0000
  O   O13       1.0  0.5912541982923188  0.3403626824915379  0.42937972187491596  1.0000
  O   O14       1.0  0.16216523166961141  0.07735446607377133  0.8663459059942226  1.0000
  O   O15       1.0  0.03802047227456028  0.19831693819465818  0.865632674553609  1.0000
  O   O16       1.0  0.284756813180323  0.32074878519784994  0.5579395814593369  1.0000
  O   O17       1.0  0.17645480311262668  0.22705289939764844  0.909498917391744  1.0000
  O   O18       1.0  0.3038421319735036  0.4682960855477774  0.6009208355845458  1.0000
  O   O19       1.0  0.42550340686600674  0.3448885426843659  0.6030787671368784  1.0000
  O   O20       1.0  0.8655006952270552  0.9072680117669383  0.15764216058324357  1.0000
  O   O21       1.0  0.863827718857131  0.9064422025575568  0.034073607223149116  1.0000
  O   O22       1.0  0.5591381060499077  0.8347707919002404  0.2864484634467955  1.0000
  O   O23       1.0  0.9132835875902998  0.7027727381074059  0.17281104977904957  1.0000
  O   O24       1.0  0.6056629898119752  0.6294080643289491  0.30458897811832464  1.0000
  O   O25       1.0  0.6098926344109119  0.6318774785924931  0.426039990687812  1.0000
  O   O26       1.0  0.1628792671961962  0.9020936113187616  0.869776268281825  1.0000
  O   O27       1.0  0.04011439785794827  0.8982738489347997  0.8682964780662699  1.0000
  O   O28       1.0  0.28281962782462955  0.5950474379579873  0.7991968851870723  1.0000
  O   O29       1.0  0.19805623773385145  0.9454784254106061  0.665436664519383  1.0000
  O   O30       1.0  0.31247927120688956  0.6400897494169231  0.5958146931753631  1.0000
  O   O31       1.0  0.4379941303847516  0.6407622043684642  0.5948735987753792  1.0000
  O   O32       1.0  0.04028481719476672  0.8999536659327134  0.16042769596231923  1.0000
  O   O33       1.0  0.16377086264125756  0.9045203039342768  0.03858088411061536  1.0000
  O   O34       1.0  0.2810555457023014  0.5942198346500974  0.28691253008801  1.0000
  O   O35       1.0  0.1877594626746841  0.9448899789025378  0.18060531127356688  1.0000
  O   O36       1.0  0.42922209087271324  0.6364449504760686  0.30575464726755547  1.0000
  O   O37       1.0  0.30633710822971233  0.6385030503755615  0.4284061297956897  1.0000
  O   O38       1.0  0.48547961975911863  0.5195367323687777  0.4832144277648497  1.0000
