data_image0
_chemical_formula_structural       Cu4H12C16I4N4
_chemical_formula_sum              "Cu4 H12 C16 I4 N4"
_cell_length_a       4.1485667361303955
_cell_length_b       8.66269606136229
_cell_length_c       15.045136516181872
_cell_angle_alpha    92.02801418877567
_cell_angle_beta     92.29750522547384
_cell_angle_gamma    99.93838130171171

_space_group_name_H-M_alt    "P 1"
_space_group_IT_number       1

loop_
  _space_group_symop_operation_xyz
  'x, y, z'

loop_
  _atom_site_type_symbol
  _atom_site_label
  _atom_site_symmetry_multiplicity
  _atom_site_fract_x
  _atom_site_fract_y
  _atom_site_fract_z
  _atom_site_occupancy
  Cu  Cu1       1.0  0.24274619427298927  5.9268235553100506e-05  0.4450780873366538  1.0000
  Cu  Cu2       1.0  0.7572566706919163  0.9999391474980684  0.5549213387127592  1.0000
  Cu  Cu3       1.0  0.3356362851382855  0.0228749377640156  0.0680905042814928  1.0000
  Cu  Cu4       1.0  0.6643569582809975  0.9771235192068063  0.93190949477718  1.0000
  H   H1        1.0  0.11898141478220489  0.979251589839116  0.24885962309546977  1.0000
  H   H2        1.0  0.8810146766877057  0.020748033508851915  0.7511397658583545  1.0000
  H   H3        1.0  0.6743417409218183  0.311733104286212  0.42428419461202077  1.0000
  H   H4        1.0  0.3256572092886643  0.6882676804951087  0.5757152489061992  1.0000
  H   H5        1.0  0.08368329206261661  0.5315909528301007  0.3619224169734493  1.0000
  H   H6        1.0  0.9163180448268734  0.4684098302935523  0.6380757201212857  1.0000
  H   H7        1.0  0.34525106260345245  0.6540527471153085  0.22941708948889775  1.0000
  H   H8        1.0  0.6547551010937553  0.3459480079740516  0.7705817581050738  1.0000
  H   H9        1.0  0.19397116598046452  0.5329547057366356  0.07860543936443068  1.0000
  H   H10       1.0  0.8060264428749236  0.46704255516508675  0.9213945738748348  1.0000
  H   H11       1.0  0.7656623951114128  0.292676525144131  0.056385820682720585  1.0000
  H   H12       1.0  0.2343409312251056  0.7073230586243044  0.9436143016853292  1.0000
  C   C1        1.0  0.3081669408722689  0.0838749321980572  0.2578469980138181  1.0000
  C   C2        1.0  0.6918329213915017  0.9161281935966842  0.7421531734724451  1.0000
  C   C3        1.0  0.6147690399290797  0.26815456293340395  0.35544687185441143  1.0000
  C   C4        1.0  0.38522904098786637  0.7318438610593391  0.6445545023727275  1.0000
  C   C5        1.0  0.7712923615196203  0.3444045516996894  0.28377235084995783  1.0000
  C   C6        1.0  0.22870899674974526  0.6555962215363852  0.7162271155832585  1.0000
  C   C7        1.0  0.01342627448087799  0.48138486690983473  0.2949648718879344  1.0000
  C   C8        1.0  0.9865741824251373  0.5186135603690333  0.7050345312464826  1.0000
  C   C9        1.0  0.1578597064712072  0.5487774399774923  0.22147618234391328  1.0000
  C   C10       1.0  0.8421455879324642  0.45122095432329706  0.7785245959589842  1.0000
  C   C11       1.0  0.06902508068525752  0.4801687477223879  0.13534875415149367  1.0000
  C   C12       1.0  0.9309710107846528  0.519830875625587  0.8646506348023305  1.0000
  C   C13       1.0  0.8327627542452659  0.3469000541188834  0.12247795279053969  1.0000
  C   C14       1.0  0.16723575597347215  0.653099552740045  0.8775221237475177  1.0000
  C   C15       1.0  0.6778227793107094  0.27744835917298644  0.19631273484277048  1.0000
  C   C16       1.0  0.3221757309080291  0.7225512476859423  0.8036873416952871  1.0000
  I   I1        1.0  0.31090289239567437  0.19368380482626435  0.584928152813539  1.0000
  I   I2        1.0  0.6890980151920163  0.8063157954312032  0.4150712819702775  1.0000
  I   I3        1.0  0.23633940405375856  0.171736798310242  0.922523976080839  1.0000
  I   I4        1.0  0.7636590954750491  0.8282628134924793  0.0774754357879814  1.0000
  N   N1        1.0  0.38746377023283446  0.13937318433875132  0.3430043948833017  1.0000
  N   N2        1.0  0.6125351906675789  0.8606275954987839  0.6569957133041624  1.0000
  N   N3        1.0  0.4398309867782545  0.14492842163827646  0.185432427911195  1.0000
  N   N4        1.0  0.560167523440491  0.8550711852206521  0.8145676486268625  1.0000
