data_image0
_chemical_formula_structural       Zn2H24C16N20O8
_chemical_formula_sum              "Zn2 H24 C16 N20 O8"
_cell_length_a       6.519637782006098
_cell_length_b       8.468285570002447
_cell_length_c       12.621983095010739
_cell_angle_alpha    89.9999457768995
_cell_angle_beta     89.99986011850889
_cell_angle_gamma    89.99993116063892

_space_group_name_H-M_alt    "P 1"
_space_group_IT_number       1

loop_
  _space_group_symop_operation_xyz
  'x, y, z'

loop_
  _atom_site_type_symbol
  _atom_site_label
  _atom_site_symmetry_multiplicity
  _atom_site_fract_x
  _atom_site_fract_y
  _atom_site_fract_z
  _atom_site_occupancy
  Zn  Zn1       1.0  0.5000013194150625  0.9584850395514618  0.5000000497716712  1.0000
  Zn  Zn2       1.0  3.0355028926000008e-06  0.04151489661954599  7.79136542e-07  1.0000
  H   H1        1.0  0.33237781772895403  0.8405011420843277  0.8332536898415486  1.0000
  H   H2        1.0  0.6676250038420904  0.840500276835442  0.1667464843323287  1.0000
  H   H3        1.0  0.8323773730321521  0.15950013814712347  0.6667480572779213  1.0000
  H   H4        1.0  0.16762496948099675  0.1594995031200099  0.3332541321985261  1.0000
  H   H5        1.0  0.31057924880762766  0.9555552205670281  0.7153942161124291  1.0000
  H   H6        1.0  0.6894218607317697  0.9555541681294882  0.28460667755398833  1.0000
  H   H7        1.0  0.8105784278748448  0.0444460799802684  0.7846067663574346  1.0000
  H   H8        1.0  0.18942255901672667  0.044445591512108286  0.21539391135988953  1.0000
  H   H9        1.0  0.5232979632597008  0.6223505975857576  0.8924186672178324  1.0000
  H   H10       1.0  0.4767036623658568  0.6223499940343443  0.10758243721576832  1.0000
  H   H11       1.0  0.023294051152532795  0.37764742806474055  0.6075818869706923  1.0000
  H   H12       1.0  0.9767033519996247  0.37765067875234576  0.39241857998214164  1.0000
  H   H13       1.0  0.7544583614709595  0.4107350931942974  0.8273757181494973  1.0000
  H   H14       1.0  0.24554052426446302  0.41073343210506147  0.17262472787443534  1.0000
  H   H15       1.0  0.2544568832873537  0.5892662596589203  0.6726197895459833  1.0000
  H   H16       1.0  0.7455401921119815  0.5892650943608331  0.3273757899383725  1.0000
  H   H17       1.0  0.7920858650383096  0.4535512017796392  0.963660128868604  1.0000
  H   H18       1.0  0.2079144882047359  0.453552130470328  0.03634108233890031  1.0000
  H   H19       1.0  0.29208049280312315  0.5464442116240349  0.5363377079629217  1.0000
  H   H20       1.0  0.7079120474287919  0.546448792814587  0.4636602754150375  1.0000
  H   H21       1.0  0.9741222211514183  0.5233350850143879  0.8686257966949926  1.0000
  H   H22       1.0  0.025879557832929802  0.5233372296730322  0.1313753703696321  1.0000
  H   H23       1.0  0.4741195775941236  0.47666252049405927  0.631370224957749  1.0000
  H   H24       1.0  0.5258776722085514  0.4766638632585156  0.36862621802140444  1.0000
  C   C1        1.0  0.5530222754563426  0.8091807324561628  0.716862974675408  1.0000
  C   C2        1.0  0.44697906079706234  0.8091810889193949  0.2831372193106674  1.0000
  C   C3        1.0  0.05302242834592621  0.19081962724409607  0.7831375418492216  1.0000
  C   C4        1.0  0.9469813994867238  0.19081961156781085  0.21686383554650496  1.0000
  C   C5        1.0  0.6839020040149323  0.6493878868920007  0.8722973130525419  1.0000
  C   C6        1.0  0.31609957973547853  0.6493874045265214  0.12770298201015612  1.0000
  C   C7        1.0  0.18389803913039768  0.3506111699612119  0.6277022453825014  1.0000
  C   C8        1.0  0.8160994059006229  0.350612237058577  0.3722974464041684  1.0000
  C   C9        1.0  0.7551710172956944  0.7780289490179652  0.9504727399384125  1.0000
  C   C10       1.0  0.24483190103635621  0.7780274628806724  0.0495274737522138  1.0000
  C   C11       1.0  0.255169153240658  0.22197004141477086  0.549527520466313  1.0000
  C   C12       1.0  0.7448300248665947  0.22197106424746235  0.45047146042233527  1.0000
  C   C13       1.0  0.8114352530123059  0.4994590071238746  0.8832765369761689  1.0000
  C   C14       1.0  0.18856656295370305  0.49945984003372257  0.11672464519158862  1.0000
  C   C15       1.0  0.31143264139073773  0.5005387499990449  0.6167212753372766  1.0000
  C   C16       1.0  0.6885645714284223  0.500541101282785  0.38327594480728083  1.0000
  N   N1        1.0  0.6237258062334519  0.8322114057010381  0.6172961595541224  1.0000
  N   N2        1.0  0.3762754943478654  0.8322128679590932  0.38270401986363833  1.0000
  N   N3        1.0  0.123725526407469  0.16778888810748777  0.882704267389727  1.0000
  N   N4        1.0  0.8762752694421821  0.167787898421274  0.11729712457626112  1.0000
  N   N5        1.0  0.6846936715704572  0.7062341808465432  0.7632185555468425  1.0000
  N   N6        1.0  0.3153093579589381  0.7062335447761966  0.23678249582555827  1.0000
  N   N7        1.0  0.18469081542117044  0.2937672370203757  0.7367825864207802  1.0000
  N   N8        1.0  0.8153082514776174  0.2937672784217824  0.2632187258587209  1.0000
  N   N9        1.0  0.7978076585811779  0.7436420474179211  0.6059143475751014  1.0000
  N   N10       1.0  0.2021937791822666  0.7436424749193333  0.39408588786719184  1.0000
  N   N11       1.0  0.2978071880333673  0.2563580841562115  0.8940850665393968  1.0000
  N   N12       1.0  0.7021934706360256  0.2563584536959951  0.10591547713351453  1.0000
  N   N13       1.0  0.8361731425673966  0.6686173376196789  0.6919840233583444  1.0000
  N   N14       1.0  0.16382994522696487  0.6686167418619036  0.3080162595398975  1.0000
  N   N15       1.0  0.3361714268799006  0.3313839390764457  0.8080161344162067  1.0000
  N   N16       1.0  0.663829115583333  0.33138422250672045  0.19198515406794311  1.0000
  N   N17       1.0  0.3878043545632366  0.8749260815529779  0.7603823689332431  1.0000
  N   N18       1.0  0.6121968798600648  0.8749263456596593  0.23961778346588866  1.0000
  N   N19       1.0  0.8878051542105825  0.12507514702387107  0.7396185156917313  1.0000
  N   N20       1.0  0.1121941739686321  0.1250746668296756  0.2603829032934827  1.0000
  O   O1        1.0  0.7534414774661257  0.7445859842909924  0.0467930434266464  1.0000
  O   O2        1.0  0.2465553573551347  0.7445832170507954  0.9532071914224929  1.0000
  O   O3        1.0  0.2534437979165247  0.25541489656522026  0.4532050875676676  1.0000
  O   O4        1.0  0.7465553283913806  0.25541578141042004  0.5467930798970713  1.0000
  O   O5        1.0  0.8138859257658098  0.9112117516884551  0.910820412932175  1.0000
  O   O6        1.0  0.1861183201125911  0.9112102641272557  0.0891797165132004  1.0000
  O   O7        1.0  0.3138840814542689  0.08878954577767219  0.5891805653487909  1.0000
  O   O8        1.0  0.6861168367580248  0.08878831771863818  0.4108192920509382  1.0000
