data_image0
_chemical_formula_structural       Fe2H26C40N4O18
_chemical_formula_sum              "Fe2 H26 C40 N4 O18"
_cell_length_a       9.103617080404092
_cell_length_b       9.786521695527085
_cell_length_c       10.429682754507349
_cell_angle_alpha    79.76186281285216
_cell_angle_beta     86.82560005111127
_cell_angle_gamma    75.18990847581594

_space_group_name_H-M_alt    "P 1"
_space_group_IT_number       1

loop_
  _space_group_symop_operation_xyz
  'x, y, z'

loop_
  _atom_site_type_symbol
  _atom_site_label
  _atom_site_symmetry_multiplicity
  _atom_site_fract_x
  _atom_site_fract_y
  _atom_site_fract_z
  _atom_site_occupancy
  Fe  Fe1       1.0  0.7028833170412838  0.26347471295217423  0.1753381752913583  1.0000
  Fe  Fe2       1.0  0.29711756965459557  0.7365119833385381  0.8246551861809691  1.0000
  H   H1        1.0  0.7516742380476059  0.39349377727999285  0.9467885017378846  1.0000
  H   H2        1.0  0.24831699860016693  0.6065133122426333  0.053204881710122665  1.0000
  H   H3        1.0  0.8430779258252837  0.4281302932477902  0.06816576733988458  1.0000
  H   H4        1.0  0.1569157917841011  0.5718757175357609  0.9318257567683761  1.0000
  H   H5        1.0  0.3095800821483721  0.051271928001149505  0.48072078156161524  1.0000
  H   H6        1.0  0.6904216255951067  0.9487372191142925  0.5192727342629199  1.0000
  H   H7        1.0  0.3684344851146975  0.7070752015994374  0.3429236997867875  1.0000
  H   H8        1.0  0.6315647396284945  0.2929306924596489  0.6570819663713863  1.0000
  H   H9        1.0  0.7689541545484883  0.6512960652846973  0.38532968870597273  1.0000
  H   H10       1.0  0.23104148751646392  0.3487109258151762  0.6146759680273632  1.0000
  H   H11       1.0  0.9603737867803017  0.09679244084298234  0.345362359859088  1.0000
  H   H12       1.0  0.03962627341788046  0.9031974877614961  0.6546276396667423  1.0000
  H   H13       1.0  0.12290396628321085  0.8445641254981595  0.3706296380556964  1.0000
  H   H14       1.0  0.8771106940590058  0.15542882458476023  0.6293745254193369  1.0000
  H   H15       1.0  0.08516570395232742  0.6870997890173884  0.21550706060057215  1.0000
  H   H16       1.0  0.9148566744648933  0.31288024938088205  0.7845007521016926  1.0000
  H   H17       1.0  0.8967743725318229  0.7883936264902687  0.03813753108732242  1.0000
  H   H18       1.0  0.1032485568934476  0.211588553525317  0.9618689494364717  1.0000
  H   H19       1.0  0.742473222026817  0.9172218187530919  0.8729890847768615  1.0000
  H   H20       1.0  0.2575254597960138  0.08276918541829305  0.1270017639171286  1.0000
  H   H21       1.0  0.5102177124021593  0.047389809318275404  0.7464954014196296  1.0000
  H   H22       1.0  0.4897829011134646  0.9525980047558065  0.2534891622407116  1.0000
  H   H23       1.0  0.3423049105680676  0.2702886993891057  0.8194323648740109  1.0000
  H   H24       1.0  0.6576959772968818  0.7297023135674865  0.18055358454061118  1.0000
  H   H25       1.0  0.4227532322616341  0.3566862867988547  0.0083479393867094  1.0000
  H   H26       1.0  0.5772545451611037  0.6432993079777491  0.9916414413502821  1.0000
  C   C1        1.0  0.43602349167407795  0.48401412605483063  0.23427481704439404  1.0000
  C   C2        1.0  0.5639561686924707  0.5159951601516682  0.7657245075310968  1.0000
  C   C3        1.0  0.4725804246631071  0.4813919884045107  0.37318190328493034  1.0000
  C   C4        1.0  0.5273995094634358  0.5186161901049857  0.6268242998117586  1.0000
  C   C5        1.0  0.4261393692618327  0.6155334666052497  0.41284676426221983  1.0000
  C   C6        1.0  0.573851585799389  0.3844745944484914  0.5871656510902312  1.0000
  C   C7        1.0  0.5480535328071454  0.3616197812708252  0.4626195307871583  1.0000
  C   C8        1.0  0.4519365954665132  0.6383915070534985  0.5373904822642004  1.0000
  C   C9        1.0  0.5956448017203825  0.20881665913378103  0.43838692314066213  1.0000
  C   C10       1.0  0.4043607644712779  0.7911817255598168  0.5616139100644091  1.0000
  C   C11       1.0  0.8858819171285646  0.4277152315535133  0.27282640201747915  1.0000
  C   C12       1.0  0.11411400652293932  0.5722907880152449  0.7271602228114135  1.0000
  C   C13       1.0  0.9507514738761457  0.46007719357177046  0.3900397441180061  1.0000
  C   C14       1.0  0.04924967938082144  0.5399297514081811  0.6099666196297236  1.0000
  C   C15       1.0  0.871078546080646  0.5845594867987673  0.4352378726458852  1.0000
  C   C16       1.0  0.12891654440609554  0.41544964909058996  0.5647674620805747  1.0000
  C   C17       1.0  0.0819980746361111  0.37374274125183143  0.4555135920337606  1.0000
  C   C18       1.0  0.917999772021595  0.6262642334173453  0.5444919636471752  1.0000
  C   C19       1.0  0.17224976959046498  0.23957522552623092  0.41038803700942583  1.0000
  C   C20       1.0  0.8277527623508971  0.7604392419163091  0.5896093709724965  1.0000
  C   C21       1.0  0.9508495980553703  0.024124561157869102  0.28065001497109426  1.0000
  C   C22       1.0  0.049154314831866844  0.9758716901337653  0.719352200938637  1.0000
  C   C23       1.0  0.039742128630756185  0.8841704428574033  0.29296865454264065  1.0000
  C   C24       1.0  0.9602708789963615  0.11582468040306544  0.7070313988701429  1.0000
  C   C25       1.0  0.019350000190307488  0.7977995313580807  0.2060097674460906  1.0000
  C   C26       1.0  0.9806643840729309  0.20219448607639381  0.7939951946708989  1.0000
  C   C27       1.0  0.9137156797035928  0.8546424449759089  0.10671023429372178  1.0000
  C   C28       1.0  0.08629181759153678  0.14534844304086653  0.8932898066446101  1.0000
  C   C29       1.0  0.8274824751237871  0.9957678411716275  0.09933838162226746  1.0000
  C   C30       1.0  0.1725117954748399  0.0042188640657201  0.9006629601704006  1.0000
  C   C31       1.0  0.7022856619935992  0.06562383437630362  0.0103447159245604  1.0000
  C   C32       1.0  0.29772266352887283  0.9343595550926483  0.9896565025640314  1.0000
  C   C33       1.0  0.6683369927446208  0.013302338669319602  0.9022960905537688  1.0000
  C   C34       1.0  0.3316727097230156  0.9866885430031259  0.09770193004138147  1.0000
  C   C35       1.0  0.5383954017132808  0.08626977733983675  0.8311872317289541  1.0000
  C   C36       1.0  0.4616098909986732  0.913725423600795  0.16880933678564958  1.0000
  C   C37       1.0  0.44630653260934855  0.2099074994233163  0.8702970084006623  1.0000
  C   C38       1.0  0.5536907702679628  0.7900888667217674  0.12969303527614773  1.0000
  C   C39       1.0  0.48774464485966  0.25872523515801765  0.9767499324168939  1.0000
  C   C40       1.0  0.5122639556014688  0.7412656597729566  0.0232471790590623  1.0000
  N   N1        1.0  0.846966937141019  0.07776150782764552  0.1865748130688161  1.0000
  N   N2        1.0  0.15301630388424312  0.9222509425289616  0.8134276649731405  1.0000
  N   N3        1.0  0.6140832246933455  0.18906986337101025  0.0448346779589954  1.0000
  N   N4        1.0  0.3859239921843026  0.8109263128427673  0.9551769828260818  1.0000
  O   O1        1.0  0.8093649905588549  0.35010482383451363  0.031687022544659285  1.0000
  O   O2        1.0  0.190622111243151  0.6499012009388638  0.968311522238551  1.0000
  O   O3        1.0  0.5376760126583306  0.43069424344149354  0.15353507904989527  1.0000
  O   O4        1.0  0.46231494472187507  0.5693138579576954  0.8464696591394016  1.0000
  O   O5        1.0  0.305175191432582  0.5533885293862114  0.19638255862312803  1.0000
  O   O6        1.0  0.6948119071712424  0.4466131434190076  0.803630115735544  1.0000
  O   O7        1.0  0.601562003711514  0.17779374330049083  0.3217048784417358  1.0000
  O   O8        1.0  0.3984215104940035  0.8222175892727462  0.6783063974122072  1.0000
  O   O9        1.0  0.6244981031644131  0.11096065147405913  0.536161659116118  1.0000
  O   O10       1.0  0.37551517799032297  0.8890591380051592  0.4638247916064984  1.0000
  O   O11       1.0  0.8174937877428903  0.32528543200720617  0.29726557579407853  1.0000
  O   O12       1.0  0.18251040153236173  0.6747183499623618  0.7027277348760493  1.0000
  O   O13       1.0  0.8923215824806048  0.5073858199578326  0.164865504930809  1.0000
  O   O14       1.0  0.10767653936729717  0.49261147924392673  0.8351492779966067  1.0000
  O   O15       1.0  0.16407766486876343  0.2163659211711818  0.2989959992752844  1.0000
  O   O16       1.0  0.8359270702351582  0.7836570976110623  0.7009989589289631  1.0000
  O   O17       1.0  0.2589107414447227  0.15035018323923313  0.5045942205007989  1.0000
  O   O18       1.0  0.7410843522210371  0.8496547116319565  0.4954041316024487  1.0000
