data_image0
_chemical_formula_structural       Mn4Si2H40C56O20
_chemical_formula_sum              "Mn4 Si2 H40 C56 O20"
_cell_length_a       13.150836300559648
_cell_length_b       13.896820859728656
_cell_length_c       14.779945126671949
_cell_angle_alpha    116.44848173089875
_cell_angle_beta     114.79110057254944
_cell_angle_gamma    93.15357408897002

_space_group_name_H-M_alt    "P 1"
_space_group_IT_number       1

loop_
  _space_group_symop_operation_xyz
  'x, y, z'

loop_
  _atom_site_type_symbol
  _atom_site_label
  _atom_site_symmetry_multiplicity
  _atom_site_fract_x
  _atom_site_fract_y
  _atom_site_fract_z
  _atom_site_occupancy
  Mn  Mn1       1.0  0.5665998471606243  0.3163986426759919  0.6326139836681505  1.0000
  Mn  Mn2       1.0  0.4334593045326612  0.6835912612069773  0.36744278762074584  1.0000
  Mn  Mn3       1.0  0.5000113162307469  0.49999833614106837  0.5000084841896707  1.0000
  Mn  Mn4       1.0  0.49999954146959175  0.9999543511168837  0.5000119167107256  1.0000
  Si  Si1       1.0  0.7964752388706625  0.04653291876422829  0.09305089546496241  1.0000
  Si  Si2       1.0  0.20352537941366208  0.9534738604745027  0.9069560605625212  1.0000
  H   H1        1.0  0.6446009988648383  0.3646217815912322  0.48986928038508637  1.0000
  H   H2        1.0  0.3454249865797293  0.1252365017016359  0.48989833637729413  1.0000
  H   H3        1.0  0.35540006323662243  0.6353647931665236  0.5101307029621153  1.0000
  H   H4        1.0  0.6545922926470098  0.8747593619136252  0.5100905947861276  1.0000
  H   H5        1.0  0.7166465212738871  0.48385121108464796  0.5255677470333282  1.0000
  H   H6        1.0  0.308953503891665  0.0416165163846927  0.5254822979442791  1.0000
  H   H7        1.0  0.2833892406598792  0.5161177042378994  0.47442686810929746  1.0000
  H   H8        1.0  0.6910092035660396  0.9583978613542641  0.4744934832703434  1.0000
  H   H9        1.0  0.9623252152060567  0.0733135942132463  0.3201358973764739  1.0000
  H   H10       1.0  0.8577039289885705  0.246839853162264  0.32002664438263656  1.0000
  H   H11       1.0  0.03767898638660944  0.9266940413870443  0.6798619229025177  1.0000
  H   H12       1.0  0.1422863874569771  0.7531660778497694  0.6799801913687488  1.0000
  H   H13       1.0  0.17499377232860516  0.1646988583994613  0.4562853306446612  1.0000
  H   H14       1.0  0.7813530046665419  0.2914206445138774  0.4562440362924035  1.0000
  H   H15       1.0  0.8250105270687627  0.8353037327302458  0.5437056699169387  1.0000
  H   H16       1.0  0.21863600396264363  0.7085810792215953  0.5437591928544805  1.0000
  H   H17       1.0  0.2044920995526879  0.24919629970623447  0.2198480680607985  1.0000
  H   H18       1.0  0.5152862255004605  0.9705912886615092  0.2197716808551319  1.0000
  H   H19       1.0  0.7955104800761106  0.7508088112593825  0.7801474127182358  1.0000
  H   H20       1.0  0.48470134770193596  0.02941128734053679  0.780223254564035  1.0000
  H   H21       1.0  0.9910666758653407  0.1588413702204221  0.0825076733932733  1.0000
  H   H22       1.0  0.5913304995706524  0.9237073585507857  0.08246585917515854  1.0000
  H   H23       1.0  0.008937204566713309  0.8411679515682379  0.9174887064983535  1.0000
  H   H24       1.0  0.40865722441606067  0.07630110993815009  0.9175316084222799  1.0000
  H   H25       1.0  0.5801913617005069  0.8810680719672489  0.8781011736062608  1.0000
  H   H26       1.0  0.7975226831160497  0.9968801777345958  0.8779570607232895  1.0000
  H   H27       1.0  0.41980174845438967  0.11893619352294135  0.1218924671895962  1.0000
  H   H28       1.0  0.20248301595534463  0.003124076714172499  0.12205071997203727  1.0000
  H   H29       1.0  0.5210795498583208  0.6755052191098155  0.7415927439907006  1.0000
  H   H30       1.0  0.7202585938444698  0.06610283160139117  0.7414995850178413  1.0000
  H   H31       1.0  0.47891824910469427  0.3245007410968412  0.25839523003212855  1.0000
  H   H32       1.0  0.27973659055189154  0.9338972110187383  0.25850387653449036  1.0000
  H   H33       1.0  0.8574195885021678  0.6609619828184705  0.9542965421417192  1.0000
  H   H34       1.0  0.5969096272546252  0.29344633483791677  0.9542315531560701  1.0000
  H   H35       1.0  0.14258203641117007  0.33904818227914285  0.04569800184011538  1.0000
  H   H36       1.0  0.40309084550521845  0.7065545492540578  0.04577490131207183  1.0000
  H   H37       1.0  0.9190802678679404  0.8681186554540617  0.09241758673374537  1.0000
  H   H38       1.0  0.6733168990838365  0.2243073098331578  0.09234235883888428  1.0000
  H   H39       1.0  0.08091769239906198  0.13189319191976515  0.9075769807052151  1.0000
  H   H40       1.0  0.32669074661860253  0.7756977812886845  0.9076705554897158  1.0000
  C   C1        1.0  0.9601595566522575  0.10860381249343479  0.1906003245185204  1.0000
  C   C2        1.0  0.7303599620428826  0.08204737842923038  0.190553887706045  1.0000
  C   C3        1.0  0.03983967247771153  0.8914012981065155  0.809393912613089  1.0000
  C   C4        1.0  0.2696337424075423  0.9179560364762124  0.8094463821597202  1.0000
  C   C5        1.0  0.014878458072956794  0.11027363709948897  0.2963101837154126  1.0000
  C   C6        1.0  0.7813466294369459  0.18604492795381586  0.2962230445248719  1.0000
  C   C7        1.0  0.9851229627705179  0.8897331599630787  0.703683545764406  1.0000
  C   C8        1.0  0.21864258501538097  0.8139601629300728  0.7037816759969999  1.0000
  C   C9        1.0  0.13480527547022084  0.16145420160351154  0.37340712352426647  1.0000
  C   C10       1.0  0.7385785445492201  0.21185694764092486  0.3733345515263976  1.0000
  C   C11       1.0  0.8651959377968407  0.8385492291972481  0.626584437707585  1.0000
  C   C12       1.0  0.26140910122477823  0.7881430941564387  0.6266661118192544  1.0000
  C   C13       1.0  0.20337236927439048  0.2123940283469494  0.3461337589011818  1.0000
  C   C14       1.0  0.6427462814970042  0.13362891723760836  0.34605567455143665  1.0000
  C   C15       1.0  0.7966338750007437  0.7876094003424541  0.6538616984207194  1.0000
  C   C16       1.0  0.35724115845385274  0.866367757411332  0.6539434974192202  1.0000
  C   C17       1.0  0.15041418411720997  0.20979334277601677  0.24037672106492633  1.0000
  C   C18       1.0  0.5898521391246658  0.030547601514200596  0.24026050404098945  1.0000
  C   C19       1.0  0.8495889705210543  0.7902109273576768  0.7596179431812684  1.0000
  C   C20       1.0  0.4101354873632772  0.9694524500359947  0.759732713701922  1.0000
  C   C21       1.0  0.030464445085051795  0.15834535549659273  0.16359800441491498  1.0000
  C   C22       1.0  0.6330261669655994  0.005286168075997498  0.1635181765827838  1.0000
  C   C23       1.0  0.9695380742450935  0.8416622834673502  0.836396486548466  1.0000
  C   C24       1.0  0.366964128440614  0.9947197735754827  0.836480536692889  1.0000
  C   C25       1.0  0.3315439345186702  0.2715110728167359  0.4282604301527967  1.0000
  C   C26       1.0  0.5968332352787157  0.15659658441602184  0.4282289553200655  1.0000
  C   C27       1.0  0.6684725705826365  0.7284957223448674  0.5717416032322902  1.0000
  C   C28       1.0  0.40315086286435786  0.8433756604687089  0.5717722420897643  1.0000
  C   C29       1.0  0.7541809039115891  0.8898620219577251  0.9956470231289739  1.0000
  C   C30       1.0  0.7412370603062611  0.10570209969692705  0.9955281700533262  1.0000
  C   C31       1.0  0.245814349931095  0.1101464517870738  0.004349858310270354  1.0000
  C   C32       1.0  0.25876612413772887  0.8943021553642081  0.004478001033461984  1.0000
  C   C33       1.0  0.641566468840729  0.8337033487799629  0.896517587757998  1.0000
  C   C34       1.0  0.7546369773800236  0.06271714610468139  0.8963795538958618  1.0000
  C   C35       1.0  0.358429093889633  0.1663034449828089  0.10347599595776562  1.0000
  C   C36       1.0  0.2453678858199382  0.9372871073660533  0.10362859276058604  1.0000
  C   C37       1.0  0.6077354188506588  0.7184586547522471  0.8190427356075531  1.0000
  C   C38       1.0  0.7110708389761908  0.10056915205336742  0.818923825393696  1.0000
  C   C39       1.0  0.3922629018362827  0.28154898907433074  0.18094613955869926  1.0000
  C   C40       1.0  0.2889243969524387  0.8994283670015406  0.18107724160940822  1.0000
  C   C41       1.0  0.6864885935734789  0.6566143281541625  0.8393625633737541  1.0000
  C   C42       1.0  0.6527812679950101  0.18281698053658593  0.8392907859566064  1.0000
  C   C43       1.0  0.3135108788856726  0.3433916331219534  0.16062535559980515  1.0000
  C   C44       1.0  0.3472109421019596  0.8171788501910411  0.16071183153238874  1.0000
  C   C45       1.0  0.7977886033123838  0.7105845238688743  0.9394261916496163  1.0000
  C   C46       1.0  0.6415734880764887  0.2288712205055532  0.9393256059594819  1.0000
  C   C47       1.0  0.20221050522027176  0.28942564272772836  0.06056606585070057  1.0000
  C   C48       1.0  0.358426722068117  0.77112882266308  0.060679721063969856  1.0000
  C   C49       1.0  0.8311905974558936  0.8262989944823855  0.016247984669107037  1.0000
  C   C50       1.0  0.684978254141768  0.18996041542451542  0.01617390233118254  1.0000
  C   C51       1.0  0.1688065837317794  0.17371032568831882  0.9837465848006699  1.0000
  C   C52       1.0  0.3150208042306204  0.8100413102945866  0.9838323808849692  1.0000
  C   C53       1.0  0.6518171236390627  0.5345414024282035  0.7539120018476949  1.0000
  C   C54       1.0  0.6020638927886139  0.21948934320300847  0.753828646838258  1.0000
  C   C55       1.0  0.348179848218912  0.4654645523673152  0.2460797225011432  1.0000
  C   C56       1.0  0.3979218504922172  0.7804963783464416  0.24617273512659923  1.0000
  O   O1        1.0  0.6393153780593223  0.4289204216397307  0.47530930469721966  1.0000
  O   O2        1.0  0.33597885674632266  0.04632836361621878  0.47521665624145004  1.0000
  O   O3        1.0  0.3607050914283291  0.5710720521406286  0.524696977436001  1.0000
  O   O4        1.0  0.664034476998857  0.9536708480713469  0.5247864260701857  1.0000
  O   O5        1.0  0.38401189801738406  0.250775080269527  0.5104778477526607  1.0000
  O   O6        1.0  0.6267954429534797  0.2595519507038233  0.510463585581391  1.0000
  O   O7        1.0  0.6160067987974286  0.7492334013546935  0.4895236779806208  1.0000
  O   O8        1.0  0.373171138023629  0.7404287216125737  0.48952585631237594  1.0000
  O   O9        1.0  0.38152327040439354  0.3383523355684872  0.4125699063980548  1.0000
  O   O10       1.0  0.5311262746125393  0.07414485320140328  0.4125905445992828  1.0000
  O   O11       1.0  0.61848312465505  0.6616569856078057  0.5874280831021179  1.0000
  O   O12       1.0  0.4689114651299916  0.9258139192789444  0.5874323421838099  1.0000
  O   O13       1.0  0.5540020817545751  0.4898678323660093  0.6555406232362131  1.0000
  O   O14       1.0  0.6013657710133699  0.16564856440518838  0.6554331909560174  1.0000
  O   O15       1.0  0.44600197987937656  0.5101204440183409  0.34444765653044834  1.0000
  O   O16       1.0  0.3985986252633468  0.8343304179020948  0.3445594660814493  1.0000
  O   O17       1.0  0.713304897654204  0.47278007032311115  0.7763156384551521  1.0000
  O   O18       1.0  0.5631822694719658  0.3037607637154736  0.7761968518056291  1.0000
  O   O19       1.0  0.28669896280457857  0.527231759071604  0.22369531969927436  1.0000
  O   O20       1.0  0.43682235916520523  0.6962426346459907  0.2238209973737497  1.0000
