data_image0
_chemical_formula_structural       Zn4H52C60N4O16
_chemical_formula_sum              "Zn4 H52 C60 N4 O16"
_cell_length_a       11.571229478719005
_cell_length_b       11.57122199783469
_cell_length_c       14.508456494311961
_cell_angle_alpha    73.86029743586315
_cell_angle_beta     73.86029280946103
_cell_angle_gamma    68.7283129093575

_space_group_name_H-M_alt    "P 1"
_space_group_IT_number       1

loop_
  _space_group_symop_operation_xyz
  'x, y, z'

loop_
  _atom_site_type_symbol
  _atom_site_label
  _atom_site_symmetry_multiplicity
  _atom_site_fract_x
  _atom_site_fract_y
  _atom_site_fract_z
  _atom_site_occupancy
  Zn  Zn1       1.0  0.13333266438876726  0.49603566406359073  0.47496529264652315  1.0000
  Zn  Zn2       1.0  0.49603527936893205  0.1333332241950131  0.9749648746870961  1.0000
  Zn  Zn3       1.0  0.8666662037740095  0.5039651184328803  0.5250345952595482  1.0000
  Zn  Zn4       1.0  0.5039647831882376  0.8666666152864194  0.025034957188964337  1.0000
  H   H1        1.0  0.25325895206741217  0.2443034580317444  0.7583006553740859  1.0000
  H   H2        1.0  0.24430277667421046  0.2532587035513813  0.25830051619784206  1.0000
  H   H3        1.0  0.7467405180598872  0.7556982725824496  0.24169819777998214  1.0000
  H   H4        1.0  0.7556984792134144  0.7467401918508969  0.7416985708680669  1.0000
  H   H5        1.0  0.8081541929631298  0.0902981866696848  0.7513811568875114  1.0000
  H   H6        1.0  0.09029964719453423  0.8081532466944807  0.2513800789383964  1.0000
  H   H7        1.0  0.19184646308786288  0.9096997627431167  0.24862034249066764  1.0000
  H   H8        1.0  0.9097010183911036  0.19184754196879786  0.7486194069657942  1.0000
  H   H9        1.0  0.0014736575743227928  0.05311126876612351  0.6173724080782464  1.0000
  H   H10       1.0  0.05311098670497929  0.0014744927710807997  0.117371932169128  1.0000
  H   H11       1.0  0.9985270101392059  0.9468895220254012  0.38262845538620394  1.0000
  H   H12       1.0  0.9468908849375947  0.9985281942558901  0.882626861791323  1.0000
  H   H13       1.0  0.0690016458752112  0.8588706744850753  0.5468602985096426  1.0000
  H   H14       1.0  0.8588718013410241  0.06900130144663309  0.046861074644887465  1.0000
  H   H15       1.0  0.9309993143294475  0.1411291670156487  0.4531386435853405  1.0000
  H   H16       1.0  0.14113005970295223  0.9309985452657372  0.9531390440094257  1.0000
  H   H17       1.0  0.6111021274148951  0.6958478812346627  0.555443246103252  1.0000
  H   H18       1.0  0.695846433956795  0.611103760350332  0.055442848721718035  1.0000
  H   H19       1.0  0.3888982318891861  0.3041510132124543  0.44455741952386774  1.0000
  H   H20       1.0  0.30415094519256763  0.3888989123237393  0.9445576390235644  1.0000
  H   H21       1.0  0.33943346162998006  0.4901016776283953  0.6569177261060871  1.0000
  H   H22       1.0  0.49010114189574927  0.33943358396134465  0.15691952328264602  1.0000
  H   H23       1.0  0.6605677931936993  0.5098972167097597  0.34308067217969557  1.0000
  H   H24       1.0  0.5098977273309728  0.6605671995992493  0.8430810534035516  1.0000
  H   H25       1.0  0.7423780040411643  0.30463999558660493  0.6050015317071384  1.0000
  H   H26       1.0  0.30463916341229685  0.7423776257716097  0.10500149883667838  1.0000
  H   H27       1.0  0.25762415374972386  0.6953589060914497  0.39499942069823396  1.0000
  H   H28       1.0  0.6953588071029984  0.25762315470558406  0.894999278850463  1.0000
  H   H29       1.0  0.4793303565834037  0.2313731892728654  0.7469629694912854  1.0000
  H   H30       1.0  0.23137234745125568  0.47933068804522344  0.24696413971559383  1.0000
  H   H31       1.0  0.5206694113547526  0.7686275973711291  0.25303740619397536  1.0000
  H   H32       1.0  0.768627421550846  0.5206700996628938  0.7530369247498001  1.0000
  H   H33       1.0  0.6019159148044366  0.17720328549712147  0.6499434153035965  1.0000
  H   H34       1.0  0.1772038767492745  0.6019163996743657  0.1499435607056654  1.0000
  H   H35       1.0  0.3980835457882106  0.8227956058665882  0.3500574513244601  1.0000
  H   H36       1.0  0.8227949935413932  0.39808438495035137  0.8500577047606657  1.0000
  H   H37       1.0  0.44282714461200356  0.253740830521771  0.6312399988032027  1.0000
  H   H38       1.0  0.25374180442937433  0.44282699055733593  0.13124086652705805  1.0000
  H   H39       1.0  0.5571723149167055  0.7462580597778227  0.3687601790447204  1.0000
  H   H40       1.0  0.7462573615442591  0.5571728479689355  0.8687605439102057  1.0000
  H   H41       1.0  0.2639998900714957  0.7183352099047366  0.6083486216243726  1.0000
  H   H42       1.0  0.7183352727502451  0.26400096622977287  0.10834728476991977  1.0000
  H   H43       1.0  0.7359989802191719  0.2816655747199731  0.3916526438419652  1.0000
  H   H44       1.0  0.28166539283539277  0.7359998224335058  0.8916522011342707  1.0000
  H   H45       1.0  0.3727760796120307  0.8025952416667151  0.5401443452902086  1.0000
  H   H46       1.0  0.8025949341108783  0.3727771954179389  0.04014377391445122  1.0000
  H   H47       1.0  0.6272239840090917  0.1974045988788404  0.4598561753659781  1.0000
  H   H48       1.0  0.19740453814431186  0.6272245373245013  0.9598564567998834  1.0000
  H   H49       1.0  0.3409628466267093  0.7736836230546938  0.6695250507866461  1.0000
  H   H50       1.0  0.7736848595583863  0.3409612708994203  0.16952473487468464  1.0000
  H   H51       1.0  0.6590393101002332  0.22631527755923742  0.3304752128385927  1.0000
  H   H52       1.0  0.22631520406272912  0.6590385696461423  0.830475785781509  1.0000
  C   C1        1.0  0.060260612494388945  0.33052472923258597  0.6553111450096338  1.0000
  C   C2        1.0  0.3305245248067194  0.06025922938107439  0.15531181317239628  1.0000
  C   C3        1.0  0.9397457527053344  0.6694779732114071  0.344686643946126  1.0000
  C   C4        1.0  0.6694776552452948  0.939745353990304  0.8446871786253922  1.0000
  C   C5        1.0  0.3162212355314438  0.049385520634331194  0.9106428152562103  1.0000
  C   C6        1.0  0.04938506124211268  0.31622240015109065  0.4106423379567019  1.0000
  C   C7        1.0  0.6837782695834704  0.9506247341160331  0.08935413015668556  1.0000
  C   C8        1.0  0.9506236895545682  0.6837784130704705  0.5893532725986362  1.0000
  C   C9        1.0  0.20643111384627127  0.0855344272088558  0.861921464786569  1.0000
  C   C10       1.0  0.08553445173134831  0.2064313113241311  0.3619217695505981  1.0000
  C   C11       1.0  0.7935701420413462  0.9144644681934224  0.1380776222793473  1.0000
  C   C12       1.0  0.9144650077973607  0.7935675789754624  0.638078408297332  1.0000
  C   C13       1.0  0.1864356128141793  0.19056430855628997  0.7852382873242902  1.0000
  C   C14       1.0  0.19056500162633236  0.18643367627529264  0.2852382167094731  1.0000
  C   C15       1.0  0.8135686476171814  0.8094364924406108  0.21476039457613894  1.0000
  C   C16       1.0  0.8094365626707399  0.8135671154714001  0.7147610681937734  1.0000
  C   C17       1.0  0.08084372466075959  0.2256998070785556  0.7430676778517622  1.0000
  C   C18       1.0  0.22570089972133192  0.0808422029595164  0.2430681006023647  1.0000
  C   C19       1.0  0.9191539374450882  0.7742990770542307  0.2569329019980414  1.0000
  C   C20       1.0  0.7743000424779748  0.9191519611043689  0.7569355572207357  1.0000
  C   C21       1.0  0.8412661133684266  0.006993100034947  0.7189747310696505  1.0000
  C   C22       1.0  0.00699445939551419  0.8412656480635475  0.21897358035080577  1.0000
  C   C23       1.0  0.1587351478389252  0.993005800687939  0.2810277998969326  1.0000
  C   C24       1.0  0.9930074027124077  0.15873419971294567  0.7810272270836408  1.0000
  C   C25       1.0  0.9477518573189768  0.9859957867110795  0.6443283581905702  1.0000
  C   C26       1.0  0.9859975214252824  0.9477507018302234  0.14432718857883486  1.0000
  C   C27       1.0  0.05224969957133398  0.0140021679133753  0.3556743177469386  1.0000
  C   C28       1.0  0.01400254219583989  0.05224913871533232  0.8556733320773589  1.0000
  C   C29       1.0  0.9857136332971518  0.8778669829876123  0.6050163664146311  1.0000
  C   C30       1.0  0.8778673288453473  0.9857129106284505  0.1050161140609517  1.0000
  C   C31       1.0  0.014288830775292588  0.12213381290660409  0.3949834062678192  1.0000
  C   C32       1.0  0.12213393870481326  0.014288826152551304  0.8949823370912356  1.0000
  C   C33       1.0  0.5860042067976676  0.6083540462537513  0.5795524765794298  1.0000
  C   C34       1.0  0.6083539241731655  0.5860038071042267  0.07955293250076773  1.0000
  C   C35       1.0  0.4139961514424684  0.3916448471292425  0.42044750026755645  1.0000
  C   C36       1.0  0.3916449450535567  0.4139969764563672  0.9204476441854297  1.0000
  C   C37       1.0  0.459643119852714  0.6098220874014899  0.607857876100091  1.0000
  C   C38       1.0  0.609822414851706  0.4596429204878659  0.10785817412575943  1.0000
  C   C39       1.0  0.540358137098856  0.3901768090649184  0.3921418997459512  1.0000
  C   C40       1.0  0.3901773530864432  0.5403578661561353  0.8921422015595013  1.0000
  C   C41       1.0  0.4368437886331263  0.4930691846216391  0.6366033264194044  1.0000
  C   C42       1.0  0.49306961380152364  0.4368432916233402  0.1366050562121402  1.0000
  C   C43       1.0  0.5631574651266077  0.5069297086523931  0.36339438308623784  1.0000
  C   C44       1.0  0.5069301530726873  0.5631574939565381  0.8633946306929944  1.0000
  C   C45       1.0  0.5371622149081218  0.37966110259668545  0.6375323674896407  1.0000
  C   C46       1.0  0.37966111109380296  0.5371614393442526  0.13753358569759655  1.0000
  C   C47       1.0  0.462839040979503  0.6203377928055929  0.3624667195762683  1.0000
  C   C48       1.0  0.6203377581329192  0.46283934421634143  0.8624669909886008  1.0000
  C   C49       1.0  0.6596640145101202  0.3888377520473014  0.6077600621539931  1.0000
  C   C50       1.0  0.3888378182446529  0.6596643894307163  0.10776033338354554  1.0000
  C   C51       1.0  0.34033634373001576  0.6111611413356924  0.39223991469299346  1.0000
  C   C52       1.0  0.6111598555237305  0.3403373360807861  0.8922396105525368  1.0000
  C   C53       1.0  0.5145320040137021  0.25365722013165026  0.6675818004702238  1.0000
  C   C54       1.0  0.2536581893487621  0.5145316448624796  0.16758203302708097  1.0000
  C   C55       1.0  0.48546925293786086  0.7463416763347509  0.3324179753758259  1.0000
  C   C56       1.0  0.746340679877967  0.4854691386981144  0.8324185436591237  1.0000
  C   C57       1.0  0.35356699582603557  0.7324704218749146  0.6062070608878685  1.0000
  C   C58       1.0  0.732469954258647  0.35356685161912077  0.10620681122933463  1.0000
  C   C59       1.0  0.6464342621894801  0.2675284756556096  0.39379340373831434  1.0000
  C   C60       1.0  0.26752891390412964  0.6464339308773502  0.8937930766767367  1.0000
  N   N1        1.0  0.6833217895699163  0.5005231692775567  0.5789891863734198  1.0000
  N   N2        1.0  0.5005234011941935  0.6833221781560254  0.07898871937972271  1.0000
  N   N3        1.0  0.3166797641285584  0.49947478215452884  0.421011423223689  1.0000
  N   N4        1.0  0.4994742736381354  0.31667954841960005  0.9210119133364926  1.0000
  O   O1        1.0  0.1544226075295256  0.3678086236629667  0.6055375085230708  1.0000
  O   O2        1.0  0.36780857256067623  0.15442195093478261  0.10553798638404291  1.0000
  O   O3        1.0  0.8455690709418133  0.6321921341662602  0.394463987390509  1.0000
  O   O4        1.0  0.6321926504672246  0.8455684224595713  0.8944643859833195  1.0000
  O   O5        1.0  0.35905865119327973  0.9330515722475778  0.9491811636477722  1.0000
  O   O6        1.0  0.933050828164937  0.3590585699544491  0.44918025240693993  1.0000
  O   O7        1.0  0.6409434949350724  0.0669444880517531  0.050820424671329086  1.0000
  O   O8        1.0  0.06694235204629706  0.6409431401400312  0.5508206965338404  1.0000
  O   O9        1.0  0.35592331760104656  0.13876120337675957  0.9105766991786198  1.0000
  O   O10       1.0  0.13876103072340829  0.355922903852921  0.4105758154448935  1.0000
  O   O11       1.0  0.6440749337428429  0.8612357864308959  0.08942279305276903  1.0000
  O   O12       1.0  0.8612351275146531  0.6440750258863659  0.5894239338174501  1.0000
  O   O13       1.0  0.9496898512912038  0.3713320112900718  0.6363468459833966  1.0000
  O   O14       1.0  0.3713312307015145  0.9496899611761687  0.13634670716461267  1.0000
  O   O15       1.0  0.05030212073521058  0.6286677983124774  0.36365341734084927  1.0000
  O   O16       1.0  0.6286687958041027  0.05030135310497031  0.8636543436724864  1.0000
