data_image0
_chemical_formula_structural       Ag8H40C32N16O16
_chemical_formula_sum              "Ag8 H40 C32 N16 O16"
_cell_length_a       3.939958016
_cell_length_b       11.269156218
_cell_length_c       27.807
_cell_angle_alpha    90.0
_cell_angle_beta     90.0
_cell_angle_gamma    90.0

_space_group_name_H-M_alt    "P 1"
_space_group_IT_number       1

loop_
  _space_group_symop_operation_xyz
  'x, y, z'

loop_
  _atom_site_type_symbol
  _atom_site_label
  _atom_site_symmetry_multiplicity
  _atom_site_fract_x
  _atom_site_fract_y
  _atom_site_fract_z
  _atom_site_occupancy
  Ag  Ag1       1.0  0.0374623281264945  0.3913513944332152  0.0263311396410941  1.0000
  Ag  Ag2       1.0  0.4625455379471718  0.6086480537952212  0.5263264645592827  1.0000
  Ag  Ag3       1.0  0.962561018315178  0.8913559991257927  0.4736688603589059  1.0000
  Ag  Ag4       1.0  0.5374498894152708  0.1086407869689907  0.9736728161973573  1.0000
  Ag  Ag5       1.0  0.9625686326095109  0.6086462790394549  0.9736756931707831  1.0000
  Ag  Ag6       1.0  0.5374346608265982  0.3913567187005143  0.47366921998057887  1.0000
  Ag  Ag7       1.0  0.0374496376359374  0.1086478859920632  0.5263250260725698  1.0000
  Ag  Ag8       1.0  0.4625429998490632  0.8913515622363661  0.0263307800194212  1.0000
  H   H1        1.0  0.573361439595601  0.5476079912835914  0.2160653792210567  1.0000
  H   H2        1.0  0.9266190109575021  0.4523852452996522  0.716054950192401  1.0000
  H   H3        1.0  0.4266822116309612  0.04761492250350591  0.2839335419139033  1.0000
  H   H4        1.0  0.07334342112949342  0.9523871878585767  0.7839382169957219  1.0000
  H   H5        1.0  0.4266263734725016  0.45239056956695123  0.783945409429279  1.0000
  H   H6        1.0  0.0733764164049404  0.5476310631085824  0.2839385766174018  1.0000
  H   H7        1.0  0.5733132157314813  0.9523951742595289  0.7160614233825984  1.0000
  H   H8        1.0  0.9266976919989602  0.0476007244573609  0.2160621426259581  1.0000
  H   H9        1.0  0.8849967400261747  0.648520604260206  0.1933772071780453  1.0000
  H   H10       1.0  0.6149862486250444  0.3514735197009244  0.6933667781493895  1.0000
  H   H11       1.0  0.11504437310227193  0.1485293102358867  0.3066206350918819  1.0000
  H   H12       1.0  0.38498887395250864  0.8514745748819622  0.8066238716869876  1.0000
  H   H13       1.0  0.11498853494381933  0.3514779565903439  0.8066343007156506  1.0000
  H   H14       1.0  0.3849990263449571  0.648542788707303  0.306628906390479  1.0000
  H   H15       1.0  0.8849637447507279  0.8514763496377358  0.6933764879346924  1.0000
  H   H16       1.0  0.6150598534702783  0.14851777432339472  0.1933775667997253  1.0000
  H   H17       1.0  0.9547462142297081  0.49128966649310973  0.1903218614018058  1.0000
  H   H18       1.0  0.5452393125196198  0.5087053448459004  0.6903128708598558  1.0000
  H   H19       1.0  0.045279670310073114  0.9912969333193404  0.3096749020030956  1.0000
  H   H20       1.0  0.4547155052730362  0.0087060644206289  0.809679217463227  1.0000
  H   H21       1.0  0.045241598838394716  0.5087106691132064  0.8096900061135699  1.0000
  H   H22       1.0  0.4547535767447145  0.4913109635623272  0.30967993670658706  1.0000
  H   H23       1.0  0.9546954522674798  0.0087105013100484  0.6903193440500601  1.0000
  H   H24       1.0  0.5453002268742964  0.9912862847847351  0.1903215017801259  1.0000
  H   H25       1.0  0.8338159916067482  0.6986326081294933  0.0977667493796517  1.0000
  H   H26       1.0  0.6661669970444707  0.3013659527210564  0.597755601107636  1.0000
  H   H27       1.0  0.1661845119519185  0.1986297781926822  0.4022339698637012  1.0000
  H   H28       1.0  0.3338182779255306  0.8013643457684482  0.9022379257021598  1.0000
  H   H29       1.0  0.16618197385380284  0.3013668400989431  0.9022451181357241  1.0000
  H   H30       1.0  0.333815739827415  0.6986405945304456  0.4022393641888726  1.0000
  H   H31       1.0  0.8338185297048641  0.8013652331463349  0.5977613550544802  1.0000
  H   H32       1.0  0.6661847637312521  0.19863066557056192  0.0977627935411931  1.0000
  H   H33       1.0  0.44164683809665933  0.7385371041983007  0.1246092710468574  1.0000
  H   H34       1.0  0.05834579938833431  0.26145879451859605  0.6245984823965216  1.0000
  H   H35       1.0  0.5583562035601164  0.23853693639514262  0.3753950444132741  1.0000
  H   H36       1.0  0.9416267850911026  0.7614554128102142  0.8753972021433469  1.0000
  H   H37       1.0  0.5583536654620005  0.26145879451859605  0.8753997194950927  1.0000
  H   H38       1.0  0.94163947558166  0.7385459779771396  0.3753957636566341  1.0000
  H   H39       1.0  0.4416189190174365  0.7614571875659806  0.6246013593699402  1.0000
  H   H40       1.0  0.0583534136826671  0.2385404859066824  0.1246042363433659  1.0000
  C   C1        1.0  0.7637822504147211  0.5621068585314363  0.1876951846657349  1.0000
  C   C2        1.0  0.7361982001383824  0.4378828285402676  0.6876869133671377  1.0000
  C   C3        1.0  0.2362410960269514  0.0621208887744231  0.3123033768475594  1.0000
  C   C4        1.0  0.2637693081448305  0.9378847710991921  0.8123076923076908  1.0000
  C   C5        1.0  0.23621317694772165  0.4378890401854606  0.8123130866328623  1.0000
  C   C6        1.0  0.263792151027836  0.562127268222774  0.3123073326860109  1.0000
  C   C7        1.0  0.7637467170411583  0.9378909827443851  0.6876937461790221  1.0000
  C   C8        1.0  0.7362591144930591  0.0621093528619312  0.1876962635307677  1.0000
  C   C9        1.0  0.44424077436666926  0.4667723029341033  0.1212608336030527  1.0000
  C   C10       1.0  0.0557493250202157  0.533221821027027  0.6212525623044556  1.0000
  C   C11       1.0  0.5557622672901061  0.9667760202487942  0.3787373682885615  1.0000
  C   C12       1.0  0.9442613309308927  0.0331923697536922  0.8787459992088316  1.0000
  C   C13       1.0  0.5557622672901061  0.5332200462712606  0.8787495954256102  1.0000
  C   C14       1.0  0.944266407127117  0.4667953747590872  0.378742762613733  1.0000
  C   C15       1.0  0.4442458505628935  0.0332021309104178  0.6212540007911684  1.0000
  C   C16       1.0  0.0557848583937783  0.9667671464699552  0.121258316251307  1.0000
  C   C17       1.0  0.3923518965741196  0.6126350426283551  0.0670762757579055  1.0000
  C   C18       1.0  0.1076458171071053  0.3873679551116141  0.5670651274858827  1.0000
  C   C19       1.0  0.6076486069845473  0.11263132531365733  0.43292444348545445  1.0000
  C   C20       1.0  0.8923445340591132  0.8873583617580465  0.9329298378106259  1.0000
  C   C21       1.0  0.6076562212788801  0.3873608560885415  0.9329337936490845  1.0000
  C   C22       1.0  0.8923470721572289  0.6126368173841215  0.4329294781889459  1.0000
  C   C23       1.0  0.3923544346722282  0.8873690102926589  0.5670705218110541  1.0000
  C   C24       1.0  0.1076585075976624  0.1126331000694236  0.067071960297767  1.0000
  C   C25       1.0  0.5853006531123413  0.6637746300873958  0.1088592800374002  1.0000
  C   C26       1.0  0.9146823355388778  0.3362194938737347  0.6088492106304173  1.0000
  C   C27       1.0  0.4147049266425498  0.1637806739294234  0.3911428776926655  1.0000
  C   C28       1.0  0.085292787038675  0.8362143374095865  0.8911471931528041  1.0000
  C   C29       1.0  0.4147074647406584  0.336221268629501  0.8911515086129427  1.0000
  C   C30       1.0  0.0853029394311164  0.6637861659998876  0.3911468335311241  1.0000
  C   C31       1.0  0.5852803483274445  0.8362223238105457  0.6088528068471959  1.0000
  C   C32       1.0  0.9147077165199919  0.1637753496621173  0.1088546049555887  1.0000
  N   N1        1.0  0.6082120647653115  0.5620882235958717  0.1405264861365865  1.0000
  N   N2        1.0  0.8917633095915678  0.4379076751210249  0.6405182148379893  1.0000
  N   N3        1.0  0.3918011292839126  0.0620862810369474  0.35947207537670073  1.0000
  N   N4        1.0  0.10819912249542092  0.9379096176799494  0.8594771100801921  1.0000
  N   N5        1.0  0.39178336259713126  0.4379085624989045  0.8594832236487235  1.0000
  N   N6        1.0  0.10822450347653503  0.56210153426413  0.3594781889452321  1.0000
  N   N7        1.0  0.6081790694898643  0.9379105050578361  0.640520732189735  1.0000
  N   N8        1.0  0.8918039191613547  0.06209338006001991  0.1405232495414808  1.0000
  N   N9        1.0  0.312787596973216  0.4993648052381659  0.0753709497608526  1.0000
  N   N10       1.0  0.1871999643155604  0.5006310934787309  0.5753633977056154  1.0000
  N   N11       1.0  0.6872129065854511  0.9993623109076708  0.4246268925090817  1.0000
  N   N12       1.0  0.8127853106544338  0.0006282635419197  0.9246340849426389  1.0000
  N   N13       1.0  0.6872179827816753  0.5006302061008513  0.9246369619160646  1.0000
  N   N14       1.0  0.8127980011449978  0.49937279163911813  0.4246308483475403  1.0000
  N   N15       1.0  0.31279013507132464  0.0006318130534595  0.5753644765706483  1.0000
  N   N16       1.0  0.18722280719856604  0.9993702973086229  0.0753691516524597  1.0000
  O   O1        1.0  0.4107708745696429  0.3685129498308656  0.1406228647462839  1.0000
  O   O2        1.0  0.08922683911157493  0.6314811741302648  0.6406181896644725  1.0000
  O   O3        1.0  0.5892321670871328  0.8685140050119033  0.3593721005502246  1.0000
  O   O4        1.0  0.910778740643309  0.1314907674838324  0.8593742582802905  1.0000
  O   O5        1.0  0.5892397813814654  0.6314882731533374  0.8593843276872732  1.0000
  O   O6        1.0  0.9107914311338661  0.3685156119645185  0.3593731794152575  1.0000
  O   O7        1.0  0.4107556459809771  0.1314969791290181  0.6406232243679639  1.0000
  O   O8        1.0  0.0892547581908048  0.8685175545234431  0.1406217858812511  1.0000
  O   O9        1.0  0.3155363572280265  0.6736422721582684  0.0300679684971428  1.0000
  O   O10       1.0  0.1844385135701927  0.3263607255817007  0.5300578990901599  1.0000
  O   O11       1.0  0.6844616082325246  0.1736367800878043  0.46993131225950446  1.0000
  O   O12       1.0  0.8155264566149114  0.826360006006972  0.9699388643147415  1.0000
  O   O13       1.0  0.684474298723089  0.3263589508259344  0.9699388643147415  1.0000
  O   O14       1.0  0.8155289947130273  0.6736404974025021  0.4699363469629958  1.0000
  O   O15       1.0  0.315554123914808  0.8263662176521649  0.5300593375768727  1.0000
  O   O16       1.0  0.18445881835508265  0.173637667465691  0.0300647319020371  1.0000
