data_image0
_chemical_formula_structural       Ag4H32C16S8N4O12
_chemical_formula_sum              "Ag4 H32 C16 S8 N4 O12"
_cell_length_a       7.0855857248146314
_cell_length_b       7.818317893808902
_cell_length_c       15.712282958104524
_cell_angle_alpha    89.99719068827362
_cell_angle_beta     93.09495418131543
_cell_angle_gamma    89.99912557425024

_space_group_name_H-M_alt    "P 1"
_space_group_IT_number       1

loop_
  _space_group_symop_operation_xyz
  'x, y, z'

loop_
  _atom_site_type_symbol
  _atom_site_label
  _atom_site_symmetry_multiplicity
  _atom_site_fract_x
  _atom_site_fract_y
  _atom_site_fract_z
  _atom_site_occupancy
  Ag  Ag1       1.0  0.20070227300301724  0.9535591671192094  0.9994738064850994  1.0000
  Ag  Ag2       1.0  0.7006763138730747  0.5464415192251694  0.4994766736006682  1.0000
  Ag  Ag3       1.0  0.7993276076712093  0.0464470679093338  0.0005325057945952998  1.0000
  Ag  Ag4       1.0  0.2993054915213236  0.45353529852817326  0.5005283849357198  1.0000
  H   H1        1.0  0.9058951256685432  0.8763842375422753  0.8033306525380796  1.0000
  H   H2        1.0  0.4059022950176542  0.6236030971950868  0.303319618828148  1.0000
  H   H3        1.0  0.0941026917032985  0.12361048537488978  0.19668288812371773  1.0000
  H   H4        1.0  0.59412465139107  0.37640825435850894  0.6966847459208266  1.0000
  H   H5        1.0  0.9627549276020774  0.050529832838165596  0.7332296489005614  1.0000
  H   H6        1.0  0.46276934975047357  0.4494515350175804  0.23322358367300217  1.0000
  H   H7        1.0  0.03724256444672851  0.9494521004820483  0.2667781575405571  1.0000
  H   H8        1.0  0.5372406055286234  0.5505572587926223  0.766779926430843  1.0000
  H   H9        1.0  0.9041354993195655  0.3814642238645262  0.7799789681832792  1.0000
  H   H10       1.0  0.4041684924424516  0.11853767726577051  0.2799751335518152  1.0000
  H   H11       1.0  0.09585329837031514  0.6185317796906417  0.2200249069985674  1.0000
  H   H12       1.0  0.5958350159772579  0.8814966997256308  0.7200142878289668  1.0000
  H   H13       1.0  0.8106841384526221  0.435610364906637  0.8788271164063346  1.0000
  H   H14       1.0  0.31069594280280904  0.06435489012658022  0.3788228378947807  1.0000
  H   H15       1.0  0.1893199121366393  0.5643881972911798  0.1211718612461965  1.0000
  H   H16       1.0  0.6892930026919828  0.9356475120597308  0.6211587564139478  1.0000
  H   H17       1.0  0.10220990183155011  0.3108686756764952  0.9563348585733493  1.0000
  H   H18       1.0  0.6022128482932346  0.18912443077289953  0.4563501805740344  1.0000
  H   H19       1.0  0.8977989329265557  0.6891541906807745  0.04364890110193902  1.0000
  H   H20       1.0  0.3977938112416695  0.810861341492938  0.5436450104568422  1.0000
  H   H21       1.0  0.155212275385594  0.48221830873983146  0.8880999971402945  1.0000
  H   H22       1.0  0.6552223264217005  0.0177724702135862  0.3881152943421214  1.0000
  H   H23       1.0  0.8447925013449125  0.5177840924330752  0.1118868934714925  1.0000
  H   H24       1.0  0.34475850303698513  0.9822196987440678  0.6118725622494168  1.0000
  H   H25       1.0  0.38599360450217546  0.2533219268023643  0.8722958221535818  1.0000
  H   H26       1.0  0.8860005720885552  0.24668044649772722  0.3723076382741867  1.0000
  H   H27       1.0  0.6140128381655431  0.746679194618906  0.127695546382256  1.0000
  H   H28       1.0  0.1140086602466681  0.7532938149811984  0.6276831290354536  1.0000
  H   H29       1.0  0.2445491741422288  0.2734925241142392  0.7751619920643691  1.0000
  H   H30       1.0  0.7445812599547494  0.22650732785557887  0.27516849888434786  1.0000
  H   H31       1.0  0.7554404942630484  0.7264906904082123  0.2248323443213778  1.0000
  H   H32       1.0  0.2554154007428266  0.7734899562786809  0.7248246540785459  1.0000
  C   C1        1.0  0.9572669673268026  0.008320125802306701  0.7999251227617066  1.0000
  C   C2        1.0  0.4572732536318894  0.4916666368402005  0.2999251728337883  1.0000
  C   C3        1.0  0.0427292925406348  0.9916669232412615  0.2000858512064738  1.0000
  C   C4        1.0  0.5427351802936826  0.5083421572838702  0.7000764077955567  1.0000
  C   C5        1.0  0.904274727116423  0.3459820681115744  0.8477589942329332  1.0000
  C   C6        1.0  0.4042951926877124  0.1540017282338297  0.3477584921147995  1.0000
  C   C7        1.0  0.0957266783707311  0.6540126564982457  0.15224313270260134  1.0000
  C   C8        1.0  0.59571527185512  0.8460096260893479  0.6522291082312821  1.0000
  C   C9        1.0  0.10332580898560198  0.3496609370121179  0.888902673455533  1.0000
  C   C10       1.0  0.6033454814758629  0.1503386241162303  0.38891399166113433  1.0000
  C   C11       1.0  0.8966736052587977  0.6503504167974654  0.1110892417109426  1.0000
  C   C12       1.0  0.39665972900252916  0.8496548225533614  0.6110805442310081  1.0000
  C   C13       1.0  0.24287906022475172  0.2395976766389865  0.8430289704705134  1.0000
  C   C14       1.0  0.7429054642090235  0.2603802545348374  0.3430350352928357  1.0000
  C   C15       1.0  0.7571108611962103  0.7603740257729754  0.15696982557815187  1.0000
  C   C16       1.0  0.25708659628107705  0.7396157515910884  0.656951692112834  1.0000
  S   S1        1.0  0.1954156668939504  0.011419480695387597  0.8468112562138401  1.0000
  S   S2        1.0  0.6954131564538601  0.4885674898257689  0.3468064862198119  1.0000
  S   S3        1.0  0.8045902665076455  0.9885752430704001  0.15319602202853133  1.0000
  S   S4        1.0  0.30460089298066617  0.5114323509786586  0.6531945296714526  1.0000
  S   S5        1.0  0.7881568134940552  0.13880796053926045  0.8518380483616285  1.0000
  S   S6        1.0  0.2881657272506999  0.3611635495082126  0.35183401320643537  1.0000
  S   S7        1.0  0.21184477272051794  0.8611816473927265  0.1481672640888902  1.0000
  S   S8        1.0  0.7118354613692759  0.6388465242570475  0.6481642912340605  1.0000
  N   N1        1.0  0.4404789550037975  0.27860800092294374  0.0832678014080059  1.0000
  N   N2        1.0  0.9404562316287582  0.22140046712929973  0.5832776828272229  1.0000
  N   N3        1.0  0.55949469823301  0.7213982341719144  0.9167428828238898  1.0000
  N   N4        1.0  0.059495396535787407  0.7786313514772019  0.416718076195167  1.0000
  O   O1        1.0  0.46730823801508603  0.18408313201048537  0.018425073743003402  1.0000
  O   O2        1.0  0.9672903801614156  0.31592521681704255  0.5184216236510438  1.0000
  O   O3        1.0  0.5326979122680058  0.81591926545493  0.9815860273017736  1.0000
  O   O4        1.0  0.032704322182524906  0.6840234612128595  0.4815867832137074  1.0000
  O   O5        1.0  0.280124798232265  0.27731973366094553  0.1155111169425709  1.0000
  O   O6        1.0  0.7801089603187706  0.22271250382376448  0.6155179381164828  1.0000
  O   O7        1.0  0.7198991054869098  0.7227197575654573  0.8844893892330745  1.0000
  O   O8        1.0  0.2198606381132606  0.7772835022506326  0.384471047763391  1.0000
  O   O9        1.0  0.5730995101755667  0.3703987853159987  0.11428684653824923  1.0000
  O   O10       1.0  0.07307720496056902  0.12960468441126943  0.6143027282505429  1.0000
  O   O11       1.0  0.42692921060793043  0.6296100071457642  0.8857239074676715  1.0000
  O   O12       1.0  0.926916731930426  0.8704220099974548  0.3857419590562685  1.0000
