data_image0
_chemical_formula_structural       Cd2H32C44N4O10
_chemical_formula_sum              "Cd2 H32 C44 N4 O10"
_cell_length_a       8.800477811577696
_cell_length_b       11.143797676079672
_cell_length_c       12.587622651438556
_cell_angle_alpha    111.39233920245897
_cell_angle_beta     109.75989978766299
_cell_angle_gamma    94.6166131775739

_space_group_name_H-M_alt    "P 1"
_space_group_IT_number       1

loop_
  _space_group_symop_operation_xyz
  'x, y, z'

loop_
  _atom_site_type_symbol
  _atom_site_label
  _atom_site_symmetry_multiplicity
  _atom_site_fract_x
  _atom_site_fract_y
  _atom_site_fract_z
  _atom_site_occupancy
  Cd  Cd1       1.0  0.11223683265029649  0.37692884290858336  0.5325981085910882  1.0000
  Cd  Cd2       1.0  0.8877586789612478  0.6230752067373047  0.4674049333077902  1.0000
  H   H1        1.0  0.6836461956630655  0.23630775018042272  0.642144345300103  1.0000
  H   H2        1.0  0.31634969127195944  0.763693265473272  0.3578514731355469  1.0000
  H   H3        1.0  0.7773508212533357  0.17090754132038907  0.8195153698554518  1.0000
  H   H4        1.0  0.22265051747967846  0.8290914680464709  0.1804803332336745  1.0000
  H   H5        1.0  0.8187310588800613  0.5701614688868091  0.06948690458451517  1.0000
  H   H6        1.0  0.18127745961513136  0.4298415157432984  0.9305149604103985  1.0000
  H   H7        1.0  0.728164258211912  0.6329718364806354  0.8939098981662921  1.0000
  H   H8        1.0  0.27183341951729284  0.3670272338513527  0.10609050398074518  1.0000
  H   H9        1.0  0.6673310154507277  0.4161288158773431  0.5705856985880613  1.0000
  H   H10       1.0  0.3326660478861072  0.5838722324756772  0.4294143857746916  1.0000
  H   H11       1.0  0.6850619726693736  0.581371485463535  0.6744871733105171  1.0000
  H   H12       1.0  0.31493148957200384  0.41862955155320947  0.32550965700141876  1.0000
  H   H13       1.0  0.7718684757087502  0.4446429419885122  0.17811764491451498  1.0000
  H   H14       1.0  0.22813976178171913  0.5553590372814201  0.8218822460089895  1.0000
  H   H15       1.0  0.9776937537537478  0.5033856201568909  0.19530215274259177  1.0000
  H   H16       1.0  0.022311105272244405  0.49662134910846595  0.8047008838709002  1.0000
  H   H17       1.0  0.4121033157144822  0.381589808501495  0.7906427585277382  1.0000
  H   H18       1.0  0.5878977868712737  0.6184002903238196  0.2093516628816729  1.0000
  H   H19       1.0  0.46055854645930344  0.25757791909568795  0.9247930160700617  1.0000
  H   H20       1.0  0.5394407578068438  0.7424102086113606  0.07520114437816965  1.0000
  H   H21       1.0  0.2303522150643573  0.07001072976918009  0.8752536413433345  1.0000
  H   H22       1.0  0.7696406896238058  0.9299843656269432  0.1247419729542543  1.0000
  H   H23       1.0  0.5141247051318558  0.9249366919464561  0.3778756741436663  1.0000
  H   H24       1.0  0.4858717842138559  0.0750623601464895  0.6221220526980175  1.0000
  H   H25       1.0  0.4826734540430664  0.0754089849933521  0.2679015296185696  1.0000
  H   H26       1.0  0.5173269413661785  0.9245910548754922  0.7320982441018412  1.0000
  H   H27       1.0  0.723092679427907  0.2624331279151093  0.33828647970946674  1.0000
  H   H28       1.0  0.2769055842740825  0.7375679242166698  0.6617146893368897  1.0000
  H   H29       1.0  0.9472007844860425  0.9258101968184462  0.7337886338392889  1.0000
  H   H30       1.0  0.0527908958736205  0.07418492371947852  0.26620907701818897  1.0000
  H   H31       1.0  0.6868880378750077  0.8718455911518602  0.5518134084585069  1.0000
  H   H32       1.0  0.31310632575429764  0.1281544659738856  0.4481849183982476  1.0000
  C   C1        1.0  0.7000035086805029  0.43941734533022725  0.7553154626480917  1.0000
  C   C2        1.0  0.29999838008028945  0.5605836892172675  0.24468577920558932  1.0000
  C   C3        1.0  0.7139512592203303  0.30931707395587443  0.7363943537284641  1.0000
  C   C4        1.0  0.2860506295404548  0.6906839605916275  0.2636068881252172  1.0000
  C   C5        1.0  0.7644855360907953  0.27164697221621037  0.8345252806580206  1.0000
  C   C6        1.0  0.23551514631400738  0.7283540657826676  0.165475671822925  1.0000
  C   C7        1.0  0.8013510222751706  0.36486541564257635  0.9557871023023806  1.0000
  C   C8        1.0  0.19865748423835328  0.6351375834478078  0.04421635331427604  1.0000
  C   C9        1.0  0.7879351484530446  0.49528782963626133  0.9763974424416018  1.0000
  C   C10       1.0  0.21207214571365535  0.5047151801356476  0.023606519113194134  1.0000
  C   C11       1.0  0.7377177020761819  0.5311463197828987  0.8767013752909347  1.0000
  C   C12       1.0  0.26228686841964327  0.4688557276822962  0.12330401000136956  1.0000
  C   C13       1.0  0.6349522941542105  0.4763552590274502  0.6469949684145248  1.0000
  C   C14       1.0  0.36504415479026864  0.5236477673466029  0.35300479816393693  1.0000
  C   C15       1.0  0.44676372476785525  0.4506752803106692  0.6028807433643592  1.0000
  C   C16       1.0  0.5532360607052595  0.5493228066789443  0.39712144470023236  1.0000
  C   C17       1.0  0.8851842537530529  0.41419204871355936  0.16993285653025939  1.0000
  C   C18       1.0  0.11482638446771885  0.5858099381138899  0.8300692037604589  1.0000
  C   C19       1.0  0.9558583532124559  0.3566936149714338  0.26376610133668515  1.0000
  C   C20       1.0  0.044146845192003084  0.6433103636825735  0.7362344836788137  1.0000
  C   C21       1.0  0.31507076653362986  0.30021592968213184  0.7719830170677253  1.0000
  C   C22       1.0  0.6849287963085047  0.6997771559757737  0.22801277125606825  1.0000
  C   C23       1.0  0.3413261830822663  0.2301897953652556  0.8472104143015569  1.0000
  C   C24       1.0  0.658672173403879  0.7698032937440331  0.15278508464950127  1.0000
  C   C25       1.0  0.215046935521265  0.12762392564757624  0.8199609548942984  1.0000
  C   C26       1.0  0.7849483235051194  0.8723751588173131  0.18003966381814956  1.0000
  C   C27       1.0  0.06331181087028169  0.09448850781272002  0.7171238430651314  1.0000
  C   C28       1.0  0.9366834541469443  0.9055105694220273  0.2828759803364418  1.0000
  C   C29       1.0  0.0476771536255569  0.17140051536580364  0.6468330659308277  1.0000
  C   C30       1.0  0.9523196107340511  0.82859954931746  0.3531674302931336  1.0000
  C   C31       1.0  0.8936931783132991  0.14139202622724414  0.5413338865770995  1.0000
  C   C32       1.0  0.10630237369948498  0.8586080491375372  0.4586671155850082  1.0000
  C   C33       1.0  0.7636491293819461  0.033707624391759304  0.5090455383677153  1.0000
  C   C34       1.0  0.2363473479821038  0.9662914421614629  0.4909537790957186  1.0000
  C   C35       1.0  0.614465553695041  0.0087425255571745  0.40675323699868926  1.0000
  C   C36       1.0  0.38553275639903006  0.991254545063363  0.5932450970000145  1.0000
  C   C37       1.0  0.5975380415348112  0.0905451747045234  0.34530417303817257  1.0000
  C   C38       1.0  0.4024620608880413  0.9094538742644221  0.6546952172325788  1.0000
  C   C39       1.0  0.7322485446898669  0.19496358710489403  0.3836123069462332  1.0000
  C   C40       1.0  0.2677500119985226  0.8050384559267841  0.6163892455497828  1.0000
  C   C41       1.0  0.9296588751840531  0.9867932348473405  0.6815845047404918  1.0000
  C   C42       1.0  0.0703346094860606  0.013203849578708602  0.3184126717672909  1.0000
  C   C43       1.0  0.7857075460675275  0.9569467803942758  0.5805478778252392  1.0000
  C   C44       1.0  0.21428923027374938  0.0430532698287109  0.41945102777697924  1.0000
  N   N1        1.0  0.17242945011800256  0.2723039351540208  0.6757345922428539  1.0000
  N   N2        1.0  0.8275691409807918  0.7276941408266921  0.32426571582725916  1.0000
  N   N3        1.0  0.8760396600383517  0.21777300482286677  0.47724083768612496  1.0000
  N   N4        1.0  0.12395767232154505  0.782229063350613  0.5227628113697804  1.0000
  O   O1        1.0  0.3823643268835113  0.5334956098272485  0.6637208125279271  1.0000
  O   O2        1.0  0.6176354585895965  0.46650247716236487  0.33628137553666443  1.0000
  O   O3        1.0  0.3597046913586014  0.34193326307345734  0.5094507014214925  1.0000
  O   O4        1.0  0.6402917380787656  0.6580658613208925  0.49055497852892654  1.0000
  O   O5        1.0  0.8493673762684394  0.31994187269943813  0.046926150872060604  1.0000
  O   O6        1.0  0.15064599760488304  0.6800610619744417  0.9530728950594134  1.0000
  O   O7        1.0  0.9948221123454816  0.442934851366566  0.37783771103619296  1.0000
  O   O8        1.0  0.005184229584990907  0.5570770507078465  0.6221648568929722  1.0000
  O   O9        1.0  0.9744955459015544  0.24195531168089707  0.23383613670471703  1.0000
  O   O10       1.0  0.02550472077852815  0.7580527345912813  0.7661740789762346  1.0000
