data_image0
_chemical_formula_structural       Zn8P8H40C8N8O24
_chemical_formula_sum              "Zn8 P8 H40 C8 N8 O24"
_cell_length_a       7.872236409030991
_cell_length_b       8.267241791155078
_cell_length_c       15.777710614575158
_cell_angle_alpha    106.10327562993609
_cell_angle_beta     89.99970877976885
_cell_angle_gamma    90.0001910739964

_space_group_name_H-M_alt    "P 1"
_space_group_IT_number       1

loop_
  _space_group_symop_operation_xyz
  'x, y, z'

loop_
  _atom_site_type_symbol
  _atom_site_label
  _atom_site_symmetry_multiplicity
  _atom_site_fract_x
  _atom_site_fract_y
  _atom_site_fract_z
  _atom_site_occupancy
  Zn  Zn1       1.0  0.6104396218123823  0.8911817662208604  0.1684228601516935  1.0000
  Zn  Zn2       1.0  0.11043728065473597  0.1088189028988111  0.3315771381981206  1.0000
  Zn  Zn3       1.0  0.3895613087711638  0.10881438831550838  0.8315816175586406  1.0000
  Zn  Zn4       1.0  0.8895636499707533  0.891184647383639  0.6684213996695976  1.0000
  Zn  Zn5       1.0  0.8110805656531282  0.395357770410719  0.1831918067859561  1.0000
  Zn  Zn6       1.0  0.3110774767525583  0.6046395080559605  0.316805300523967  1.0000
  Zn  Zn7       1.0  0.1889190946816797  0.6046420031394388  0.8168062038392988  1.0000
  Zn  Zn8       1.0  0.6889221835727852  0.3953603085075911  0.6831946176459525  1.0000
  P   P1        1.0  0.9741482074585192  0.0175570872917632  0.1333162818340767  1.0000
  P   P2        1.0  0.4741357115846724  0.9824456185571221  0.3666830652116175  1.0000
  P   P3        1.0  0.025852723148311395  0.98244022579032  0.8666839206866754  1.0000
  P   P4        1.0  0.5258626784422162  0.017555514266582906  0.6333195721006106  1.0000
  P   P5        1.0  0.4509953180935256  0.5158107894512868  0.12647155358561693  1.0000
  P   P6        1.0  0.9509879080673896  0.4841730549223939  0.3735283891248784  1.0000
  P   P7        1.0  0.54900434223061  0.4841877682019486  0.8735281888363318  1.0000
  P   P8        1.0  0.04901175226983408  0.5158292364483825  0.6264699729963112  1.0000
  H   H1        1.0  0.0612316707234868  0.942812610222667  0.05407166175628931  1.0000
  H   H2        1.0  0.5612208501725175  0.05718044320298079  0.4459293015575767  1.0000
  H   H3        1.0  0.9387654490296953  0.057185933090053695  0.9459274448203203  1.0000
  H   H4        1.0  0.4387762695578558  0.9428207326327679  0.5540752433007583  1.0000
  H   H5        1.0  0.3770927992827993  0.421614912606394  0.04685517385443212  1.0000
  H   H6        1.0  0.8770874469916022  0.5783837229290114  0.4531400515513013  1.0000
  H   H7        1.0  0.622908131327179  0.5783823861378893  0.9531443928180962  1.0000
  H   H8        1.0  0.12291348363267929  0.4216185684431295  0.546858310568453  1.0000
  H   H9        1.0  0.34436142271162135  0.052719450963436984  0.1566099595195567  1.0000
  H   H10       1.0  0.844357120750132  0.9472792722893288  0.3433923346457064  1.0000
  H   H11       1.0  0.6556395078857448  0.9472779051320401  0.8433921505458599  1.0000
  H   H12       1.0  0.15564380986904774  0.05272430666872201  0.6566074749184594  1.0000
  H   H13       1.0  0.5059561773463273  0.16737630351036606  0.1410119947106026  1.0000
  H   H14       1.0  0.0059496126473347994  0.8326266886519774  0.35898986442897757  1.0000
  H   H15       1.0  0.4940460235317943  0.8326210812620757  0.8589913870498195  1.0000
  H   H16       1.0  0.994051317971852  0.16737689030607328  0.6410099451351883  1.0000
  H   H17       1.0  0.3647186021550865  0.8713075475519999  0.008168210447387006  1.0000
  H   H18       1.0  0.8647189928401103  0.12869373706242018  0.49183438891680714  1.0000
  H   H19       1.0  0.6352886798656812  0.12868733374304503  0.9918354556595332  1.0000
  H   H20       1.0  0.1352781269210652  0.8713098275537517  0.5081647848034692  1.0000
  H   H21       1.0  0.3247057685944553  0.08441895118424722  0.013447955873211001  1.0000
  H   H22       1.0  0.8246986608165868  0.9155810032779073  0.4865551945878722  1.0000
  H   H23       1.0  0.6753015134333393  0.9155733692767711  0.9865534511930959  1.0000
  H   H24       1.0  0.17530226980453986  0.08442130243202678  0.513443803380099  1.0000
  H   H25       1.0  0.907402028314223  0.6524375991497351  0.13315851649992544  1.0000
  H   H26       1.0  0.4073975864629773  0.34756626588762163  0.3668430656082791  1.0000
  H   H27       1.0  0.09259636172649269  0.3475647352330853  0.8668417531673782  1.0000
  H   H28       1.0  0.5926020738667289  0.652434795248439  0.6331563924613876  1.0000
  H   H29       1.0  0.0753790006086703  0.543743553168163  0.14719953523576382  1.0000
  H   H30       1.0  0.5753729753236526  0.4562582138501838  0.3527969035038012  1.0000
  H   H31       1.0  0.9246206597261305  0.45625622038198793  0.8527984753894913  1.0000
  H   H32       1.0  0.42462795528874847  0.543741602714725  0.6472030146646688  1.0000
  H   H33       1.0  0.8256224807408187  0.41839663402041066  0.0028404027893102887  1.0000
  H   H34       1.0  0.325632756941303  0.5816208754762185  0.49716202679793037  1.0000
  H   H35       1.0  0.17437336875002526  0.5816144410428945  0.9971579178755761  1.0000
  H   H36       1.0  0.6743656330977142  0.41837640892754996  0.502836904029266  1.0000
  H   H37       1.0  0.022616652597527296  0.325677947478404  0.015705938424424904  1.0000
  H   H38       1.0  0.5226379834667011  0.6743262102140904  0.484290335911929  1.0000
  H   H39       1.0  0.9773766563269746  0.6743280345897273  0.9842891358585675  1.0000
  H   H40       1.0  0.47736167685985703  0.32567486525977063  0.5157097580059613  1.0000
  C   C1        1.0  0.42062405013322746  0.997882541135155  0.02724365704856524  1.0000
  C   C2        1.0  0.9206204005364002  0.002120121945047505  0.4727589909406902  1.0000
  C   C3        1.0  0.5793819616036373  0.0021123258207325093  0.9727593732115736  1.0000
  C   C4        1.0  0.079379259800092  0.9978847015841622  0.5272403585246721  1.0000
  C   C5        1.0  0.9569129298160417  0.44666503700479143  0.0261290582942522  1.0000
  C   C6        1.0  0.45691699346065906  0.5533401068095428  0.4738687718764538  1.0000
  C   C7        1.0  0.04308418995701399  0.5533410024186124  0.9738685593773013  1.0000
  C   C8        1.0  0.5430826668666313  0.4466584365058992  0.526130334697271  1.0000
  N   N1        1.0  0.4587458456896911  0.04556797176932998  0.1232326557992423  1.0000
  N   N2        1.0  0.9587425042701907  0.9544284782871768  0.3767690267618562  1.0000
  N   N3        1.0  0.5412576254774278  0.9544281397563522  0.8767699143635425  1.0000
  N   N4        1.0  0.0412558857748877  0.0455751006681595  0.6232307828051944  1.0000
  N   N5        1.0  0.9528578330506574  0.5307647719036838  0.12221879873266772  1.0000
  N   N6        1.0  0.45285622621879884  0.4692366438525894  0.37778105681463364  1.0000
  N   N7        1.0  0.0471392867112499  0.4692362605540695  0.877779387643443  1.0000
  N   N8        1.0  0.5471434341096993  0.5307631583731619  0.622218225507055  1.0000
  O   O1        1.0  0.5505239245980249  0.6579418057331522  0.10451436215315368  1.0000
  O   O2        1.0  0.050517908030542485  0.342058649219652  0.3954819573582072  1.0000
  O   O3        1.0  0.44947319514449185  0.3420555216826528  0.8954864762201566  1.0000
  O   O4        1.0  0.9494855631622697  0.6579411386723776  0.6045166891109304  1.0000
  O   O5        1.0  0.8587109448893954  0.8789162312598221  0.1503931187390819  1.0000
  O   O6        1.0  0.3587160860159742  0.12108246533983191  0.349606599392132  1.0000
  O   O7        1.0  0.14128871543474011  0.12108232639342022  0.8496066236828668  1.0000
  O   O8        1.0  0.6412861148728125  0.8789161353295184  0.6503950505715963  1.0000
  O   O9        1.0  0.1156638232634108  0.071906585221825  0.20288037354146837  1.0000
  O   O10       1.0  0.6156624605113522  0.9280915772507753  0.2971192614315967  1.0000
  O   O11       1.0  0.884334566778037  0.9280932170025693  0.7971189087816697  1.0000
  O   O12       1.0  0.38434228095201917  0.0719108144900318  0.7028835516213761  1.0000
  O   O13       1.0  0.5648939719373232  0.39299741683815625  0.1586693188070427  1.0000
  O   O14       1.0  0.0648906458884824  0.6070029971604142  0.3413237887830434  1.0000
  O   O15       1.0  0.4351069586707155  0.6070011551542435  0.8413310594616803  1.0000
  O   O16       1.0  0.9351077441616906  0.39299929420900526  0.6586745733395957  1.0000
  O   O17       1.0  0.8709021367484765  0.16273880913465888  0.11737640066473891  1.0000
  O   O18       1.0  0.37088772959226884  0.837258568579152  0.3826192989289439  1.0000
  O   O19       1.0  0.12909498300664518  0.8372584609299522  0.882621894315676  1.0000
  O   O20       1.0  0.6291132010213402  0.16274250689607334  0.6173807949875042  1.0000
  O   O21       1.0  0.3006921980616538  0.578040086064348  0.1902125409665061  1.0000
  O   O22       1.0  0.8006890292767677  0.42195592561309075  0.3097850500666226  1.0000
  O   O23       1.0  0.699306191974216  0.4219572126772206  0.809787025708914  1.0000
  O   O24       1.0  0.1993131716289867  0.5780438622775819  0.6902135964039572  1.0000
