data_image0
_chemical_formula_structural       Ni2H36C48S4N16O12
_chemical_formula_sum              "Ni2 H36 C48 S4 N16 O12"
_cell_length_a       7.418669902417889
_cell_length_b       15.605268602007882
_cell_length_c       17.099757668017496
_cell_angle_alpha    89.99992151003624
_cell_angle_beta     91.75018141303393
_cell_angle_gamma    89.99991712613976

_space_group_name_H-M_alt    "P 1"
_space_group_IT_number       1

loop_
  _space_group_symop_operation_xyz
  'x, y, z'

loop_
  _atom_site_type_symbol
  _atom_site_label
  _atom_site_symmetry_multiplicity
  _atom_site_fract_x
  _atom_site_fract_y
  _atom_site_fract_z
  _atom_site_occupancy
  Ni  Ni1       1.0  0.9999993724994524  1.8096505979999994e-07  0.9999995798660208  1.0000
  Ni  Ni2       1.0  1.6601863351004607e-06  0.49999998820856467  0.49999996231506577  1.0000
  H   H1        1.0  0.8822766942861762  0.13857992366809668  0.7050142560018384  1.0000
  H   H2        1.0  0.11772795694542282  0.6385792044616637  0.7949869145720854  1.0000
  H   H3        1.0  0.117725175885937  0.8614203468794626  0.2949876572327526  1.0000
  H   H4        1.0  0.8822739086009151  0.3614185028507819  0.205012659389233  1.0000
  H   H5        1.0  0.4982149066684158  0.34693276246292015  0.7104869597905009  1.0000
  H   H6        1.0  0.5017877438528088  0.8469337076480131  0.789511586270514  1.0000
  H   H7        1.0  0.5017869588749377  0.6530668672771824  0.2895126141695812  1.0000
  H   H8        1.0  0.4982060278987745  0.15306720371430063  0.2104867138475086  1.0000
  H   H9        1.0  0.3497399215581892  0.276203413690979  0.8200297475340079  1.0000
  H   H10       1.0  0.6502589018748991  0.7762037803079168  0.6799682525402204  1.0000
  H   H11       1.0  0.6502605954050155  0.7237968568588328  0.1799698090583632  1.0000
  H   H12       1.0  0.3497375681904344  0.2237984126714281  0.3200306671302968  1.0000
  H   H13       1.0  0.6215697561287998  0.14220420887512827  0.9996155312046467  1.0000
  H   H14       1.0  0.3784321808986705  0.6422005491078123  0.5003826758833511  1.0000
  H   H15       1.0  0.3784280648285688  0.8577992657212975  0.0003845754698020006  1.0000
  H   H16       1.0  0.6215723794900967  0.357797799013774  0.49961576317468837  1.0000
  H   H17       1.0  0.3648236962571403  0.0668471167924238  0.06913894045283088  1.0000
  H   H18       1.0  0.635178997363134  0.566844552297468  0.43086003516721405  1.0000
  H   H19       1.0  0.635175472123933  0.9331550761855281  0.9308605987710123  1.0000
  H   H20       1.0  0.36482421444548413  0.4331544366338207  0.5691383865231145  1.0000
  H   H21       1.0  0.16827400277474422  0.0843368489167204  0.8421932656194144  1.0000
  H   H22       1.0  0.8317254169219269  0.5843377639436086  0.657804981128443  1.0000
  H   H23       1.0  0.8317251656123046  0.9156614992059103  0.1578062736068944  1.0000
  H   H24       1.0  0.16827509888384637  0.4156625066066368  0.3421939906451996  1.0000
  H   H25       1.0  0.8125632912196608  0.42935548962478254  0.6682555351825101  1.0000
  H   H26       1.0  0.1874296619483999  0.9293540258492001  0.831742198523159  1.0000
  H   H27       1.0  0.18743722689998782  0.5706454217338006  0.3317446062281846  1.0000
  H   H28       1.0  0.8125681578575055  0.07064560389235197  0.168257323335034  1.0000
  H   H29       1.0  0.9933358364800711  0.31406374280548016  0.4726690616763348  1.0000
  H   H30       1.0  0.006680932488741599  0.81406478582565  0.027334465696490902  1.0000
  H   H31       1.0  0.006674124010501701  0.685935886930423  0.5273323709437108  1.0000
  H   H32       1.0  0.9933168907864954  0.18593676634223746  0.9726668106166585  1.0000
  H   H33       1.0  0.8627662910015274  0.18602620440249504  0.5478261824788078  1.0000
  H   H34       1.0  0.13725035577804331  0.6860271570575234  0.9521780074938705  1.0000
  H   H35       1.0  0.1372436718049173  0.8139727845233011  0.45217641977911427  1.0000
  H   H36       1.0  0.8627461212359082  0.3139724726822947  0.0478244210906738  1.0000
  C   C1        1.0  0.5301273018024872  0.1682705678172383  0.8263991404056767  1.0000
  C   C2        1.0  0.4698718605270144  0.668270428300751  0.6736007528893424  1.0000
  C   C3        1.0  0.46987052031829535  0.8317290619234329  0.1736015510899733  1.0000
  C   C4        1.0  0.53012865412132  0.331729842249942  0.3263976340655717  1.0000
  C   C5        1.0  0.6812106672468516  0.13054738431259952  0.7918718034705421  1.0000
  C   C6        1.0  0.31878726373788174  0.6305460158669972  0.7081281209569282  1.0000
  C   C7        1.0  0.31878580860866634  0.8694528862368855  0.20813004029486853  1.0000
  C   C8        1.0  0.681213252069881  0.36945297306481  0.2918708508175385  1.0000
  C   C9        1.0  0.7643440661451777  0.16944260008682474  0.7290432145778  1.0000
  C   C10       1.0  0.2356577908587028  0.6694418353471292  0.7709572967641164  1.0000
  C   C11       1.0  0.23565645544878322  0.8305570296519988  0.2709586812899119  1.0000
  C   C12       1.0  0.7643413775273514  0.33055715358472065  0.2290422424617802  1.0000
  C   C13       1.0  0.7017686851279167  0.24791678230179304  0.699019922433301  1.0000
  C   C14       1.0  0.29823832116174737  0.7479152880908727  0.8009799726689053  1.0000
  C   C15       1.0  0.29823587988662575  0.7520841290549144  0.3009808558980112  1.0000
  C   C16       1.0  0.7017595009600299  0.2520837008405721  0.1990207188271569  1.0000
  C   C17       1.0  0.5512729292373139  0.286114165074551  0.7326863927575147  1.0000
  C   C18       1.0  0.4487285617108299  0.7861151805237583  0.76731221412782  1.0000
  C   C19       1.0  0.44873028720106595  0.7138848238549684  0.2673143682077352  1.0000
  C   C20       1.0  0.5512652100417481  0.21388509002933626  0.23268608599060767  1.0000
  C   C21       1.0  0.4670952516866507  0.2460699794377916  0.7945775438750431  1.0000
  C   C22       1.0  0.5329023144971287  0.7460710298535176  0.7054193079351521  1.0000
  C   C23       1.0  0.5329039190142736  0.7539290094931771  0.2054231649883178  1.0000
  C   C24       1.0  0.4670928046751683  0.2539305223179796  0.2945784247310215  1.0000
  C   C25       1.0  0.43654858459343154  0.1301507320570252  0.8928926821784627  1.0000
  C   C26       1.0  0.5634506950457167  0.6301493463082295  0.6071066753075414  1.0000
  C   C27       1.0  0.5634492375253615  0.8698501793020766  0.1071080093163701  1.0000
  C   C28       1.0  0.4365511681817651  0.36985092424198035  0.3928917290146643  1.0000
  C   C29       1.0  0.4962167625087305  0.12321004797009039  0.970799654774531  1.0000
  C   C30       1.0  0.5037825398582001  0.6232081802628714  0.5292002964538298  1.0000
  C   C31       1.0  0.5037797121873595  0.8767915041982731  0.0292016041713197  1.0000
  C   C32       1.0  0.49621932452870965  0.3767908086684528  0.47079869268793567  1.0000
  C   C33       1.0  0.2625549059385364  0.09367272872700735  0.8913063718720977  1.0000
  C   C34       1.0  0.7374444870606351  0.5936731423742215  0.6086930325108356  1.0000
  C   C35       1.0  0.7374442647623881  0.9063262602039615  0.1086943369912703  1.0000
  C   C36       1.0  0.26255737848371297  0.4063258465566689  0.3913065414496586  1.0000
  C   C37       1.0  0.795345522236758  0.28950916137105054  0.6349860391714728  1.0000
  C   C38       1.0  0.20466000737545187  0.7895069946730188  0.8650143699091969  1.0000
  C   C39       1.0  0.20466039251536472  0.7104911091755138  0.36501534134627883  1.0000
  C   C40       1.0  0.7953378147473203  0.21049135344920697  0.1349863215872773  1.0000
  C   C41       1.0  0.8373614657940535  0.377510841511068  0.6279047417894148  1.0000
  C   C42       1.0  0.16263974228166234  0.8775093340784961  0.872094332411784  1.0000
  C   C43       1.0  0.16264174948390317  0.622490069846556  0.37209543435587017  1.0000
  C   C44       1.0  0.8373594272628253  0.1224890140436941  0.1279057916332533  1.0000
  C   C45       1.0  0.8655229796004776  0.2517360469278316  0.5684520006486053  1.0000
  C   C46       1.0  0.1344907635001391  0.7517363917897342  0.9315509004722955  1.0000
  C   C47       1.0  0.13448563346838682  0.7482635828081073  0.43154999942287725  1.0000
  C   C48       1.0  0.8655043637762317  0.248263878760234  0.0684509259258164  1.0000
  S   S1        1.0  0.7837737318611602  0.0339587883507235  0.8283335549380979  1.0000
  S   S2        1.0  0.21622584902870304  0.5339575459992502  0.671667095854815  1.0000
  S   S3        1.0  0.2162240867863048  0.9660414822004882  0.1716653821009544  1.0000
  S   S4        1.0  0.783774669092942  0.46604208374089506  0.3283330455566968  1.0000
  N   N1        1.0  0.3644148370896119  0.0848077620175474  0.0104281319619304  1.0000
  N   N2        1.0  0.6355851047135699  0.5848051087065683  0.4895713706511344  1.0000
  N   N3        1.0  0.6355829850271846  0.9151944309599997  0.9895725595320711  1.0000
  N   N4        1.0  0.3644181094099253  0.4151938802238391  0.5104282206766513  1.0000
  N   N5        1.0  0.22128713112832088  0.06569431760529199  0.9630274464246111  1.0000
  N   N6        1.0  0.7787123511362138  0.5656935291718457  0.5369731635671045  1.0000
  N   N7        1.0  0.7787120407280526  0.9343059529436742  0.0369738472566539  1.0000
  N   N8        1.0  0.22128816582798547  0.43430610056874747  0.4630263930256788  1.0000
  N   N9        1.0  0.926337995476018  0.3921994890885117  0.5622741822675223  1.0000
  N   N10       1.0  0.07366721384568112  0.8921985851879269  0.9377255099693896  1.0000
  N   N11       1.0  0.07366791580478349  0.6078001406501555  0.4377254437944487  1.0000
  N   N12       1.0  0.9263333031185255  0.1078010445526587  0.062274046623393496  1.0000
  N   N13       1.0  0.9424808497494082  0.31521269027260246  0.5271728360922552  1.0000
  N   N14       1.0  0.0575286480322887  0.8152130262491184  0.9728287616803114  1.0000
  N   N15       1.0  0.057525066161147706  0.6847869394642957  0.47282912924463  1.0000
  N   N16       1.0  0.9424691717706252  0.18478852592009073  0.027170760176645097  1.0000
  O   O1        1.0  0.6414160233422023  0.96889115337612  0.8359173398491534  1.0000
  O   O2        1.0  0.35858625164247127  0.46889101578888415  0.6640828038724749  1.0000
  O   O3        1.0  0.3585804501964417  0.031110398792691295  0.1640833342779686  1.0000
  O   O4        1.0  0.6414169601641574  0.5311092547608496  0.33591561781702944  1.0000
  O   O5        1.0  0.856682072829635  0.0616250010057442  0.9070250597008992  1.0000
  O   O6        1.0  0.1433187695022866  0.5616245686779492  0.5929749880708854  1.0000
  O   O7        1.0  0.14331979155826963  0.9383733471163679  0.0929739294412713  1.0000
  O   O8        1.0  0.8566817474629077  0.4383744202534245  0.4070245685223171  1.0000
  O   O9        1.0  0.9243610673818736  0.0112023631185352  0.7745847960993046  1.0000
  O   O10       1.0  0.075638584225203  0.5112030596211312  0.7254158839492462  1.0000
  O   O11       1.0  0.07563405179838868  0.9887940625791956  0.2254129365701658  1.0000
  O   O12       1.0  0.9243619338974369  0.48879592930979504  0.2745842574626778  1.0000
