data_image0
_chemical_formula_structural       Cd2H36C48N8O12
_chemical_formula_sum              "Cd2 H36 C48 N8 O12"
_cell_length_a       10.433833819625686
_cell_length_b       10.061902131695375
_cell_length_c       11.512077111602876
_cell_angle_alpha    73.95850224737625
_cell_angle_beta     79.83958101458917
_cell_angle_gamma    90.52688405197378

_space_group_name_H-M_alt    "P 1"
_space_group_IT_number       1

loop_
  _space_group_symop_operation_xyz
  'x, y, z'

loop_
  _atom_site_type_symbol
  _atom_site_label
  _atom_site_symmetry_multiplicity
  _atom_site_fract_x
  _atom_site_fract_y
  _atom_site_fract_z
  _atom_site_occupancy
  Cd  Cd1       1.0  0.3422342627144346  0.3634665030036429  0.8540751984488255  1.0000
  Cd  Cd2       1.0  0.6577625164733049  0.6365322647422004  0.1459263767782631  1.0000
  H   H1        1.0  0.2428742357888822  0.3167657939672209  0.14962496419033045  1.0000
  H   H2        1.0  0.7571233377940275  0.6832288564292879  0.8503783828350965  1.0000
  H   H3        1.0  0.19462819340289877  0.12559443837733394  0.3483252351801341  1.0000
  H   H4        1.0  0.8053684119277307  0.8744002102732366  0.6516791406383647  1.0000
  H   H5        1.0  0.22061361344588448  0.8798366317437282  0.3381576064906472  1.0000
  H   H6        1.0  0.7793888724911254  0.12015911222910346  0.661843787307646  1.0000
  H   H7        1.0  0.3045149098278798  0.8374440833559401  0.137106404473599  1.0000
  H   H8        1.0  0.6954914736768458  0.16255171655424755  0.8628943327178009  1.0000
  H   H9        1.0  0.3750763780771749  0.812222406513669  0.9738484253456721  1.0000
  H   H10       1.0  0.6249223657302919  0.18777736390191535  0.026148230544016868  1.0000
  H   H11       1.0  0.44956415709797426  0.7916169727151325  0.7646051058022965  1.0000
  H   H12       1.0  0.550430915672635  0.2083879089897777  0.23539000291704332  1.0000
  H   H13       1.0  0.487910696115783  0.009008464647067196  0.5855839003986746  1.0000
  H   H14       1.0  0.5120883049207805  0.9909965341871608  0.4144148749205528  1.0000
  H   H15       1.0  0.44239360729888233  0.23730627274574087  0.628321865567891  1.0000
  H   H16       1.0  0.5576131387824432  0.7626968518459164  0.37168218468140435  1.0000
  H   H17       1.0  0.8380462249994095  0.3460970287031912  0.8543300358259888  1.0000
  H   H18       1.0  0.16195444561640215  0.6539017827416203  0.14567001815285618  1.0000
  H   H19       1.0  0.6960662653013827  0.6510058143413742  0.570163863228153  1.0000
  H   H20       1.0  0.3039305946752648  0.3489950007137209  0.42983544706186905  1.0000
  H   H21       1.0  0.10959684644529938  0.6135566077421256  0.5536525212148932  1.0000
  H   H22       1.0  0.8904010625725431  0.3864462563681598  0.44634349534499773  1.0000
  H   H23       1.0  0.7816863436205992  0.09707644066046575  0.45830449618710395  1.0000
  H   H24       1.0  0.21831265741596434  0.9029285581737696  0.5416942791321233  1.0000
  H   H25       1.0  0.8106437568723379  0.31669857724087785  0.28532776029246076  1.0000
  H   H26       1.0  0.18935708146094038  0.6833043410608253  0.714668628453616  1.0000
  H   H27       1.0  0.00018491628939899964  0.09504551838661257  0.038487298947941936  1.0000
  H   H28       1.0  0.9998177092499176  0.9049533332652754  0.9615132913688174  1.0000
  H   H29       1.0  0.9697166636539053  0.8757841121672807  0.21147076189356556  1.0000
  H   H30       1.0  0.030284025380851193  0.12421473599270876  0.7885318860093451  1.0000
  H   H31       1.0  0.2156436705941118  0.576344995585593  0.9460501808134226  1.0000
  H   H32       1.0  0.7843589856434434  0.42365391725824947  0.053954732710110434  1.0000
  H   H33       1.0  0.3446313781862642  0.564707671782102  0.006374809549285558  1.0000
  H   H34       1.0  0.655372153235362  0.4352891710216581  0.9936296108355268  1.0000
  H   H35       1.0  0.9843102797161335  0.33185757939561705  0.9825180564307775  1.0000
  H   H36       1.0  0.015692373938342993  0.6681422714341065  0.017479672134740686  1.0000
  C   C1        1.0  0.2556467887944152  0.20881325418169172  0.15128877254179685  1.0000
  C   C2        1.0  0.7443518118541732  0.7911824583305672  0.8487150071460834  1.0000
  C   C3        1.0  0.22795056360982358  0.10257741150355318  0.2609906321927867  1.0000
  C   C4        1.0  0.7720489991514015  0.8974182905162634  0.739011254060671  1.0000
  C   C5        1.0  0.2442576466008218  0.9669533206538145  0.2553595098790924  1.0000
  C   C6        1.0  0.7557418634866548  0.033041333234592685  0.7446417795601832  1.0000
  C   C7        1.0  0.28910283676786713  0.9426598175314562  0.14225784487490511  1.0000
  C   C8        1.0  0.7109016444871017  0.057336990303070864  0.8577429527927621  1.0000
  C   C9        1.0  0.3156755068464818  0.05516146675699218  0.035813655129835816  1.0000
  C   C10       1.0  0.6843270317642762  0.9448353253472489  0.9641883354826252  1.0000
  C   C11       1.0  0.36415567273630955  0.03594079196496838  0.9123586774412832  1.0000
  C   C12       1.0  0.6358469931974611  0.9640590833415386  0.08764078040694308  1.0000
  C   C13       1.0  0.38842040636505704  0.904885610891874  0.8959874965521311  1.0000
  C   C14       1.0  0.6115794294611306  0.09511629424764576  0.10401191809690859  1.0000
  C   C15       1.0  0.4324732988362427  0.8935515934668171  0.7780225974197849  1.0000
  C   C16       1.0  0.5675275579159802  0.10645136155006438  0.22197638525035768  1.0000
  C   C17       1.0  0.4530058982307422  0.013242668070596196  0.67917181841802  1.0000
  C   C18       1.0  0.5469930158772698  0.9867602712159917  0.3208283571969165  1.0000
  C   C19       1.0  0.4277451911649095  0.14009042787680667  0.7020160891704138  1.0000
  C   C20       1.0  0.5722586071820357  0.8599126058082615  0.2979849949686299  1.0000
  C   C21       1.0  0.0983608374762994  0.41192241572513655  0.7670196737049013  1.0000
  C   C22       1.0  0.9016409752489024  0.5880805165609073  0.232976550889454  1.0000
  C   C23       1.0  0.9857999063816791  0.4737658850192472  0.71074101868998  1.0000
  C   C24       1.0  0.014199870631109904  0.5262349597504752  0.2892569345035201  1.0000
  C   C25       1.0  0.8568947528774302  0.43038355748393536  0.7693785682927017  1.0000
  C   C26       1.0  0.1431078542429418  0.5696152574527671  0.230619428099999  1.0000
  C   C27       1.0  0.7523897777711284  0.49270732675276463  0.7183226392385936  1.0000
  C   C28       1.0  0.2476119076310681  0.5072925223310064  0.28167611812000365  1.0000
  C   C29       1.0  0.7770219256806995  0.6024979959540103  0.6102572983342757  1.0000
  C   C30       1.0  0.22297576294592145  0.39749971316798133  0.3897417866442013  1.0000
  C   C31       1.0  0.905828776598497  0.6487345222806764  0.5532464678379586  1.0000
  C   C32       1.0  0.09416807109886352  0.3512662682976355  0.4467511131693558  1.0000
  C   C33       1.0  0.009694344470474894  0.5807834379462304  0.6007056379327269  1.0000
  C   C34       1.0  0.9903045450789422  0.4192194523867911  0.3992910791167932  1.0000
  C   C35       1.0  0.6140065418866669  0.44465541654153623  0.7789336106308229  1.0000
  C   C36       1.0  0.3859941875425434  0.5553444552730793  0.2210679048035617  1.0000
  C   C37       1.0  0.8789098706585677  0.9751191027719056  0.3466315556682107  1.0000
  C   C38       1.0  0.1210860210657998  0.024881710537236795  0.6533687834148909  1.0000
  C   C39       1.0  0.830906741005208  0.09886509530704757  0.36605886810231425  1.0000
  C   C40       1.0  0.1690881579082912  0.9011356673025896  0.633939041208443  1.0000
  C   C41       1.0  0.8475303423333569  0.22039760155638524  0.2710447186467066  1.0000
  C   C42       1.0  0.1524665053639964  0.7796031890219267  0.7289528623606076  1.0000
  C   C43       1.0  0.9115726157721583  0.21928608932390856  0.1533268057274455  1.0000
  C   C44       1.0  0.0884291688378838  0.7807158437842928  0.8466722806181509  1.0000
  C   C45       1.0  0.9541747551474629  0.09438966466699127  0.13131733008371074  1.0000
  C   C46       1.0  0.04582215136328929  0.9056121862811248  0.8686817123791358  1.0000
  C   C47       1.0  0.9385042054837528  0.973343331742413  0.2273717672976332  1.0000
  C   C48       1.0  0.061495589947980996  0.026657549742488094  0.7726287798199325  1.0000
  N   N1        1.0  0.2979331430905745  0.18595994956984888  0.04199756260170062  1.0000
  N   N2        1.0  0.702065538346922  0.814037810251662  0.9580039521491204  1.0000
  N   N3        1.0  0.38415911698638877  0.1504869529606978  0.8155456420164882  1.0000
  N   N4        1.0  0.6158456214976766  0.8495150832924736  0.18445727508071752  1.0000
  N   N5        1.0  0.9366404109779721  0.7633018726928993  0.4471430608042086  1.0000
  N   N6        1.0  0.06335556767495379  0.2367010001638902  0.5528558779831841  1.0000
  N   N7        1.0  0.8600300478746944  0.8602048368438625  0.4504458211533448  1.0000
  N   N8        1.0  0.1399669113098057  0.13979806223565555  0.549553818123684  1.0000
  O   O1        1.0  0.30396174677557036  0.5405127614080383  0.9414966103421851  1.0000
  O   O2        1.0  0.6960388272154674  0.4594830280264686  0.05851029960767573  1.0000
  O   O3        1.0  0.0769224186903443  0.32001177772992406  0.8717230030133793  1.0000
  O   O4        1.0  0.9230793940348577  0.6799911545561128  0.12827322158097598  1.0000
  O   O5        1.0  0.21327727007254538  0.45589210643644384  0.709675561718598  1.0000
  O   O6        1.0  0.7867225938687953  0.5441107978809184  0.2903209911792005  1.0000
  O   O7        1.0  0.5888259789710304  0.3804475677756328  0.8941012186278245  1.0000
  O   O8        1.0  0.41117484966602547  0.6195543880634061  0.1059006257935594  1.0000
  O   O9        1.0  0.5267969259553171  0.46927884310959905  0.7127849651506752  1.0000
  O   O10       1.0  0.47320065376724335  0.5307158195253121  0.28721924651610226  1.0000
  O   O11       1.0  0.9274222627342182  0.3407533948229541  0.06302699945259607  1.0000
  O   O12       1.0  0.0725775142785707  0.6592474499467682  0.9369709537409038  1.0000
