data_image0
_chemical_formula_structural       Cd2H28C16N8O12
_chemical_formula_sum              "Cd2 H28 C16 N8 O12"
_cell_length_a       4.694970264361108
_cell_length_b       9.261869818464888
_cell_length_c       14.87149933304695
_cell_angle_alpha    96.80523255231591
_cell_angle_beta     89.95807893448035
_cell_angle_gamma    104.53405831929298

_space_group_name_H-M_alt    "P 1"
_space_group_IT_number       1

loop_
  _space_group_symop_operation_xyz
  'x, y, z'

loop_
  _atom_site_type_symbol
  _atom_site_label
  _atom_site_symmetry_multiplicity
  _atom_site_fract_x
  _atom_site_fract_y
  _atom_site_fract_z
  _atom_site_occupancy
  Cd  Cd1       1.0  0.9999959440809787  2.8432743662004134e-06  1.4469248697000896e-06  1.0000
  Cd  Cd2       1.0  2.683978209415869e-06  0.9999989404127589  0.4999990575073807  1.0000
  H   H1        1.0  0.7927482537382814  0.1319245572539174  0.865066938639323  1.0000
  H   H2        1.0  0.6610861021602971  0.8691300196004261  0.6353403092190887  1.0000
  H   H3        1.0  0.2072401197993513  0.8680745535792767  0.13493161313995466  1.0000
  H   H4        1.0  0.3389257007194431  0.1308690961172374  0.3646602575756077  1.0000
  H   H5        1.0  0.7249862970738405  0.22472394915784824  0.9578397271910785  1.0000
  H   H6        1.0  0.49907141739884503  0.7779899600485078  0.5424983458607711  1.0000
  H   H7        1.0  0.27500152018814106  0.7752740450905904  0.04215941904006829  1.0000
  H   H8        1.0  0.5009338964677355  0.2220046779602853  0.4575032535466831  1.0000
  H   H9        1.0  0.472706081892035  0.5411910176964342  0.8552220170209137  1.0000
  H   H10       1.0  0.9315099040669851  0.4599457941281457  0.6449464414175096  1.0000
  H   H11       1.0  0.5272786006352632  0.45880924158897335  0.14477863277843983  1.0000
  H   H12       1.0  0.06850133976634239  0.5400521977985447  0.3550540468846107  1.0000
  H   H13       1.0  0.2575747622121014  0.35507371977088537  0.9781036610771491  1.0000
  H   H14       1.0  0.8959154063242494  0.6439365663963343  0.520585493490749  1.0000
  H   H15       1.0  0.7424068759570019  0.6449332579993481  0.0218947689411237  1.0000
  H   H16       1.0  0.10410120842941946  0.35606365565728026  0.47941380521346827  1.0000
  H   H17       1.0  0.2941178522652734  0.27538006005181603  0.8670678004616332  1.0000
  H   H18       1.0  0.0181259451481494  0.7233366003490856  0.6310820076989072  1.0000
  H   H19       1.0  0.7058706282734661  0.7246235474665639  0.13293106563502016  1.0000
  H   H20       1.0  0.9818837257762921  0.2766625096836392  0.3689178864984297  1.0000
  H   H21       1.0  0.9841166971302044  0.6926987537272851  0.8364493085884487  1.0000
  H   H22       1.0  0.29341821624176845  0.309851699878827  0.6664501033299641  1.0000
  H   H23       1.0  0.015879856413661672  0.30730824221880226  0.16355181077802425  1.0000
  H   H24       1.0  0.7065989575583059  0.6901496459657608  0.33354927386682925  1.0000
  H   H25       1.0  0.2570520638938517  0.6993697637715214  0.7531995800424907  1.0000
  H   H26       1.0  0.564592388247533  0.30208862425534727  0.7477693421880431  1.0000
  H   H27       1.0  0.7429531244723221  0.3006417515994712  0.2468045440308301  1.0000
  H   H28       1.0  0.4354161590425464  0.6979082237829958  0.25222904913524496  1.0000
  C   C1        1.0  0.1382002131691351  0.31390868377071257  0.9128014532541325  1.0000
  C   C2        1.0  0.8215459019509906  0.6859283830993376  0.5864192818221097  1.0000
  C   C3        1.0  0.8617871492767857  0.6860926761657139  0.08719725585736879  1.0000
  C   C4        1.0  0.17846522933967893  0.3140650977297241  0.41357954627373056  1.0000
  C   C5        1.0  0.044540435097211076  0.4450744779459653  0.8793238895165627  1.0000
  C   C6        1.0  0.5982570055159541  0.5558984982531142  0.6210590756465206  1.0000
  C   C7        1.0  0.9554490426793905  0.5549268444380716  0.12067145452562757  1.0000
  C   C8        1.0  0.40176644606581385  0.44409833913619673  0.3789393132471871  1.0000
  C   C9        1.0  0.2144177959429712  0.691289580109725  0.8255631152963827  1.0000
  C   C10       1.0  0.525291625358186  0.3103526403175394  0.67568479391835  1.0000
  C   C11       1.0  0.7855787631424391  0.3087174302488052  0.1744393499589876  1.0000
  C   C12       1.0  0.47471322260924603  0.6896453345543562  0.3243136765916788  1.0000
  C   C13       1.0  0.41386178265661044  0.8309311905414632  0.879561256767232  1.0000
  C   C14       1.0  0.5818409356068203  0.1701562884184326  0.6207003757342305  1.0000
  C   C15       1.0  0.5861304221417002  0.16907135499934609  0.12044358664270757  1.0000
  C   C16       1.0  0.41816817904197723  0.8298417050295512  0.3793001129149757  1.0000
  N   N1        1.0  0.8897581290823171  0.18689105629434266  0.9253153948271089  1.0000
  N   N2        1.0  0.7016939657216668  0.8141545082185145  0.5748080314565768  1.0000
  N   N3        1.0  0.11023024722608446  0.8131080617450692  0.07468382989660678  1.0000
  N   N4        1.0  0.2983156996612379  0.1858445874017747  0.42519051685186326  1.0000
  N   N5        1.0  0.26076973341860565  0.5517540163785242  0.8497333481865537  1.0000
  N   N6        1.0  0.7092785104711723  0.4494938231612338  0.6507878355746468  1.0000
  N   N7        1.0  0.7392193117080907  0.44825072934327176  0.15026694229157295  1.0000
  N   N8        1.0  0.2907327305913866  0.5505041615592317  0.3492119797830283  1.0000
  O   O1        1.0  0.7803532622316355  0.449840647501034  0.8824371141835169  1.0000
  O   O2        1.0  0.329407160909767  0.5514228732104413  0.6185669752175541  1.0000
  O   O3        1.0  0.21962869881548389  0.5501584030400366  0.11755538213697747  1.0000
  O   O4        1.0  0.670603510023298  0.4485739588941654  0.38143006986975775  1.0000
  O   O5        1.0  0.6388957000099822  0.8113824361641233  0.9196824530478762  1.0000
  O   O6        1.0  0.8243034643565608  0.18905559430446323  0.5793713951502396  1.0000
  O   O7        1.0  0.36109002685825686  0.18861566049270104  0.0803261147526086  1.0000
  O   O8        1.0  0.1756981307919857  0.8109401200943366  0.42062557283282587  1.0000
  O   O9        1.0  0.34255073152610277  0.9541246455985898  0.8795635170256585  1.0000
  O   O10       1.0  0.3873784393637649  0.0476075645722744  0.6213596026546709  1.0000
  O   O11       1.0  0.6574474004681932  0.0458812466538987  0.12043954233450187  1.0000
  O   O12       1.0  0.6126312287899083  0.9523915382542328  0.37863961859822126  1.0000
