data_image0
_chemical_formula_structural       Cu2H22C28N2O6
_chemical_formula_sum              "Cu2 H22 C28 N2 O6"
_cell_length_a       4.791796200952191
_cell_length_b       9.913544416559759
_cell_length_c       15.908953883509255
_cell_angle_alpha    92.56362627322444
_cell_angle_beta     90.00113369812875
_cell_angle_gamma    90.00105535140739

_space_group_name_H-M_alt    "P 1"
_space_group_IT_number       1

loop_
  _space_group_symop_operation_xyz
  'x, y, z'

loop_
  _atom_site_type_symbol
  _atom_site_label
  _atom_site_symmetry_multiplicity
  _atom_site_fract_x
  _atom_site_fract_y
  _atom_site_fract_z
  _atom_site_occupancy
  Cu  Cu1       1.0  0.6995545939537351  0.9556172860375513  0.4202735639256687  1.0000
  Cu  Cu2       1.0  0.1996016569340853  0.044394462548631  0.5797224747826207  1.0000
  H   H1        1.0  0.5563742698067243  0.6282737609064669  0.13560991927490562  1.0000
  H   H2        1.0  0.056469720292049885  0.3717354911076214  0.8643794192639478  1.0000
  H   H3        1.0  0.6370083229591258  0.5581196540152503  0.9900738584531368  1.0000
  H   H4        1.0  0.13701739838203508  0.4418559276429903  0.009931280385444602  1.0000
  H   H5        1.0  0.9938138542269  0.6732996273952381  0.9034782465204004  1.0000
  H   H6        1.0  0.49378353498200767  0.32666092326329743  0.09654071187175363  1.0000
  H   H7        1.0  0.26929924394777766  0.8640411690397514  0.9689786147055486  1.0000
  H   H8        1.0  0.7693015863668434  0.13595280819608752  0.0310298366670239  1.0000
  H   H9        1.0  0.37346997473684945  0.016571954011539  0.08661095417757991  1.0000
  H   H10       1.0  0.873526612030538  0.983434574812215  0.9133845243455384  1.0000
  H   H11       1.0  0.2996443377408298  0.09768698086942611  0.2351456105091856  1.0000
  H   H12       1.0  0.7996873710591073  0.9023283722202392  0.764847361029297  1.0000
  H   H13       1.0  0.5133184303958133  0.685489651777033  0.24863739435433982  1.0000
  H   H14       1.0  0.013369976750148298  0.31452011231751703  0.7513622811583789  1.0000
  H   H15       1.0  0.17662899690780887  0.6985085806683884  0.3577828348754153  1.0000
  H   H16       1.0  0.6766425811907125  0.30147955783717606  0.6422122485672404  1.0000
  H   H17       1.0  0.5587189471161977  0.53007988728897  0.37630300336570605  1.0000
  H   H18       1.0  0.05872665910697349  0.46992867729804993  0.6237001369682675  1.0000
  H   H19       1.0  0.34313050105398446  0.5397312974038472  0.4674079488682637  1.0000
  H   H20       1.0  0.8431289456529143  0.4602718351511044  0.5325939378123579  1.0000
  H   H21       1.0  0.6748873740431092  0.6236333517575404  0.468318772010072  1.0000
  H   H22       1.0  0.17489490760312518  0.37638916388441157  0.5316807780706085  1.0000
  C   C1        1.0  0.9815371197499586  0.9509418971832062  0.2605250115646598  1.0000
  C   C2        1.0  0.48157884221219394  0.0490755246191128  0.7394718954715245  1.0000
  C   C3        1.0  0.8249408841106954  0.837629240494529  0.22728588200253347  1.0000
  C   C4        1.0  0.324985631215803  0.16238155571059562  0.7727106128288952  1.0000
  C   C5        1.0  0.8668161170091436  0.7898475440666389  0.14050150912565582  1.0000
  C   C6        1.0  0.36683683124191907  0.2101438990762787  0.8595018830357335  1.0000
  C   C7        1.0  0.7165363358108792  0.6810716935182981  0.1012882478205057  1.0000
  C   C8        1.0  0.21656125906257984  0.3189172659383388  0.8987147751381955  1.0000
  C   C9        1.0  0.7608473385319597  0.6408380045239569  0.017885196240115402  1.0000
  C   C10       1.0  0.2608746434216087  0.35914366715595497  0.9821205484288245  1.0000
  C   C11       1.0  0.9601588338407507  0.7061306327033281  0.9690204855562712  1.0000
  C   C12       1.0  0.4601652429503531  0.29385143779736483  0.0309921959262525  1.0000
  C   C13       1.0  0.11145737728854502  0.8123000493951981  0.005143590097318903  1.0000
  C   C14       1.0  0.6114664212781805  0.18768825274175782  0.9948625898558705  1.0000
  C   C15       1.0  0.06709434372844209  0.8562245181402451  0.08987167456054122  1.0000
  C   C16       1.0  0.5671132439378112  0.14376497432262175  0.9101297767657358  1.0000
  C   C17       1.0  0.2210822379916806  0.9674624687046885  0.1259712817657288  1.0000
  C   C18       1.0  0.7211455445494366  0.03254668077212131  0.8740283426543984  1.0000
  C   C19       1.0  0.18100941350532906  0.013192560112607101  0.20721583049096645  1.0000
  C   C20       1.0  0.6810438401249285  0.9868137850737642  0.7927777019239886  1.0000
  C   C21       1.0  0.6243112413817826  0.7724416495617845  0.27765396087439603  1.0000
  C   C22       1.0  0.12435655604609512  0.2275719102755502  0.7223432118926709  1.0000
  C   C23       1.0  0.35481903778858026  0.724276600760888  0.39937772586019094  1.0000
  C   C24       1.0  0.8548429060504288  0.2757215455666753  0.6006177023323432  1.0000
  C   C25       1.0  0.4916160543960332  0.5956583879486957  0.42997651397574543  1.0000
  C   C26       1.0  0.9916238858028309  0.40434618941019107  0.5700257323879043  1.0000
  C   C27       1.0  0.2381565950464122  0.8070141699698186  0.4749069755425524  1.0000
  C   C28       1.0  0.7382086994097038  0.19297608828049562  0.525092795157889  1.0000
  N   N1        1.0  0.5572983284526671  0.8055163016102468  0.3551526354409163  1.0000
  N   N2        1.0  0.05732161462541539  0.19448711401052074  0.6448466394897849  1.0000
  O   O1        1.0  0.9613227500416315  0.003754411584310403  0.3367870918762749  1.0000
  O   O2        1.0  0.461399172794728  0.9962827176341736  0.6632027897210406  1.0000
  O   O3        1.0  0.3779937471352425  0.9177825782271755  0.495544969132574  1.0000
  O   O4        1.0  0.8780432904764409  0.08221586972037899  0.5044465486406651  1.0000
  O   O5        1.0  0.029105165432291406  0.7708436278778663  0.5132829921723997  1.0000
  O   O6        1.0  0.5291121282721107  0.22913910766073542  0.4867147899677918  1.0000
