data_image0
_chemical_formula_structural       Cd2H38C42S2N6O12
_chemical_formula_sum              "Cd2 H38 C42 S2 N6 O12"
_cell_length_a       8.4583573482809
_cell_length_b       10.362903693340412
_cell_length_c       12.762752968287124
_cell_angle_alpha    79.84021781288915
_cell_angle_beta     73.43662135669489
_cell_angle_gamma    81.95081540045024

_space_group_name_H-M_alt    "P 1"
_space_group_IT_number       1

loop_
  _space_group_symop_operation_xyz
  'x, y, z'

loop_
  _atom_site_type_symbol
  _atom_site_label
  _atom_site_symmetry_multiplicity
  _atom_site_fract_x
  _atom_site_fract_y
  _atom_site_fract_z
  _atom_site_occupancy
  Cd  Cd1       1.0  0.0444577841984923  0.17166517469492248  0.4918707155390862  1.0000
  Cd  Cd2       1.0  0.9555396246247126  0.828336127330523  0.5081298754969695  1.0000
  H   H1        1.0  0.07209673270908472  0.7786211896870369  0.7536554315125343  1.0000
  H   H2        1.0  0.9279021705622627  0.2213781730210442  0.24634751526614446  1.0000
  H   H3        1.0  0.369231357345882  0.723877444382232  0.753176144603408  1.0000
  H   H4        1.0  0.6307688814095441  0.27612089689891656  0.24682278189663256  1.0000
  H   H5        1.0  0.34084913001009204  0.7708353571109611  0.6180284121243318  1.0000
  H   H6        1.0  0.6591456888818713  0.22916691940199735  0.3819725288646437  1.0000
  H   H7        1.0  0.4136622588461805  0.9972460706862518  0.6125654655006298  1.0000
  H   H8        1.0  0.5863378642380397  0.002753272083062101  0.38743489977015605  1.0000
  H   H9        1.0  0.43716798033559473  0.9560767515825714  0.7484877427551879  1.0000
  H   H10       1.0  0.5628310342776642  0.04392160127756738  0.2515129837735444  1.0000
  H   H11       1.0  0.7897322030977705  0.9749349106933565  0.9078504240215537  1.0000
  H   H12       1.0  0.21026717584624777  0.02506047114137289  0.09214911211172698  1.0000
  H   H13       1.0  0.5040191987565947  0.9354655829886979  0.9121327758304357  1.0000
  H   H14       1.0  0.4959761087958939  0.06453273773021809  0.08786709895074553  1.0000
  H   H15       1.0  0.4090838451885261  0.7118220094005421  0.9743671782348783  1.0000
  H   H16       1.0  0.5909204562998553  0.28817337627686607  0.02562984665885183  1.0000
  H   H17       1.0  0.6012020818120047  0.5250986081756251  0.0348450199227983  1.0000
  H   H18       1.0  0.3988033411351921  0.47489779249028163  0.9651539881505895  1.0000
  H   H19       1.0  0.8850534829061089  0.5631586453514854  0.029423146471984307  1.0000
  H   H20       1.0  0.11494923443864746  0.4368397312900994  0.9705776503250828  1.0000
  H   H21       1.0  0.20387827581600254  0.3417873225083454  0.2553458363015864  1.0000
  H   H22       1.0  0.7961217186091646  0.6582129966698175  0.744653623302348  1.0000
  H   H23       1.0  0.1689836641595619  0.568664420902948  0.14793627143306048  1.0000
  H   H24       1.0  0.8310213901276031  0.43133494242859877  0.8520631455565776  1.0000
  H   H25       1.0  0.938047759044224  0.7289213321827432  0.23384366412246044  1.0000
  H   H26       1.0  0.061957295242933696  0.27107803114880363  0.7661557528671705  1.0000
  H   H27       1.0  0.7462847591119443  0.6577235398247437  0.41583345789344145  1.0000
  H   H28       1.0  0.25371855639681945  0.3422797407211817  0.5841641364574741  1.0000
  H   H29       1.0  0.595810456016551  0.5880316195038162  0.5629930679051752  1.0000
  H   H30       1.0  0.4041879412771294  0.41197166555920695  0.4370078191644922  1.0000
  H   H31       1.0  0.40341450344745067  0.4825280737606903  0.7329210905526792  1.0000
  H   H32       1.0  0.596584018176003  0.5174742265337072  0.2670799207046385  1.0000
  H   H33       1.0  0.46479766418761415  0.24336943649567638  0.8021116955388264  1.0000
  H   H34       1.0  0.5352020859072866  0.7566328605795006  0.19788829716900116  1.0000
  H   H35       1.0  0.7259882768482696  0.12134876891351348  0.6995738173687228  1.0000
  H   H36       1.0  0.2740091319749354  0.878652533111932  0.30042677366733267  1.0000
  H   H37       1.0  0.08025401168546864  0.9935930396325569  0.8596643639895447  1.0000
  H   H38       1.0  0.9197435301260768  0.006407294343816299  0.140337914192564  1.0000
  C   C1        1.0  0.09812391112955514  0.9740940249910678  0.6685316349826635  1.0000
  C   C2        1.0  0.9018752278134768  0.025903343100445394  0.3314692157337191  1.0000
  C   C3        1.0  0.1523717021204547  0.8568687049495407  0.7458717186540367  1.0000
  C   C4        1.0  0.8476270724918321  0.14313163416738917  0.2541303224577831  1.0000
  C   C5        1.0  0.33333284732682966  0.807017360658534  0.695300506497901  1.0000
  C   C6        1.0  0.6666648058266418  0.19298196346989724  0.3046995514342541  1.0000
  C   C7        1.0  0.44868429689886813  0.9156839967009559  0.6725110733897991  1.0000
  C   C8        1.0  0.5513145847260504  0.084315324208255  0.3274879659928728  1.0000
  C   C9        1.0  0.6289774760775231  0.8704983563780642  0.6238841973584213  1.0000
  C   C10       1.0  0.37102030573500855  0.12949999134151818  0.3761167662405924  1.0000
  C   C11       1.0  0.852960451153642  0.7710809008503503  0.9687903349052716  1.0000
  C   C12       1.0  0.1470412647327777  0.22891546767433366  0.03120782142057982  1.0000
  C   C13       1.0  0.7471021441421398  0.8770408000863127  0.9361486994896139  1.0000
  C   C14       1.0  0.2528967331534986  0.12295851246312849  0.0638495584138568  1.0000
  C   C15       1.0  0.5871934475067847  0.8543653797866142  0.9387144993178108  1.0000
  C   C16       1.0  0.4128071642379609  0.14563000718866448  0.06128479974518092  1.0000
  C   C17       1.0  0.5339311136131287  0.7283208166209221  0.9735765800135494  1.0000
  C   C18       1.0  0.4660667795413147  0.27167652125071123  0.026422163335510618  1.0000
  C   C19       1.0  0.6408411266834975  0.6238783113993305  0.006938355655719911  1.0000
  C   C20       1.0  0.35916651320562215  0.37612006908493356  0.9930599299017899  1.0000
  C   C21       1.0  0.8012060183448356  0.6446364689805362  0.004682210011210892  1.0000
  C   C22       1.0  0.1987966816827793  0.3553618742219484  0.9953154608690509  1.0000
  C   C23       1.0  0.10407142521692242  0.415457563621821  0.28707072813465107  1.0000
  C   C24       1.0  0.8959310434682805  0.5845427825570083  0.7129298202871082  1.0000
  C   C25       1.0  0.0844736003799227  0.540691243681806  0.22838321287472493  1.0000
  C   C26       1.0  0.9155313339067492  0.4593091127781362  0.7716168614064641  1.0000
  C   C27       1.0  0.954022621054385  0.6287758434382338  0.2754014078371654  1.0000
  C   C28       1.0  0.04598439718586893  0.3712274608891376  0.7245962567820853  1.0000
  C   C29       1.0  0.8467183078115498  0.5886948077271299  0.377938251086661  1.0000
  C   C30       1.0  0.15328378355504677  0.4113084843977858  0.6220611432929459  1.0000
  C   C31       1.0  0.8724784500462521  0.46046136916346103  0.43157961010484047  1.0000
  C   C32       1.0  0.12752129571936877  0.5395409195519462  0.5684196011237858  1.0000
  C   C33       1.0  0.7593545490397204  0.40801640615999435  0.5387632352155762  1.0000
  C   C34       1.0  0.24064507239612007  0.5919868673240386  0.4612358518253997  1.0000
  C   C35       1.0  0.619501050243592  0.48408457465097143  0.5934647830019983  1.0000
  C   C36       1.0  0.3804986998513087  0.5159177224242127  0.4065352097058294  1.0000
  C   C37       1.0  0.5129278756765886  0.4252465775801041  0.6893195488021105  1.0000
  C   C38       1.0  0.4870705172878048  0.5747566991231422  0.31068055678835543  1.0000
  C   C39       1.0  0.5469376570865307  0.292805651443487  0.7284783293788237  1.0000
  C   C40       1.0  0.45306209300836997  0.7071966456316899  0.2715216633290111  1.0000
  C   C41       1.0  0.6912917608351707  0.22464332494263314  0.6722672585594295  1.0000
  C   C42       1.0  0.3087055279875486  0.7753589702112079  0.3277339897681698  1.0000
  S   S1        1.0  0.059097112450814386  0.7955032792866134  0.9646449875134093  1.0000
  S   S2        1.0  0.9408953979652992  0.20450793860111818  0.03536288764899355  1.0000
  N   N1        1.0  0.12993173144666775  0.8974282055508879  0.8544095747339778  1.0000
  N   N2        1.0  0.8700685202966127  0.10257016080958435  0.14559169620366672  1.0000
  N   N3        1.0  0.0009712311550842135  0.37711015795673564  0.3856466753336462  1.0000
  N   N4        1.0  0.9990283989393307  0.6228931322468442  0.6143539746657324  1.0000
  N   N5        1.0  0.7944705993334226  0.281593853566541  0.5805594240391939  1.0000
  N   N6        1.0  0.20552901777313787  0.7184094115577081  0.4194388815225806  1.0000
  O   O1        1.0  0.04896442630952439  0.08378629545952519  0.7008672512658833  1.0000
  O   O2        1.0  0.9510331198313084  0.9162140468766181  0.2991358083954267  1.0000
  O   O3        1.0  0.11476645355413245  0.9534949600430306  0.5693991040271127  1.0000
  O   O4        1.0  0.8852310925867  0.04650538229311959  0.4306039556341972  1.0000
  O   O5        1.0  0.6662164213845401  0.8084624868888778  0.5401067006050652  1.0000
  O   O6        1.0  0.33378024329845607  0.1915348542019756  0.4598930612934851  1.0000
  O   O7        1.0  0.7380087055771513  0.8979596384485689  0.6654876517493307  1.0000
  O   O8        1.0  0.2619891919065793  0.10203770778284137  0.33451187307893787  1.0000
  O   O9        1.0  0.054133138158995626  0.8590585021000263  0.05822948055874378  1.0000
  O   O10       1.0  0.9458601751354081  0.1409358191046479  0.9417666762384228  1.0000
  O   O11       1.0  0.15645350682493134  0.6693895887698317  0.9528229986068123  1.0000
  O   O12       1.0  0.8435526750887663  0.3306009283636725  0.0471790990301031  1.0000
