data_image0
_chemical_formula_structural       Nd2H54C44N4O20
_chemical_formula_sum              "Nd2 H54 C44 N4 O20"
_cell_length_a       9.303193014535882
_cell_length_b       11.908061249547215
_cell_length_c       12.8534
_cell_angle_alpha    84.44797234056506
_cell_angle_beta     70.43417258353844
_cell_angle_gamma    68.54671480979476

_space_group_name_H-M_alt    "P 1"
_space_group_IT_number       1

loop_
  _space_group_symop_operation_xyz
  'x, y, z'

loop_
  _atom_site_type_symbol
  _atom_site_label
  _atom_site_symmetry_multiplicity
  _atom_site_fract_x
  _atom_site_fract_y
  _atom_site_fract_z
  _atom_site_occupancy
  Nd  Nd1       1.0  0.8481815714976264  0.8929306263625635  0.5220002853376755  1.0000
  Nd  Nd2       1.0  0.15181972617642  0.1070683407126936  0.4780000373063941  1.0000
  H   H1        1.0  0.8808480163262828  0.2726639682753031  0.32579504028667816  1.0000
  H   H2        1.0  0.119144428352854  0.7273368041390073  0.6742072664203816  1.0000
  H   H3        1.0  0.643368337969484  0.1978326644124735  0.2526191720126931  1.0000
  H   H4        1.0  0.3566315457614238  0.80216449732373  0.7473824331816628  1.0000
  H   H5        1.0  0.7832630087238642  0.40386698415543526  0.18233115468015626  1.0000
  H   H6        1.0  0.2167353004368238  0.596131080250295  0.8176699732611467  1.0000
  H   H7        1.0  0.5911745477050872  0.4061001885674571  0.1785817175899495  1.0000
  H   H8        1.0  0.40881876457270044  0.5938987785077998  0.8214189846303694  1.0000
  H   H9        1.0  0.7739876903031869  0.3098485368075785  0.08640294164452199  1.0000
  H   H10       1.0  0.22600920491436227  0.6901477222590984  0.9135986908427967  1.0000
  H   H11       1.0  0.286965221525115  0.5777021791687105  0.2463221273914867  1.0000
  H   H12       1.0  0.7130363493211715  0.422298593245607  0.7536771892144215  1.0000
  H   H13       1.0  0.281187400427477  0.8224420655984588  0.1411162073174381  1.0000
  H   H14       1.0  0.7188141704188098  0.1775587068158586  0.8588838872927267  1.0000
  H   H15       1.0  0.5755685386552968  0.6801190638041348  0.06194363319927018  1.0000
  H   H16       1.0  0.4244307506492078  0.3198817086101755  0.9380554584265893  1.0000
  H   H17       1.0  0.46360332811941857  0.6882746829887054  0.9742910540424744  1.0000
  H   H18       1.0  0.5363959611850788  0.311726089425612  0.025708037583385076  1.0000
  H   H19       1.0  0.504499580445767  0.5594059705077257  0.060226729504826444  1.0000
  H   H20       1.0  0.4955008496296287  0.4405948019065917  0.9397720856089292  1.0000
  H   H21       1.0  0.752327669081616  0.6068168821215636  0.8956818481486762  1.0000
  H   H22       1.0  0.2476720540222104  0.39318298762322  0.10431799724234737  1.0000
  H   H23       1.0  0.05456243354443298  0.5374106221214063  0.688087791118427  1.0000
  H   H24       1.0  0.9454372895593934  0.4625892476233773  0.3119120542725965  1.0000
  H   H25       1.0  0.9677730478653785  0.417652553185512  0.9165274517722394  1.0000
  H   H26       1.0  0.03222439369665855  0.5823473165592787  0.08347216863874247  1.0000
  H   H27       1.0  0.1692782833069018  0.4099726408421418  0.8352021060479657  1.0000
  H   H28       1.0  0.8307198652267046  0.5900281315721685  0.16479881809853228  1.0000
  H   H29       1.0  0.06973751032283099  0.3355015021209411  0.7878186711129159  1.0000
  H   H30       1.0  0.9302626465803241  0.6644974649543158  0.21218192804326466  1.0000
  H   H31       1.0  0.5014200305403875  0.1813490161635087  0.6408181595739747  1.0000
  H   H32       1.0  0.4985783911654664  0.818653561589862  0.3591864265599368  1.0000
  H   H33       1.0  0.6312702083316141  0.3366487950909018  0.5972161019263139  1.0000
  H   H34       1.0  0.3687282133742399  0.6633537826624689  0.40278537219054295  1.0000
  H   H35       1.0  0.740640122924944  0.4578114178122092  0.5511778451647515  1.0000
  H   H36       1.0  0.2593607409497736  0.5421884519325744  0.448821723714161  1.0000
  H   H37       1.0  0.8493141043871049  0.6236579875035773  0.5042027027769009  1.0000
  H   H38       1.0  0.15068675948761262  0.3763418822412063  0.49579920011480266  1.0000
  H   H39       1.0  0.4678400238689093  0.9249230397703627  0.6105700012756115  1.0000
  H   H40       1.0  0.5321601330342389  0.0750759273048942  0.3894298198763052  1.0000
  H   H41       1.0  0.5684623584025986  0.8751841434440735  0.6979928600100677  1.0000
  H   H42       1.0  0.43153693090190615  0.1248166289702439  0.3020077876243192  1.0000
  H   H43       1.0  0.8254886483981707  0.0619113949100125  0.6962466352737661  1.0000
  H   H44       1.0  0.17451221547655388  0.9380884748347711  0.3037529336051463  1.0000
  H   H45       1.0  0.6499906198223186  0.045267974154612006  0.7494105093845533  1.0000
  H   H46       1.0  0.35000981025307704  0.9547327982597055  0.2505890837334661  1.0000
  H   H47       1.0  0.689468253964655  0.9006836549376942  0.2612323874449131  1.0000
  H   H48       1.0  0.3105342970254412  0.0993198254852032  0.7387656708498085  1.0000
  H   H49       1.0  0.9300598134224674  0.9591955964056352  0.19306404625168463  1.0000
  H   H50       1.0  0.0699413236244908  0.0408060786782087  0.8069345165890595  1.0000
  H   H51       1.0  0.8871556216184472  0.9742638588348598  0.8650029658605757  1.0000
  H   H52       1.0  0.1128441014853792  0.0257360109099309  0.13499610152618394  1.0000
  H   H53       1.0  0.6467587617508315  0.9126810356329997  0.947861689979753  1.0000
  H   H54       1.0  0.3532416683245644  0.0873197367813177  0.05213634712973199  1.0000
  C   C1        1.0  0.8004398187751391  0.1254638430217483  0.40250038372325747  1.0000
  C   C2        1.0  0.1995646280393402  0.8745333187144553  0.5974970034056  1.0000
  C   C3        1.0  0.8022376342789173  0.2239207164382861  0.324270239530179  1.0000
  C   C4        1.0  0.19776507733826068  0.7760800559760314  0.6757288005636111  1.0000
  C   C5        1.0  0.7178840925652921  0.2505124580606619  0.25277715138913937  1.0000
  C   C6        1.0  0.28211551799336837  0.7494828983364884  0.747224681839121  1.0000
  C   C7        1.0  0.7175123752374333  0.3482733732711836  0.17147241885959358  1.0000
  C   C8        1.0  0.2824833792092247  0.6517228857954862  0.828528712135572  1.0000
  C   C9        1.0  0.11364270081271141  0.7487643733922766  0.3302246755252796  1.0000
  C   C10       1.0  0.8863581630620061  0.251235496352507  0.669774893353633  1.0000
  C   C11       1.0  0.24773338305821826  0.6753628980616355  0.23629392983100658  1.0000
  C   C12       1.0  0.7522681877880687  0.3246378743526748  0.7637061647791583  1.0000
  C   C13       1.0  0.3251888415855504  0.7242614090574548  0.1467283840497373  1.0000
  C   C14       1.0  0.6748104477189473  0.2757393633568554  0.8532707075761222  1.0000
  C   C15       1.0  0.47369079959199206  0.6574900414092326  0.055944082379696156  1.0000
  C   C16       1.0  0.5263077827409433  0.342509828335551  0.9440544835149112  1.0000
  C   C17       1.0  0.7639270726479026  0.7181322829630261  0.7489770919056153  1.0000
  C   C18       1.0  0.23607379122681485  0.2818675867817646  0.2510240329818245  1.0000
  C   C19       1.0  0.8323914124606305  0.6130886300014069  0.8128012316603799  1.0000
  C   C20       1.0  0.16761031901273774  0.38690943440432324  0.18719906674458997  1.0000
  C   C21       1.0  0.9802048346778848  0.5273973090484247  0.7722770044500675  1.0000
  C   C22       1.0  0.019793747655043527  0.472602560696366  0.22772233944880324  1.0000
  C   C23       1.0  0.049108370022580096  0.4178060070052538  0.8318372151231584  1.0000
  C   C24       1.0  0.9508906461096698  0.5821929600700102  0.16816288254087652  1.0000
  C   C25       1.0  0.45643796256258184  0.2631877435714216  0.5979366783446591  1.0000
  C   C26       1.0  0.5435620337134921  0.7368139315124225  0.40206605102950727  1.0000
  C   C27       1.0  0.5250018723712132  0.3511853851681863  0.5726565274008948  1.0000
  C   C28       1.0  0.47499812390485363  0.6488162899156507  0.42734542396900815  1.0000
  C   C29       1.0  0.462137941801565  0.4540111790997586  0.5151199753329793  1.0000
  C   C30       1.0  0.5378624882738308  0.5459895933145589  0.484881951797824  1.0000
  C   C31       1.0  0.6765161558054871  0.536466429795226  0.5118149168800625  1.0000
  C   C32       1.0  0.32348470806923063  0.46353343994956486  0.4881862080073771  1.0000
  C   C33       1.0  0.7422267858752888  0.6262305956580931  0.4858255608318487  1.0000
  C   C34       1.0  0.25777293722853756  0.3737692740866976  0.5141766185719661  1.0000
  C   C35       1.0  0.7369496050832323  0.9205730753154171  0.174902327513287  1.0000
  C   C36       1.0  0.2630515319637325  0.0794285997684199  0.8250954573231934  1.0000
  C   C37       1.0  0.8712190538133909  0.9549674923369551  0.134006685196418  1.0000
  C   C38       1.0  0.1287836578037869  0.0450332800773552  0.8659907988888448  1.0000
  C   C39       1.0  0.9301340957397815  0.9797782669807944  0.021674007466352025  1.0000
  C   C40       1.0  0.0698672019342581  0.0202207000944696  0.9783216471521355  1.0000
  C   C41       1.0  0.8478826793859467  0.9621283697017803  0.9538236543392741  1.0000
  C   C42       1.0  0.15211889146033997  0.0378724027125301  0.04617255024957248  1.0000
  C   C43       1.0  0.7135989120919108  0.9275714721652193  0.9970658978591584  1.0000
  C   C44       1.0  0.28640265875437615  0.072429300249091  0.0029326407424861063  1.0000
  N   N1        1.0  0.3252964347271856  0.2738428546787404  0.5673269809533181  1.0000
  N   N2        1.0  0.6747039953482102  0.726157917735577  0.43267494617748536  1.0000
  N   N3        1.0  0.6559380069607812  0.9092924142252627  0.10773267334327831  1.0000
  N   N4        1.0  0.3440619893152856  0.09070926085857421  0.8922653880053133  1.0000
  O   O1        1.0  0.7066189166226593  0.0653776458971436  0.4157675630425074  1.0000
  O   O2        1.0  0.2933863977904707  0.9346177104999995  0.5842297756081365  1.0000
  O   O3        1.0  0.8989352366667518  0.0976905069873482  0.459355453253572  1.0000
  O   O4        1.0  0.10106133729664164  0.9023111680964959  0.5406465496484074  1.0000
  O   O5        1.0  0.04747302541770888  0.86421580601057  0.32322908474537826  1.0000
  O   O6        1.0  0.9525278384570087  0.1357840637342207  0.6767712621377981  1.0000
  O   O7        1.0  0.06757807566065567  0.6969385051174797  0.420379413048387  1.0000
  O   O8        1.0  0.932422788214062  0.3030613646273039  0.5796193778262617  1.0000
  O   O9        1.0  0.8575402922550668  0.7347098088428865  0.6539170316397929  1.0000
  O   O10       1.0  0.14246057161965098  0.2652900609018971  0.3460825372391199  1.0000
  O   O11       1.0  0.6150048586479073  0.784757418147727  0.7917871455199047  1.0000
  O   O12       1.0  0.3849948644559121  0.2152424515970637  0.20821347787538258  1.0000
  O   O13       1.0  0.26414160481823495  0.187656870824469  0.5914120770553237  1.0000
  O   O14       1.0  0.7358592590564825  0.8123429989203217  0.4085898258363798  1.0000
  O   O15       1.0  0.5619448827432052  0.9259358349806704  0.6299326153937769  1.0000
  O   O16       1.0  0.43805283199107947  0.0740658401031737  0.3700675549875641  1.0000
  O   O17       1.0  0.7617004719829906  0.0107869008583918  0.6949275551945604  1.0000
  O   O18       1.0  0.23830039189172672  0.9892129688863918  0.305072791688616  1.0000
  O   O19       1.0  0.5271487283355966  0.8779959590234796  0.14779485000732964  1.0000
  O   O20       1.0  0.4728524087113683  0.12200571606036452  0.8522052688419419  1.0000
