data_image0
_chemical_formula_structural       Zr6H50C88O42F2
_chemical_formula_sum              "Zr6 H50 C88 O42 F2"
_cell_length_a       19.161997604007162
_cell_length_b       19.13445224852425
_cell_length_c       19.141284198122616
_cell_angle_alpha    59.55792548668312
_cell_angle_beta     59.938657532601624
_cell_angle_gamma    59.97665590377016

_space_group_name_H-M_alt    "P 1"
_space_group_IT_number       1

loop_
  _space_group_symop_operation_xyz
  'x, y, z'

loop_
  _atom_site_type_symbol
  _atom_site_label
  _atom_site_symmetry_multiplicity
  _atom_site_fract_x
  _atom_site_fract_y
  _atom_site_fract_z
  _atom_site_occupancy
  Zr  Zr1       1.0  0.9076509185634477  0.4077827727374341  0.592271292378001  1.0000
  Zr  Zr2       1.0  0.092270912292726  0.5917583002153036  0.4083411197928656  1.0000
  Zr  Zr3       1.0  0.09201271518835331  0.4057716197187915  0.5941434328577985  1.0000
  Zr  Zr4       1.0  0.9080492348300596  0.5935843310337886  0.40630586470322794  1.0000
  Zr  Zr5       1.0  0.908267695792681  0.5915194487498922  0.5919370428736882  1.0000
  Zr  Zr6       1.0  0.09174370184024365  0.4080351124801568  0.4084580945772843  1.0000
  H   H1        1.0  0.9266399602413101  0.42618299126648657  0.7191832959094453  1.0000
  H   H2        1.0  0.9279626928718159  0.7186825547465362  0.4266928423628615  1.0000
  H   H3        1.0  0.21777875681741676  0.42678440653696015  0.42828267623660576  1.0000
  H   H4        1.0  0.9271858106394575  0.4277413210282574  0.42722869168335353  1.0000
  H   H5        1.0  0.4507488435559423  0.6130134596836853  0.04969030994140408  1.0000
  H   H6        1.0  0.5495019927427979  0.3864233185149996  0.9511318804820945  1.0000
  H   H7        1.0  0.6779697021068926  0.6127709979648017  0.8197136746903058  1.0000
  H   H8        1.0  0.5511514281081346  0.6133593572379327  0.9491172593571447  1.0000
  H   H9        1.0  0.319675624421663  0.38935868633482335  0.17823493582090322  1.0000
  H   H10       1.0  0.4490527931017709  0.38622332829064016  0.05147218804357583  1.0000
  H   H11       1.0  0.1128671308602305  0.9509341305877828  0.3864627315262084  1.0000
  H   H12       1.0  0.886471815387921  0.0494478440988361  0.6130472506284547  1.0000
  H   H13       1.0  0.11266759668831136  0.1780374359327368  0.38956126628973214  1.0000
  H   H14       1.0  0.11317145622014384  0.05137813913852097  0.3862103668923282  1.0000
  H   H15       1.0  0.8894562616682935  0.8195714219635732  0.6129480146151283  1.0000
  H   H16       1.0  0.886263664671446  0.9490475362239722  0.6133858981983236  1.0000
  H   H17       1.0  0.4498027361015745  0.05072545985920125  0.3866406834291282  1.0000
  H   H18       1.0  0.5509286263226513  0.9496407499631446  0.612792755829915  1.0000
  H   H19       1.0  0.6768519389137423  0.8204935949475997  0.3897155909252065  1.0000
  H   H20       1.0  0.5500496898887662  0.9500346949717411  0.38637578345407775  1.0000
  H   H21       1.0  0.3210546506332791  0.17688132435626613  0.6126930858154438  1.0000
  H   H22       1.0  0.4507206770913756  0.0502124489904645  0.6130936468047564  1.0000
  H   H23       1.0  0.8867103779830217  0.6128241966746943  0.949737091577532  1.0000
  H   H24       1.0  0.11295169497545032  0.3866861393912728  0.050752412189055525  1.0000
  H   H25       1.0  0.8894102437700508  0.6125240959450124  0.17716929716111451  1.0000
  H   H26       1.0  0.8860412041661971  0.6130824454596747  0.050399911757786034  1.0000
  H   H27       1.0  0.11295469273911612  0.3895358767785596  0.8208099203312783  1.0000
  H   H28       1.0  0.11360103303726271  0.3863464544174209  0.9502591439158864  1.0000
  H   H29       1.0  0.11424218138439102  0.8206208029790006  0.17707024088294077  1.0000
  H   H30       1.0  0.17892311470117048  0.9366062263445301  0.06364625792222962  1.0000
  H   H31       1.0  0.8899681538441866  0.8189839961227107  0.1785840524005805  1.0000
  H   H32       1.0  0.8880096908808072  0.17627859036900143  0.8214296241452316  1.0000
  H   H33       1.0  0.8208646741217225  0.06277629563334833  0.9373926696800298  1.0000
  H   H34       1.0  0.11239878195262774  0.17783757590243707  0.8198441621913872  1.0000
  H   H35       1.0  0.4502669517953777  0.3856877253768048  0.61383769258493  1.0000
  H   H36       1.0  0.5502687226915411  0.6136310574127108  0.3858970413894127  1.0000
  H   H37       1.0  0.6772441501714893  0.3887553393746471  0.6134950501544197  1.0000
  H   H38       1.0  0.5506744079111812  0.38547562245123856  0.6141593732531092  1.0000
  H   H39       1.0  0.3204509246274156  0.6132171077354373  0.38901765709621117  1.0000
  H   H40       1.0  0.44963904096528745  0.6139346720884262  0.38568994405841284  1.0000
  H   H41       1.0  0.26702158502220646  0.6190419607442124  0.22948805008419979  1.0000
  H   H42       1.0  0.7292284213931669  0.3842438895013558  0.7673636224770278  1.0000
  H   H43       1.0  0.11905655775041872  0.7670588279584295  0.38449119320608094  1.0000
  H   H44       1.0  0.8843826871554724  0.22909185708971336  0.6193250067783608  1.0000
  H   H45       1.0  0.26596390490500715  0.23023392934322118  0.3845925217496243  1.0000
  H   H46       1.0  0.7306832681152287  0.7660559546418141  0.6190339073093655  1.0000
  H   H47       1.0  0.8843229728318677  0.6188516528553689  0.7662288107530915  1.0000
  H   H48       1.0  0.11929323181325908  0.3844208783672229  0.23039096886887483  1.0000
  H   H49       1.0  0.2669443142413714  0.38306111225261924  0.6202925872454799  1.0000
  H   H50       1.0  0.7297896402009627  0.6199704817314426  0.38338535954972736  1.0000
  C   C1        1.0  0.761772103514538  0.5028959206133974  0.7343094486085632  1.0000
  C   C2        1.0  0.0009382302651630116  0.7340092523969802  0.5032168022902185  1.0000
  C   C3        1.0  0.2340259010827952  0.5009723781481127  0.26194797847333007  1.0000
  C   C4        1.0  0.003077216501395768  0.2615246702602932  0.5013323668672313  1.0000
  C   C5        1.0  0.0005898794386425584  0.2613883986622625  0.7344719029491245  1.0000
  C   C6        1.0  0.7618286481402521  0.500965525530404  0.5028904573819587  1.0000
  C   C7        1.0  0.0036136408443995845  0.7337291798120943  0.26199959750346835  1.0000
  C   C8        1.0  0.2343080755455275  0.5024759837481839  0.5013767212469844  1.0000
  C   C9        1.0  0.002961535247514744  0.500137288262131  0.7347217112551547  1.0000
  C   C10       1.0  0.23378885928178048  0.2610565945820227  0.5039597271628153  1.0000
  C   C11       1.0  0.0011845724851510795  0.5035935407907814  0.26142701993912704  1.0000
  C   C12       1.0  0.7622130960564206  0.734355029515811  0.5004830132233806  1.0000
  C   C13       1.0  0.3112872118909777  0.501577784093591  0.1860059580828732  1.0000
  C   C14       1.0  0.6858518377744292  0.5009687773695076  0.8116007113040877  1.0000
  C   C15       1.0  0.3501431131180084  0.5649059763446331  0.14815709745261063  1.0000
  C   C16       1.0  0.4240764500594806  0.5627865143646106  0.07583287268208483  1.0000
  C   C17       1.0  0.6480800060791551  0.43653410490394134  0.850587504644139  1.0000
  C   C18       1.0  0.5756748385159014  0.43715752692524745  0.9244538757532013  1.0000
  C   C19       1.0  0.6487398767228714  0.5636079932443607  0.8496058249747164  1.0000
  C   C20       1.0  0.5773170164610519  0.5634530860772812  0.9225012472274585  1.0000
  C   C21       1.0  0.34943553977226555  0.43795983115963827  0.14897189429186133  1.0000
  C   C22       1.0  0.4223375447619445  0.43664923621840057  0.07758279337414817  1.0000
  C   C23       1.0  0.46129052037484536  0.49975376590333537  0.039066776450674565  1.0000
  C   C24       1.0  0.5388482760159835  0.49985321501345237  0.9615382074692319  1.0000
  C   C25       1.0  0.0015057869241415958  0.8113412353359948  0.5011840036095309  1.0000
  C   C26       1.0  0.0010936636087066902  0.18568090323507394  0.5018209401534648  1.0000
  C   C27       1.0  0.0647031719358466  0.8503510345984182  0.43668107483688345  1.0000
  C   C28       1.0  0.06263225170408729  0.9242569325520907  0.4372245043290732  1.0000
  C   C29       1.0  0.9367278680854625  0.1478538014451373  0.5650798063092495  1.0000
  C   C30       1.0  0.9372523075514396  0.07557577829615496  0.5628813774361846  1.0000
  C   C31       1.0  0.06358612629257719  0.14873598356569329  0.43812725720253803  1.0000
  C   C32       1.0  0.06336446504497671  0.07742083953785082  0.43669641625724137  1.0000
  C   C33       1.0  0.9379602898555249  0.8494448393358878  0.5637441457795094  1.0000
  C   C34       1.0  0.9366429587530618  0.9223671170100471  0.5635198291242604  1.0000
  C   C35       1.0  0.9996857377118997  0.9613869713637941  0.49989184684807236  1.0000
  C   C36       1.0  0.9998332805606651  0.03889029526295908  0.49978948433385983  1.0000
  C   C37       1.0  0.3114077847585506  0.18556836691311673  0.5014260236730622  1.0000
  C   C38       1.0  0.6860719509833046  0.8113940490998032  0.5014198113789164  1.0000
  C   C39       1.0  0.3496924040451431  0.14862119883526503  0.4369140537688168  1.0000
  C   C40       1.0  0.4236293460399382  0.07630186695813981  0.4374028095755165  1.0000
  C   C41       1.0  0.6489427221709292  0.8496182212260734  0.5646797035185996  1.0000
  C   C42       1.0  0.5765622948153178  0.9235035300777881  0.5625838528138587  1.0000
  C   C43       1.0  0.6481799807864166  0.850059892782795  0.4380188073731973  1.0000
  C   C44       1.0  0.5767815690605643  0.9229370923932194  0.4366813711564319  1.0000
  C   C45       1.0  0.3503758319993509  0.1479610394846276  0.5637384989262201  1.0000
  C   C46       1.0  0.4233456302518732  0.07668264767191586  0.5634435130753346  1.0000
  C   C47       1.0  0.46153257433773126  0.03884356472529054  0.49992327308275714  1.0000
  C   C48       1.0  0.539048855936528  0.9613212460764515  0.49967035470125837  1.0000
  C   C49       1.0  0.0011514946711555546  0.5012319238558263  0.8116639651189105  1.0000
  C   C50       1.0  0.0016638109838282822  0.5012591740146277  0.18578990805469434  1.0000
  C   C51       1.0  0.9368358555366144  0.5645848936246979  0.8497923936849645  1.0000
  C   C52       1.0  0.9374305918804141  0.5625935703628923  0.9236281891497526  1.0000
  C   C53       1.0  0.06488361381561693  0.4368396332865744  0.14873447764453826  1.0000
  C   C54       1.0  0.06277316461044084  0.43741220137503933  0.07638297881742055  1.0000
  C   C55       1.0  0.9380003125307184  0.5636225438964927  0.14818758911655283  1.0000
  C   C56       1.0  0.9366025777743732  0.563415720422249  0.07686609456896328  1.0000
  C   C57       1.0  0.06378839052670326  0.43788087929915054  0.8503304528540595  1.0000
  C   C58       1.0  0.06365562115390594  0.4366257367128484  0.9231610111343757  1.0000
  C   C59       1.0  2.24398184017972e-05  0.49967953035675805  0.9614672318409279  1.0000
  C   C60       1.0  0.9997774935407335  0.49993897179513863  0.03897245169468992  1.0000
  C   C61       1.0  0.06521682944360656  0.8502361283396525  0.1478923191918682  1.0000
  C   C62       1.0  0.06538537163736877  0.924655282013511  0.07480969903653541  1.0000
  C   C63       1.0  0.12907892153555883  0.9640215911575751  0.03605710237263087  1.0000
  C   C64       1.0  0.9381738842885384  0.8490990151470114  0.1489675419448204  1.0000
  C   C65       1.0  0.9364436252937623  0.9233854874285539  0.07606980430494313  1.0000
  C   C66       1.0  0.872816252227189  0.9637645081731419  0.03628347165007996  1.0000
  C   C67       1.0  0.9366165792284422  0.147171774373419  0.8510128452275012  1.0000
  C   C68       1.0  0.9351616011735403  0.07404770358977682  0.9254105432787796  1.0000
  C   C69       1.0  0.8708721894620126  0.03527354918004029  0.9647833928569013  1.0000
  C   C70       1.0  0.06369767849261626  0.1482279847918377  0.8499139638962631  1.0000
  C   C71       1.0  0.06409218351801377  0.07528010388237757  0.9241581037213534  1.0000
  C   C72       1.0  0.12712051414637673  0.03552781759060514  0.9645447943708731  1.0000
  C   C73       1.0  0.0025524218737373637  0.8128086470162047  0.1842501058549928  1.0000
  C   C74       1.0  0.0003984572682043579  0.9621384200882517  0.037619403891980596  1.0000
  C   C75       1.0  0.00031011171656562185  0.18359923292396027  0.8135957539894605  1.0000
  C   C76       1.0  0.9998481320853972  0.03683206703571074  0.9629023889053271  1.0000
  C   C77       1.0  0.3114994478173826  0.5007263502206599  0.501877355066192  1.0000
  C   C78       1.0  0.6858712577755525  0.5015998561729447  0.5010566348114339  1.0000
  C   C79       1.0  0.35011665838695183  0.4360309255833741  0.5655071608886004  1.0000
  C   C80       1.0  0.4239189032498488  0.43674830088389877  0.5633057700420564  1.0000
  C   C81       1.0  0.6483801470458985  0.5652663507516708  0.4363130427028923  1.0000
  C   C82       1.0  0.5760526498712011  0.563104773698015  0.43699105465177007  1.0000
  C   C83       1.0  0.648361507461068  0.4376494095223154  0.56404426294975  1.0000
  C   C84       1.0  0.5770158271635212  0.4362639198863505  0.5639597995213705  1.0000
  C   C85       1.0  0.34991349527023646  0.5637711501941923  0.43789921030979434  1.0000
  C   C86       1.0  0.4227377994909816  0.5637183389330929  0.43647606642657877  1.0000
  C   C87       1.0  0.46140616539629775  0.4998035546710041  0.49989510415306887  1.0000
  C   C88       1.0  0.5388841358999912  0.4997066830780454  0.5000166428737886  1.0000
  O   O1        1.0  0.7934446727230549  0.4429290059955092  0.7024858140453035  1.0000
  O   O2        1.0  0.06108202268219298  0.7021012081280134  0.44332002530239106  1.0000
  O   O3        1.0  0.2022418705979875  0.5610152122699645  0.2936915002557896  1.0000
  O   O4        1.0  0.9431050403918635  0.2932084454793367  0.5614333103985274  1.0000
  O   O5        1.0  0.059858904520453525  0.2924650329551497  0.703327466419772  1.0000
  O   O6        1.0  0.793865043892254  0.5614074157542744  0.44242062038925667  1.0000
  O   O7        1.0  0.9444238199727624  0.7025988267200275  0.29302291302582983  1.0000
  O   O8        1.0  0.20232033584710507  0.4420022307352555  0.5618642801114078  1.0000
  O   O9        1.0  0.9428799924949232  0.5601238052406146  0.7024530991195946  1.0000
  O   O10       1.0  0.20139206853484382  0.2933850542081515  0.44396742522037863  1.0000
  O   O11       1.0  0.06123645469889979  0.44356462141249864  0.2937498720094425  1.0000
  O   O12       1.0  0.7945481724812568  0.7021268207213894  0.5604840145453308  1.0000
  O   O13       1.0  0.20197255642825956  0.29238443330346087  0.5628301197159403  1.0000
  O   O14       1.0  0.9427235348284809  0.5623355658655244  0.29289257656599693  1.0000
  O   O15       1.0  0.7941647343848928  0.7030092162532853  0.441589883961079  1.0000
  O   O16       1.0  0.061185346038172383  0.44115539967344825  0.7034699500768582  1.0000
  O   O17       1.0  0.9410726969017844  0.29268246698916295  0.7036084720462341  1.0000
  O   O18       1.0  0.20245670047449235  0.5613359612754253  0.4422311209672856  1.0000
  O   O19       1.0  0.06265425832700787  0.7029365715386078  0.2933130886615629  1.0000
  O   O20       1.0  0.7939389642630132  0.4417785736197788  0.5617587343313133  1.0000
  O   O21       1.0  0.06161010191077315  0.29390521198725134  0.4426005583005406  1.0000
  O   O22       1.0  0.7942312769177065  0.5613431271779062  0.7022211344696744  1.0000
  O   O23       1.0  0.9421052786700488  0.701951858423591  0.5616866500158793  1.0000
  O   O24       1.0  0.20191069767363962  0.4421768307945086  0.294365241355429  1.0000
  O   O25       1.0  0.9478864921782415  0.44837208536451806  0.44785376165289376  1.0000
  O   O26       1.0  0.1558266009382336  0.4473629310923073  0.4489183305638491  1.0000
  O   O27       1.0  0.9484240059515158  0.6563951404794818  0.44751622106899447  1.0000
  O   O28       1.0  0.9476522539803584  0.4470171852267343  0.6568963233631565  1.0000
  O   O29       1.0  0.038432573721593054  0.537273850121558  0.5389757493401602  1.0000
  O   O30       1.0  0.8853495376871835  0.5384405376089134  0.5377829768512257  1.0000
  O   O31       1.0  0.03823967135321035  0.5387010415656732  0.38514262063371524  1.0000
  O   O32       1.0  0.0378981535108523  0.3846820466365131  0.5391756530980559  1.0000
  O   O33       1.0  0.3188942820770534  0.6284712494630541  0.17878475501752444  1.0000
  O   O34       1.0  0.678848811257808  0.3733787454854466  0.8195794821760244  1.0000
  O   O35       1.0  0.1280687753650723  0.8193236863068237  0.37351771082818896  1.0000
  O   O36       1.0  0.8737536046832161  0.17845329911921232  0.628652804052585  1.0000
  O   O37       1.0  0.3179788714341996  0.17995727610568218  0.3738594459905968  1.0000
  O   O38       1.0  0.680225503822747  0.8179307118247366  0.6281507132936496  1.0000
  O   O39       1.0  0.8738096652380566  0.628055859023142  0.8180444638597706  1.0000
  O   O40       1.0  0.12834374194493856  0.3737799858305948  0.18002913919811195  1.0000
  O   O41       1.0  0.318831544288365  0.3724733487183371  0.6294437570029814  1.0000
  O   O42       1.0  0.6793431252324921  0.6291727458909194  0.3727691469116436  1.0000
  F   F1        1.0  0.18796231229167407  0.07267215621040185  0.9277105337503925  1.0000
  F   F2        1.0  0.8116819049676209  0.9269230282283443  0.07336078542500968  1.0000
