data_image0
_chemical_formula_structural       Na2Y2H32C36O24
_chemical_formula_sum              "Na2 Y2 H32 C36 O24"
_cell_length_a       6.79323159690629
_cell_length_b       7.469009441040821
_cell_length_c       19.855896414179103
_cell_angle_alpha    90.00016465840373
_cell_angle_beta     99.85219330249497
_cell_angle_gamma    89.99963007877652

_space_group_name_H-M_alt    "P 1"
_space_group_IT_number       1

loop_
  _space_group_symop_operation_xyz
  'x, y, z'

loop_
  _atom_site_type_symbol
  _atom_site_label
  _atom_site_symmetry_multiplicity
  _atom_site_fract_x
  _atom_site_fract_y
  _atom_site_fract_z
  _atom_site_occupancy
  Na  Na1       1.0  0.3369986069134824  0.7499283656814981  0.6729646374447926  1.0000
  Na  Na2       1.0  0.6629938461305329  0.24991865113246797  0.3270343821286802  1.0000
  Y   Y1        1.0  0.2070139734820344  0.24990026389404826  0.414505252288052  1.0000
  Y   Y2        1.0  0.7929799655947819  0.7499065869529244  0.5854953660603858  1.0000
  H   H1        1.0  0.39165308178233715  0.35044898729942997  0.18930812895842317  1.0000
  H   H2        1.0  0.20386012195100278  0.6496107736757749  0.8108516425561593  1.0000
  H   H3        1.0  0.7961434726054007  0.14960856792348656  0.18914541095248452  1.0000
  H   H4        1.0  0.6083372146831536  0.850447447361084  0.8106893593803622  1.0000
  H   H5        1.0  0.3264446832927987  0.35389760556849126  0.06228805454497892  1.0000
  H   H6        1.0  0.26534132856484405  0.646002841300877  0.9378254872070432  1.0000
  H   H7        1.0  0.7346518178209606  0.14600135347889415  0.06217346253005473  1.0000
  H   H8        1.0  0.6735485619821944  0.8538899704721457  0.9377126336861753  1.0000
  H   H9        1.0  0.2810947674483089  0.14922084121804596  0.968880223775024  1.0000
  H   H10       1.0  0.3126451593088291  0.8508041139715984  0.03113737927948531  1.0000
  H   H11       1.0  0.6873391666487834  0.35079790288428103  0.9688582453559254  1.0000
  H   H12       1.0  0.7189192610602504  0.6492058919216247  0.031122482836806912  1.0000
  H   H13       1.0  0.21707241365794522  0.1472711512991225  0.8422571636568467  1.0000
  H   H14       1.0  0.37513874625732063  0.8531260129561105  0.1577284249989576  1.0000
  H   H15       1.0  0.6248724604985867  0.35311115662089065  0.8422682886376979  1.0000
  H   H16       1.0  0.7829386588099894  0.6472501108042364  0.15774184059765875  1.0000
  H   H17       1.0  0.4425739967023929  0.7319890102968288  0.4362183373777599  1.0000
  H   H18       1.0  0.005595518199193397  0.26798014531067327  0.5637742928331237  1.0000
  H   H19       1.0  0.9944027770804452  0.7679774162929859  0.43622760975046077  1.0000
  H   H20       1.0  0.5574185432445518  0.23199113528834658  0.5637867117620704  1.0000
  H   H21       1.0  0.2804513763983394  0.8832140086266234  0.3445337643435595  1.0000
  H   H22       1.0  0.9356430615766911  0.1166979700215123  0.6554713837216897  1.0000
  H   H23       1.0  0.0643622302919979  0.6166920264909524  0.34452875686082535  1.0000
  H   H24       1.0  0.7195581218499214  0.3832105263112168  0.655465398473162  1.0000
  H   H25       1.0  0.48058776793759955  0.408982034189023  0.7356954825294014  1.0000
  H   H26       1.0  0.7443078450959745  0.5908897525435675  0.264367471651518  1.0000
  H   H27       1.0  0.2556976025631741  0.09089099069893788  0.735635672398914  1.0000
  H   H28       1.0  0.5194170761379482  0.9089781164334382  0.264303432451591  1.0000
  H   H29       1.0  0.24558220901402453  0.39753272012868723  0.7269325396520474  1.0000
  H   H30       1.0  0.5180700100965367  0.6027193371206961  0.2731257385357183  1.0000
  H   H31       1.0  0.481932384143235  0.10271112853616417  0.7268747193523881  1.0000
  H   H32       1.0  0.7544242082538446  0.8975314894191156  0.2730659525516189  1.0000
  C   C1        1.0  0.1357530841678809  0.24990126404771468  0.27278124684533384  1.0000
  C   C2        1.0  0.8642438458168442  0.7499029090578446  0.7272190448020485  1.0000
  C   C3        1.0  0.0978281489864941  0.24990777679860796  0.19701741291497404  1.0000
  C   C4        1.0  0.9021657982498184  0.7499071072362395  0.8029816950317045  1.0000
  C   C5        1.0  0.24847121906119438  0.3044940798926134  0.16114109516661307  1.0000
  C   C6        1.0  0.08868454595786092  0.6955570769994992  0.8389464252265673  1.0000
  C   C7        1.0  0.9113127602550647  0.19555530685405392  0.16105131255898197  1.0000
  C   C8        1.0  0.751517876292354  0.8044878906978425  0.8388587912451446  1.0000
  C   C9        1.0  0.2117956094276323  0.3052744715643171  0.09008858779601783  1.0000
  C   C10       1.0  0.12299422175653521  0.694870412984585  0.9100060334611374  1.0000
  C   C11       1.0  0.8769986122187061  0.19487498907329126  0.08999043177680481  1.0000
  C   C12       1.0  0.7881919975615401  0.8052645997453142  0.9099091968823249  1.0000
  C   C13       1.0  0.026165296512083096  0.2500439960226402  0.05334928946821553  1.0000
  C   C14       1.0  0.9738241730421109  0.7500359834145055  0.946648546479239  1.0000
  C   C15       1.0  0.9887703240799368  0.2500862309002869  0.9780221678233123  1.0000
  C   C16       1.0  0.011226610156420201  0.7500794359203412  0.02197711700922161  1.0000
  C   C17       1.0  0.1377713207463884  0.1959422144910548  0.9411339562772914  1.0000
  C   C18       1.0  0.19700244070946837  0.8043365564023334  0.05889222806842303  1.0000
  C   C19       1.0  0.8029971197290706  0.30433613619591426  0.9411072699910935  1.0000
  C   C20       1.0  0.8622438928451218  0.695931983868192  0.05886836664927844  1.0000
  C   C21       1.0  0.10216258305975859  0.19436619967129326  0.8701284433082823  1.0000
  C   C22       1.0  0.23236159257372438  0.8058924889753456  0.12989657454320996  1.0000
  C   C23       1.0  0.7676439283679882  0.305891727325033  0.8701042850340888  1.0000
  C   C24       1.0  0.8978481615233704  0.694354970149277  0.12987310993869985  1.0000
  C   C25       1.0  0.9167323747798688  0.25005107426954953  0.8337954895850007  1.0000
  C   C26       1.0  0.08328098914503809  0.7500516658254952  0.1662057743866755  1.0000
  C   C27       1.0  0.8788047149356686  0.2499772538302736  0.7577071569853334  1.0000
  C   C28       1.0  0.12120715540882539  0.7499741944531451  0.24229401855151178  1.0000
  C   C29       1.0  0.3126692875171955  0.8133107836266548  0.4433716811027255  1.0000
  C   C30       1.0  0.8686348051857635  0.1865343551084635  0.5566115859867299  1.0000
  C   C31       1.0  0.1313640416743667  0.686530120113609  0.4433887514593807  1.0000
  C   C32       1.0  0.6873212376291631  0.3133080638536754  0.5566293065554294  1.0000
  C   C33       1.0  0.3647227018391063  0.9139721637662814  0.5107337784104617  1.0000
  C   C34       1.0  0.8534970512181274  0.085876881845536  0.4892631291495279  1.0000
  C   C35       1.0  0.14649648540809318  0.5858730801545847  0.510737794054059  1.0000
  C   C36       1.0  0.635261167167364  0.4139759245004909  0.48926843376394674  1.0000
  O   O1        1.0  0.9904844461365485  0.23650751765038075  0.30604651260693333  1.0000
  O   O2        1.0  0.6856097162939392  0.7633977378255922  0.6939985252120169  1.0000
  O   O3        1.0  0.3143811527535831  0.2634019829075526  0.3060004150337222  1.0000
  O   O4        1.0  0.009505094616244499  0.7365032765759664  0.6939548385221886  1.0000
  O   O5        1.0  0.704571526549735  0.29192430753884924  0.7256736727650623  1.0000
  O   O6        1.0  0.9789927965303421  0.7079862809503082  0.2743106470589824  1.0000
  O   O7        1.0  0.021011891697717992  0.20799285415660043  0.7256885479382266  1.0000
  O   O8        1.0  0.2954325853102445  0.791924477487022  0.2743285994462355  1.0000
  O   O9        1.0  0.2698309103877818  0.9432114633287864  0.3900133240218013  1.0000
  O   O10       1.0  0.8794445526835659  0.056672597836453086  0.6099920738026586  1.0000
  O   O11       1.0  0.1205551578593003  0.55666801234959  0.39000867984289317  1.0000
  O   O12       1.0  0.730166229428626  0.4432089033674841  0.6099861789785311  1.0000
  O   O13       1.0  0.4647864253179392  0.8327055990856067  0.5618598958673932  1.0000
  O   O14       1.0  0.9024308008065987  0.1672554682553553  0.4381572201825536  1.0000
  O   O15       1.0  0.09756371422694339  0.667259048996634  0.5618388114133313  1.0000
  O   O16       1.0  0.5352009795715702  0.3326908135279609  0.43814143152039986  1.0000
  O   O17       1.0  0.304563112842672  0.07344455909117187  0.5124263827516915  1.0000
  O   O18       1.0  0.7919722007302853  0.9263178221101426  0.48757356758303444  1.0000
  O   O19       1.0  0.20801906731598763  0.4263015430168267  0.5124270809284328  1.0000
  O   O20       1.0  0.6954170381537425  0.5734346350947562  0.48757776438441897  1.0000
  O   O21       1.0  0.3583165632179472  0.4808901868665598  0.7341650514414372  1.0000
  O   O22       1.0  0.6234937647172812  0.519179136246791  0.2659726385928353  1.0000
  O   O23       1.0  0.37651963181244247  0.019178304531429498  0.7340308991865288  1.0000
  O   O24       1.0  0.641686307014339  0.9808868926977964  0.2658338234788787  1.0000
