data_image0
_chemical_formula_structural       Zn16H44C112S8Cl12O52
_chemical_formula_sum              "Zn16 H44 C112 S8 Cl12 O52"
_cell_length_a       18.5484301454108
_cell_length_b       19.71322708234707
_cell_length_c       32.75989091958379
_cell_angle_alpha    85.98556149578218
_cell_angle_beta     73.63702430647938
_cell_angle_gamma    62.07767326596838

_space_group_name_H-M_alt    "P 1"
_space_group_IT_number       1

loop_
  _space_group_symop_operation_xyz
  'x, y, z'

loop_
  _atom_site_type_symbol
  _atom_site_label
  _atom_site_symmetry_multiplicity
  _atom_site_fract_x
  _atom_site_fract_y
  _atom_site_fract_z
  _atom_site_occupancy
  Zn  Zn1       1.0  0.8730773945235484  0.5545800766123888  0.5186167756564757  1.0000
  Zn  Zn2       1.0  0.03848363005182157  0.48412790040340065  0.4387428667725999  1.0000
  Zn  Zn3       1.0  0.04359894281473942  0.39844220158804683  0.5237511563559637  1.0000
  Zn  Zn4       1.0  0.04496307207119806  0.5620810965062829  0.517959733413022  1.0000
  Zn  Zn5       1.0  0.6258754066486744  0.1909260082931539  0.7325468909673419  1.0000
  Zn  Zn6       1.0  0.4641560600009599  0.34975947065898066  0.7253817369814611  1.0000
  Zn  Zn7       1.0  0.4563607193464278  0.2659313859630004  0.8126539876604184  1.0000
  Zn  Zn8       1.0  0.4544650695475453  0.19226003036145298  0.7288432374481673  1.0000
  Zn  Zn9       1.0  0.462053050873287  0.7643212979695804  0.3128277957636243  1.0000
  Zn  Zn10      1.0  0.45350184756387063  0.6914104377163494  0.23170761603598322  1.0000
  Zn  Zn11      1.0  0.6256792095078724  0.6937246360118862  0.2293563584242974  1.0000
  Zn  Zn12      1.0  0.45689422520811007  0.8514143961004733  0.2261861522461572  1.0000
  Zn  Zn13      1.0  0.03752805997444857  0.8989902897460808  0.02408093584212877  1.0000
  Zn  Zn14      1.0  0.04920997360824231  0.057766117990972476  0.019041684381463093  1.0000
  Zn  Zn15      1.0  0.8761687901524197  0.058377384928263595  0.019651439542577996  1.0000
  Zn  Zn16      1.0  0.03780662401656089  0.9852138168553349  0.9374026378872672  1.0000
  H   H1        1.0  0.8056702376134196  0.9641022591800518  0.6550157771997078  1.0000
  H   H2        1.0  0.3119416462078561  0.974948343084442  0.40204243382805777  1.0000
  H   H3        1.0  0.8114835164479429  0.24256788350007238  0.6538719748716416  1.0000
  H   H4        1.0  0.5452558937203094  0.48508742387010534  0.620110025875924  1.0000
  H   H5        1.0  0.5508658246228605  0.5253526366699576  0.6654487200600412  1.0000
  H   H6        1.0  0.6518220516677573  0.5687121448507639  0.6171219492370026  1.0000
  H   H7        1.0  0.6461105479558212  0.5285506904329009  0.5718352464117374  1.0000
  H   H8        1.0  0.2932210378875342  0.6032435549182649  0.29610150812153785  1.0000
  H   H9        1.0  0.3498103579822286  0.6731591813645179  0.43519254579434363  1.0000
  H   H10       1.0  0.2595059403890831  0.7615338456113817  0.4324276697622622  1.0000
  H   H11       1.0  0.1623687229192894  0.7115431541481742  0.4777767676509087  1.0000
  H   H12       1.0  0.2524794338470925  0.6231790882727779  0.480523523296469  1.0000
  H   H13       1.0  0.809300127412918  0.6025996490358239  0.29529448008295833  1.0000
  H   H14       1.0  0.54814767705939  0.7616394766434098  0.4308151887058713  1.0000
  H   H15       1.0  0.5426362992765802  0.6735460826942514  0.433304343176914  1.0000
  H   H16       1.0  0.6430869473160074  0.6231918988157827  0.47938889239288324  1.0000
  H   H17       1.0  0.648698850007513  0.7112247355644354  0.47684909628291894  1.0000
  H   H18       1.0  0.30795439145401826  0.45660808696558053  0.6465223059585341  1.0000
  H   H19       1.0  0.32859508642714275  0.17970862422245656  0.6294728540978836  1.0000
  H   H20       1.0  0.23794400385124712  0.22020002358712523  0.6748573407192352  1.0000
  H   H21       1.0  0.1424101108365505  0.2737153145758881  0.6262143467701903  1.0000
  H   H22       1.0  0.2331743246657894  0.23319524944561454  0.5809571487374326  1.0000
  H   H23       1.0  0.1884809747792816  0.6590783884758051  0.9628458861141738  1.0000
  H   H24       1.0  0.6904283623711506  0.14759540984270095  0.9553835726067276  1.0000
  H   H25       1.0  0.9548230432368143  0.07785893385403138  0.8163377563444881  1.0000
  H   H26       1.0  0.9498657145938904  0.9894845031209981  0.8189583937841364  1.0000
  H   H27       1.0  0.8480539471852138  0.03974344490560359  0.7736198854281255  1.0000
  H   H28       1.0  0.8529500037834834  0.12811450198402946  0.7710720950461435  1.0000
  H   H29       1.0  0.19275351523165807  0.05192621897694489  0.845056462246468  1.0000
  H   H30       1.0  0.17116680777639462  0.21608809719435837  0.9753541480224256  1.0000
  H   H31       1.0  0.262082618308618  0.12799423810949406  0.977732561428489  1.0000
  H   H32       1.0  0.357233783161405  0.17446734379311118  0.9267264522257362  1.0000
  H   H33       1.0  0.2663294941656885  0.2624543930521526  0.9244176756137888  1.0000
  H   H34       1.0  0.9277898917629273  0.28358274385304577  0.0945691886027333  1.0000
  H   H35       1.0  0.1930605923238176  0.7943078895857525  0.10302926572614979  1.0000
  H   H36       1.0  0.2612337013041284  0.0319167726247045  0.07483155335414438  1.0000
  H   H37       1.0  0.1703161525776125  0.07205847749872159  0.12014727093819032  1.0000
  H   H38       1.0  0.265540283182645  0.0192165419561476  0.16876989307257156  1.0000
  H   H39       1.0  0.3564684727515371  0.9791321395370925  0.12355048075416157  1.0000
  H   H40       1.0  0.6905718272138371  0.006500983599046599  0.09643972443122101  1.0000
  H   H41       1.0  0.950256373115188  0.7228800992183649  0.0852292685331761  1.0000
  H   H42       1.0  0.9550582123603844  0.7632126029780508  0.13080159978415642  1.0000
  H   H43       1.0  0.8532278338665761  0.7204667875837528  0.17854515838721602  1.0000
  H   H44       1.0  0.8486377431011575  0.6797940478551964  0.13307407348703035  1.0000
  C   C1        1.0  0.8627211377688939  0.5674418011419532  0.4304925242191188  1.0000
  C   C2        1.0  0.12471317854462427  0.315092053069101  0.4389135758620171  1.0000
  C   C3        1.0  0.8656633831997315  0.4273576044268592  0.5684714567241258  1.0000
  C   C4        1.0  0.13901787549969677  0.4350623188096492  0.568160529304933  1.0000
  C   C5        1.0  0.8722140363043777  0.6842612907541862  0.560531652276083  1.0000
  C   C6        1.0  0.13737122905356353  0.5691662383876306  0.43067319529512815  1.0000
  C   C7        1.0  0.63947378510413  0.3175944978512034  0.6814185406938406  1.0000
  C   C8        1.0  0.37655833070429884  0.4348981471024088  0.8104557820198579  1.0000
  C   C9        1.0  0.6340112326844147  0.18195579733919934  0.8207909794841654  1.0000
  C   C10       1.0  0.361257502757752  0.18041204596256216  0.8171199283763357  1.0000
  C   C11       1.0  0.6259928949727893  0.0653110516951969  0.6884805635827007  1.0000
  C   C12       1.0  0.36296843722654865  0.31871246996897895  0.6805791425942687  1.0000
  C   C13       1.0  0.36277206746277807  0.6814782503200759  0.32016673308909555  1.0000
  C   C14       1.0  0.623506938954847  0.565980062310942  0.1885979011802448  1.0000
  C   C15       1.0  0.6374630791625577  0.681775479196915  0.3188115711083127  1.0000
  C   C16       1.0  0.6343826408194175  0.8213495685936464  0.18038955998380155  1.0000
  C   C17       1.0  0.37531465648651613  0.9334514946903383  0.31213001013745156  1.0000
  C   C18       1.0  0.36123750257678483  0.8171304001653608  0.1811979967732498  1.0000
  C   C19       1.0  0.13821097418454562  0.9316352599160634  0.06857368385267645  1.0000
  C   C20       1.0  0.8800713085758217  0.18435728685616937  0.061468142569935866  1.0000
  C   C21       1.0  0.8623903085478091  0.9309738202569164  0.06911111039469377  1.0000
  C   C22       1.0  0.862305943342399  0.06915260314713119  0.9311512456775118  1.0000
  C   C23       1.0  0.12216165962537676  0.8152082045370789  0.9391289877295179  1.0000
  C   C24       1.0  0.13830683285593176  0.06873884103011817  0.9311127085083938  1.0000
  C   C25       1.0  0.7340395577161587  0.8037515222167783  0.6010602854781837  1.0000
  C   C26       1.0  0.7618906454747789  0.9464214480840095  0.6490831239114243  1.0000
  C   C27       1.0  0.8218208346767566  0.758749704890988  0.5857483092500361  1.0000
  C   C28       1.0  0.6744517060474704  0.9903581949488328  0.6637269857223345  1.0000
  C   C29       1.0  0.7838782119890979  0.8782420490424555  0.6260865582452693  1.0000
  C   C30       1.0  0.7123303650736119  0.8719944093800578  0.6239993568267364  1.0000
  C   C31       1.0  0.2021713949496515  0.22647463388690872  0.36926252580182245  1.0000
  C   C32       1.0  0.2988902551339764  0.021449937789327595  0.3807968663120959  1.0000
  C   C33       1.0  0.17399109892552642  0.24112403583384887  0.4134574603550618  1.0000
  C   C34       1.0  0.32614229104804326  0.0083697276584616  0.3368287890835404  1.0000
  C   C35       1.0  0.25359602720025975  0.10111597757152417  0.3928054223556714  1.0000
  C   C36       1.0  0.2475956496352935  0.14658358392894394  0.3575216798052736  1.0000
  C   C37       1.0  0.696707632539578  0.3455214893976262  0.652956079189579  1.0000
  C   C38       1.0  0.8114821599090476  0.39652893000285877  0.5974243217268835  1.0000
  C   C39       1.0  0.6669864995572751  0.4174489463258054  0.6362819294536025  1.0000
  C   C40       1.0  0.8413404387008185  0.323310069150203  0.6148260397912111  1.0000
  C   C41       1.0  0.722900162394801  0.4412636610220132  0.6095766187394104  1.0000
  C   C42       1.0  0.7854380183937055  0.2991940833210335  0.641517262228241  1.0000
  C   C43       1.0  0.5884650709061461  0.4914766698099057  0.6347298075436854  1.0000
  C   C44       1.0  0.651590071020074  0.5186754737861036  0.6044945277854123  1.0000
  C   C45       1.0  0.30584565542844894  0.6531036850743275  0.3483865005596413  1.0000
  C   C46       1.0  0.1940197100753878  0.5966344653535102  0.40113218259065053  1.0000
  C   C47       1.0  0.27988087909436393  0.6642750608798094  0.39271707450640747  1.0000
  C   C48       1.0  0.22067591099291664  0.5855499639718289  0.3557648705066825  1.0000
  C   C49       1.0  0.22598905454186294  0.6368231434158885  0.41771298824714614  1.0000
  C   C50       1.0  0.2747396940458274  0.6129986742707841  0.33063912371372334  1.0000
  C   C51       1.0  0.28589798902453384  0.6986218916072318  0.43079735045322554  1.0000
  C   C52       1.0  0.22498214378193634  0.6673910872590765  0.4592024065191609  1.0000
  C   C53       1.0  0.6943984561109032  0.6529952423150219  0.34716915443682683  1.0000
  C   C54       1.0  0.8086959144668526  0.5954846155620785  0.4006377007392031  1.0000
  C   C55       1.0  0.6644605560754258  0.6640609593189452  0.39150353846671476  1.0000
  C   C56       1.0  0.8389119872064584  0.5846255507391049  0.35525979871567154  1.0000
  C   C57       1.0  0.7201225408723175  0.6360769226224576  0.4168672049918101  1.0000
  C   C58       1.0  0.7831111838225553  0.6125295433889235  0.32981061007953366  1.0000
  C   C59       1.0  0.5857762716506373  0.698718565014154  0.42927012468386744  1.0000
  C   C60       1.0  0.6486805030972673  0.6671489112331558  0.4581133558911858  1.0000
  C   C61       1.0  0.3055315076544645  0.34821495781964973  0.6525132183782532  1.0000
  C   C62       1.0  0.1956604927948504  0.4088091230796707  0.5968168173746946  1.0000
  C   C63       1.0  0.27164922888421467  0.30627162681686565  0.6396554505615979  1.0000
  C   C64       1.0  0.2303164921689813  0.4513999377636679  0.6102506594879954  1.0000
  C   C65       1.0  0.21888993738068047  0.3360554824647153  0.6128318274676587  1.0000
  C   C66       1.0  0.28315303678304826  0.4217184376075807  0.6371445365466855  1.0000
  C   C67       1.0  0.2675725834717966  0.23108194805776344  0.6427469477369314  1.0000
  C   C68       1.0  0.2078185490900779  0.2645625534534517  0.6123592089477086  1.0000
  C   C69       1.0  0.29833183726660195  0.5838671502723755  0.8203714009802566  1.0000
  C   C70       1.0  0.2010590807795012  0.6681433070924143  0.9289992964955118  1.0000
  C   C71       1.0  0.32730434033693  0.510115932462341  0.8348295653081976  1.0000
  C   C72       1.0  0.17245973031948125  0.7407982259356771  0.9138340487449524  1.0000
  C   C73       1.0  0.2470359805458956  0.6106160760179546  0.8949257412150117  1.0000
  C   C74       1.0  0.2524044181633869  0.6411568206450511  0.8546332504880922  1.0000
  C   C75       1.0  0.8047486376809374  0.09753697405351149  0.9030808617208805  1.0000
  C   C76       1.0  0.6887183073984174  0.15450208655536807  0.8504069290428689  1.0000
  C   C77       1.0  0.8337788623979421  0.08659210589868138  0.8587448880671503  1.0000
  C   C78       1.0  0.6595528996364237  0.16517475593985861  0.8957670781347886  1.0000
  C   C79       1.0  0.7772930499640862  0.11437455104037036  0.8337730833330781  1.0000
  C   C80       1.0  0.7160372506021417  0.1376497040355318  0.9208583180605956  1.0000
  C   C81       1.0  0.9118828534095658  0.05239947613979009  0.8206724580392402  1.0000
  C   C82       1.0  0.8481505018909417  0.08383753110737048  0.792292003873136  1.0000
  C   C83       1.0  0.19505589077997607  0.09688695230939709  0.9023946814425869  1.0000
  C   C84       1.0  0.3043536731360206  0.15084484122692737  0.8444423501403975  1.0000
  C   C85       1.0  0.22839471789511379  0.1375426961675856  0.9170745972534177  1.0000
  C   C86       1.0  0.26992554304204225  0.10935555325523438  0.8296781693226833  1.0000
  C   C87       1.0  0.2808929568341724  0.1632041124202033  0.8888391989816995  1.0000
  C   C88       1.0  0.2174042598028834  0.0834752431651182  0.8579138939445413  1.0000
  C   C89       1.0  0.2322744288787675  0.1706295636129767  0.9562823699749785  1.0000
  C   C90       1.0  0.2918465066659195  0.1996933039974707  0.9243827549055865  1.0000
  C   C91       1.0  0.6435983073197704  0.4468160101290337  0.14873437630422606  1.0000
  C   C92       1.0  0.8602563897761185  0.30225602176905403  0.10072728822996165  1.0000
  C   C93       1.0  0.6724321096017719  0.49144039063637  0.16358111590096056  1.0000
  C   C94       1.0  0.8298623137398098  0.2590899483209909  0.08637075239105481  1.0000
  C   C95       1.0  0.7923667570929142  0.37101657819174244  0.12352867497111207  1.0000
  C   C96       1.0  0.7120217768383411  0.37820812529886877  0.1259066214874593  1.0000
  C   C97       1.0  0.19505480171311987  0.90284847522949  0.09691134319648137  1.0000
  C   C98       1.0  0.304557386178466  0.8432314884908719  0.15267362244256333  1.0000
  C   C99       1.0  0.2282011952252106  0.9453907588779767  0.109859558701757  1.0000
  C   C100      1.0  0.27045746141472915  0.8000741826066285  0.13925412033760406  1.0000
  C   C101      1.0  0.2808010948312898  0.9160378247723384  0.13675800627919438  1.0000
  C   C102      1.0  0.21769409635900414  0.8294227411168862  0.1123281912700307  1.0000
  C   C103      1.0  0.2315754302991593  0.020909014671147492  0.1068880219497572  1.0000
  C   C104      1.0  0.2912129683449009  0.9878523306388445  0.13735112562579133  1.0000
  C   C105      1.0  0.8049473902326554  0.902991886782999  0.09732233506910862  1.0000
  C   C106      1.0  0.6890998034417564  0.852185486702936  0.152006949050694  1.0000
  C   C107      1.0  0.8340754191700982  0.8309763091151438  0.11391900388511539  1.0000
  C   C108      1.0  0.6598472868273861  0.9256619107397549  0.134836975821507  1.0000
  C   C109      1.0  0.7776677186193198  0.8073009527410515  0.14024464015191995  1.0000
  C   C110      1.0  0.7162425247654056  0.9496635943667538  0.10859260904801  1.0000
  C   C111      1.0  0.9122136383267403  0.7569071371583859  0.11586244787301322  1.0000
  C   C112      1.0  0.8485380019065045  0.7299698414628963  0.14574681782303855  1.0000
  S   S1        1.0  0.877383455369518  0.8001661466598123  0.5995977429199044  1.0000
  S   S2        1.0  0.6183485726903512  0.9495811259285106  0.6499299220682033  1.0000
  S   S3        1.0  0.20336175059409098  0.15710893883677807  0.44031753887048086  1.0000
  S   S4        1.0  0.2972705830700306  0.09200565099180838  0.3097660987972901  1.0000
  S   S5        1.0  0.29834488173786866  0.5114044798051864  0.890326844882793  1.0000
  S   S6        1.0  0.20109197152101643  0.7400475537915624  0.8584245553774038  1.0000
  S   S7        1.0  0.7831022257316106  0.4491432893724649  0.1493886434506209  1.0000
  S   S8        1.0  0.719410529731931  0.30114494141214004  0.10031393457551016  1.0000
  Cl  Cl1       1.0  0.658225038989471  0.7831008918195154  0.5942117518157346  1.0000
  Cl  Cl2       1.0  0.18690984498936558  0.2929173558274485  0.3319825896622318  1.0000
  Cl  Cl3       1.0  0.31320643926036246  0.6069881081836569  0.7685078898560675  1.0000
  Cl  Cl4       1.0  0.5403420644335386  0.46817045267268026  0.15560428507325236  1.0000
  Cl  Cl5       1.0  0.9483137289047787  0.2577809695615301  0.6048079810174584  1.0000
  Cl  Cl6       1.0  0.18814129659445197  0.5389996113007243  0.3277673806269021  1.0000
  Cl  Cl7       1.0  0.9457923411622957  0.536769421476528  0.3275651007779885  1.0000
  Cl  Cl8       1.0  0.21099890002583507  0.5427569016423563  0.5945707336421862  1.0000
  Cl  Cl9       1.0  0.5527599176382836  0.21236351652701296  0.9238702053480381  1.0000
  Cl  Cl10      1.0  0.2886335598074865  0.08800470038067229  0.7760982548988196  1.0000
  Cl  Cl11      1.0  0.28994344622580576  0.7088648215220489  0.1550497819199492  1.0000
  Cl  Cl12      1.0  0.5530946693224688  0.9915144321464028  0.14459127278590966  1.0000
  O   O1        1.0  0.9982283071366996  0.5006363878831122  0.5011301627722559  1.0000
  O   O2        1.0  0.8229917400179187  0.5820454719239833  0.4703292688308808  1.0000
  O   O3        1.0  0.10123597716577849  0.3755350011723664  0.41855479519331595  1.0000
  O   O4        1.0  0.9458818238688099  0.38599556907306704  0.5584106490931119  1.0000
  O   O5        1.0  0.9428786380874141  0.5315936229074935  0.41453211162053094  1.0000
  O   O6        1.0  0.8251681006996421  0.4943996343284739  0.5560986901660241  1.0000
  O   O7        1.0  0.10961958597095395  0.31199626479804  0.4795065605302327  1.0000
  O   O8        1.0  0.11804478382929062  0.38585802419891724  0.5590733010862934  1.0000
  O   O9        1.0  0.9530361089327641  0.658134670936654  0.5505925171448212  1.0000
  O   O10       1.0  0.11609973604753789  0.5023493151849364  0.5551762369594755  1.0000
  O   O11       1.0  0.8322121116123566  0.65282290082785  0.5509522245035682  1.0000
  O   O12       1.0  0.11688985677536584  0.5258679934557832  0.41497293566450105  1.0000
  O   O13       1.0  0.11431925536997058  0.5914297763705463  0.47019066734375775  1.0000
  O   O14       1.0  0.5010184427149368  0.2494622633995859  0.7500470388554135  1.0000
  O   O15       1.0  0.6742516270518025  0.25094925938581264  0.6950602420488465  1.0000
  O   O16       1.0  0.3997174827102299  0.4347564179448468  0.7699488019614975  1.0000
  O   O17       1.0  0.5539027049802385  0.22007768886786036  0.8364327211691672  1.0000
  O   O18       1.0  0.5598465518833392  0.36358631919326007  0.6896239813639369  1.0000
  O   O19       1.0  0.6741156585376588  0.1641762159271423  0.7810813715118952  1.0000
  O   O20       1.0  0.39166068830968476  0.375955628032834  0.8325505437208773  1.0000
  O   O21       1.0  0.38062562349460916  0.2204648984616567  0.8369158870116066  1.0000
  O   O22       1.0  0.5450497355011238  0.09565637317588477  0.6966913777489125  1.0000
  O   O23       1.0  0.38631273084202167  0.16386498126656326  0.7771245829792122  1.0000
  O   O24       1.0  0.668218943319765  0.09316714821826369  0.6993825400780053  1.0000
  O   O25       1.0  0.3885911317271322  0.36345605830781114  0.6904685032319051  1.0000
  O   O26       1.0  0.3818429097625326  0.2506366051639972  0.6922341189302157  1.0000
  O   O27       1.0  0.500770732657344  0.7504880160608633  0.2503038018112278  1.0000
  O   O28       1.0  0.3872366376212427  0.7185022945054057  0.33864932241041856  1.0000
  O   O29       1.0  0.5428095619823451  0.5944367051981913  0.1998882406001172  1.0000
  O   O30       1.0  0.6724979431494661  0.6679842818109234  0.2786894072651478  1.0000
  O   O31       1.0  0.3821281822585549  0.6665714259049551  0.2800981661805437  1.0000
  O   O32       1.0  0.5578315012026208  0.7180699074409844  0.3376300975327097  1.0000
  O   O33       1.0  0.6669339348473855  0.5955305634089568  0.19685050154413367  1.0000
  O   O34       1.0  0.6742130860866383  0.7533343763060357  0.19182584907020567  1.0000
  O   O35       1.0  0.3922816318330007  0.9353754557434966  0.2715312249279477  1.0000
  O   O36       1.0  0.5542279492938034  0.8636101534569888  0.19097396943585204  1.0000
  O   O37       1.0  0.3964379652634662  0.8737301735776836  0.3333556233850885  1.0000
  O   O38       1.0  0.38588912903581024  0.749098310855956  0.1931479529968883  1.0000
  O   O39       1.0  0.3808736115867078  0.8666791799969217  0.1912535576503913  1.0000
  O   O40       1.0  0.000837231658124372  0.9999707303543275  0.9999898795369332  1.0000
  O   O41       1.0  0.11228796682396344  0.8867975744952046  0.059127593693745  1.0000
  O   O42       1.0  0.9609024630304075  0.1554268331674535  0.051641283201078615  1.0000
  O   O43       1.0  0.827598511315152  0.9988173943570188  0.056880093552450675  1.0000
  O   O44       1.0  0.12035242434300386  0.9991457814524478  0.05625591745614858  1.0000
  O   O45       1.0  0.9419928397256924  0.8841681055581674  0.05957150407080287  1.0000
  O   O46       1.0  0.8374881997454794  0.1552435205496607  0.05192385370247618  1.0000
  O   O47       1.0  0.8275344388138706  0.08471273981890447  0.9712305746024227  1.0000
  O   O48       1.0  0.10248216932226484  0.875239715389469  0.9179192941333199  1.0000
  O   O49       1.0  0.9419099677555991  0.0314774778092399  0.9124444889794034  1.0000
  O   O50       1.0  0.10269929142530292  0.8132240391749901  0.9796512963520455  1.0000
  O   O51       1.0  0.120090482215879  0.0846107338706545  0.9710317184240154  1.0000
  O   O52       1.0  0.11275925245590197  0.03159870347842999  0.9135611188637326  1.0000
