data_image0
_chemical_formula_structural       UCuH6C10O12
_chemical_formula_sum              "U1 Cu1 H6 C10 O12"
_cell_length_a       7.153862624810961
_cell_length_b       7.0651478668006
_cell_length_c       9.322987889358323
_cell_angle_alpha    95.89692301555006
_cell_angle_beta     91.6347757943904
_cell_angle_gamma    114.28218671062915

_space_group_name_H-M_alt    "P 1"
_space_group_IT_number       1

loop_
  _space_group_symop_operation_xyz
  'x, y, z'

loop_
  _atom_site_type_symbol
  _atom_site_label
  _atom_site_symmetry_multiplicity
  _atom_site_fract_x
  _atom_site_fract_y
  _atom_site_fract_z
  _atom_site_occupancy
  U   U1        1.0  0.4999986571361105  5.521423808799866e-06  0.49999685191297516  1.0000
  Cu  Cu1       1.0  0.9999936406471408  0.4999924901100457  0.5000021334365882  1.0000
  H   H1        1.0  0.17850662930432287  0.4160726291740104  0.7004761209892862  1.0000
  H   H2        1.0  0.8214941384902373  0.5839376970144201  0.2995309347176942  1.0000
  H   H3        1.0  0.0259482075463069  0.1988088375614367  0.6135461743308781  1.0000
  H   H4        1.0  0.9740520413998865  0.8011936119319356  0.38645813011115837  1.0000
  H   H5        1.0  0.31915277176603507  0.9433316037220721  0.9754467285001879  1.0000
  H   H6        1.0  0.680848750586499  0.056673938134835594  0.0245524711601206  1.0000
  C   C1        1.0  0.2687950049818184  0.049968111492049196  0.25186659178428517  1.0000
  C   C2        1.0  0.7312149235322065  0.9500341578996795  0.7481303759998426  1.0000
  C   C3        1.0  0.1328219428342905  0.031755485737619396  0.12232609904771859  1.0000
  C   C4        1.0  0.8671678771986393  0.9682422720603654  0.8776626336620125  1.0000
  C   C5        1.0  0.1801146605468276  0.9699420429043926  0.985855792811961  1.0000
  C   C6        1.0  0.8198856654929615  0.030057258311487093  0.014148274867814297  1.0000
  C   C7        1.0  0.9516829335821202  0.06272607222720689  0.1362771522327151  1.0000
  C   C8        1.0  0.048323771438589305  0.937265208557008  0.8637167769871751  1.0000
  C   C9        1.0  0.8980324058699269  0.14163284987365898  0.2782766521306357  1.0000
  C   C10       1.0  0.10196057694072634  0.8583523463659047  0.7217208443295886  1.0000
  O   O1        1.0  0.36337948018952193  0.7211011750665008  0.44556614547469303  1.0000
  O   O2        1.0  0.6366261741712408  0.2789309880474207  0.5544244214796592  1.0000
  O   O3        1.0  0.7618223491543716  0.010194074514338099  0.34422189625313837  1.0000
  O   O4        1.0  0.2381694336984665  0.9897816573438191  0.6557694978392375  1.0000
  O   O5        1.0  0.18996674308380787  0.016801369949327204  0.3743845711373054  1.0000
  O   O6        1.0  0.8100339681937001  0.9832089034150826  0.6256149710321421  1.0000
  O   O7        1.0  0.4567830451478089  0.08708167604293487  0.24312102260392973  1.0000
  O   O8        1.0  0.5432312263089543  0.9129142573388265  0.7568776941862081  1.0000
  O   O9        1.0  0.12795651452764636  0.34436863469917967  0.603025566350027  1.0000
  O   O10       1.0  0.872045149509411  0.6556338192505394  0.3969819834480432  1.0000
  O   O11       1.0  0.991319831124841  0.3384010077012718  0.31403916281520583  1.0000
  O   O12       1.0  0.008672413275568933  0.6615889879623821  0.6859683364166853  1.0000
