data_image0
_chemical_formula_structural       Cu2H32C36S2N8O14
_chemical_formula_sum              "Cu2 H32 C36 S2 N8 O14"
_cell_length_a       10.45889992462406
_cell_length_b       10.90764461351451
_cell_length_c       11.722187116314908
_cell_angle_alpha    64.91132338727031
_cell_angle_beta     77.79103899496342
_cell_angle_gamma    68.25132272961574

_space_group_name_H-M_alt    "P 1"
_space_group_IT_number       1

loop_
  _space_group_symop_operation_xyz
  'x, y, z'

loop_
  _atom_site_type_symbol
  _atom_site_label
  _atom_site_symmetry_multiplicity
  _atom_site_fract_x
  _atom_site_fract_y
  _atom_site_fract_z
  _atom_site_occupancy
  Cu  Cu1       1.0  0.3740425740108365  0.3275917522420855  0.12796224487922098  1.0000
  Cu  Cu2       1.0  0.6259548111877676  0.6724108500453454  0.8720389361107191  1.0000
  H   H1        1.0  0.3603966796931531  0.6706967761504216  0.30719576078508476  1.0000
  H   H2        1.0  0.6396075341685048  0.32930249916765314  0.6928055924195814  1.0000
  H   H3        1.0  0.11309044256197608  0.587162654978819  0.21264400647085313  1.0000
  H   H4        1.0  0.8869098954213824  0.4128398844971315  0.7873566962805466  1.0000
  H   H5        1.0  0.5737328145371023  0.26075118818116755  0.25393680410069647  1.0000
  H   H6        1.0  0.42626967121678666  0.7392511902425908  0.7460576235004908  1.0000
  H   H7        1.0  0.467003802792206  0.4100776374208763  0.25287211887783906  1.0000
  H   H8        1.0  0.5330014209378008  0.5899215999346269  0.747128224010481  1.0000
  H   H9        1.0  0.4272231488977453  0.0988878392228543  0.04295926707475667  1.0000
  H   H10       1.0  0.572769981602157  0.9011126994686408  0.9570417616336325  1.0000
  H   H11       1.0  0.4046064347321945  0.855387016520737  0.13326351792279206  1.0000
  H   H12       1.0  0.5953899562503083  0.1446123922438076  0.8667374087776593  1.0000
  H   H13       1.0  0.3213449891853201  0.8858815013696386  0.4999079332745281  1.0000
  H   H14       1.0  0.6786523191929844  0.11412115199402  0.5000958004259245  1.0000
  H   H15       1.0  0.3460157374374617  0.1296165334773889  0.39263115836472195  1.0000
  H   H16       1.0  0.6539898452039238  0.870381602711838  0.6073678589471923  1.0000
  H   H17       1.0  0.37906921075710903  0.3789661121607751  0.6889209611230455  1.0000
  H   H18       1.0  0.6209282313527708  0.6210300101303334  0.31107683975169914  1.0000
  H   H19       1.0  0.3112305627042958  0.16791450653392562  0.7231689691428612  1.0000
  H   H20       1.0  0.6887692324469015  0.8320804556911696  0.27682633642628207  1.0000
  H   H21       1.0  0.17289442019296078  0.1836229440524662  0.564201181251043  1.0000
  H   H22       1.0  0.8271072093331779  0.8163793701814086  0.43578915124547984  1.0000
  H   H23       1.0  0.17343136805075693  0.6147051226108076  0.34356133221170626  1.0000
  H   H24       1.0  0.8265698413959582  0.3852951123801205  0.6564316139658785  1.0000
  H   H25       1.0  0.04128298120380684  0.7118102850958651  0.008450225993215136  1.0000
  H   H26       1.0  0.9587147216471549  0.2881944645361543  0.9915517449296799  1.0000
  H   H27       1.0  0.8680356197917832  0.7742257575473063  0.8596371664851643  1.0000
  H   H28       1.0  0.13195675162634052  0.22578023198762048  0.1403686288853763  1.0000
  H   H29       1.0  0.6777860124798706  0.48844981848722574  0.12871583328548303  1.0000
  H   H30       1.0  0.32220867641829193  0.5115518135470438  0.8712879039806152  1.0000
  H   H31       1.0  0.8507637449205274  0.4016169847911327  0.2805517614027409  1.0000
  H   H32       1.0  0.1492365831083191  0.5983823402247664  0.7194485276463141  1.0000
  C   C1        1.0  0.404149750063766  0.0468965058295439  0.1435736181735123  1.0000
  C   C2        1.0  0.595843851729093  0.9531060780540701  0.856423095046807  1.0000
  C   C3        1.0  0.3920987155372019  0.9118251794042604  0.19460719629125836  1.0000
  C   C4        1.0  0.6078946970537801  0.08817430919717852  0.8053950595512304  1.0000
  C   C5        1.0  0.35942905156436905  0.8503454349757148  0.325382534868389  1.0000
  C   C6        1.0  0.6405672882046077  0.14965400783965066  0.6746200936390635  1.0000
  C   C7        1.0  0.34401489349817643  0.9296689290742891  0.39873347897613337  1.0000
  C   C8        1.0  0.6559863931854863  0.0703303920298595  0.6012675015635764  1.0000
  C   C9        1.0  0.35772372566761845  0.06471737381755097  0.3392809425401353  1.0000
  C   C10       1.0  0.6422788785822462  0.9352808422085703  0.6607194039138232  1.0000
  C   C11       1.0  0.32049180334918503  0.6334139557902604  0.4969162024212962  1.0000
  C   C12       1.0  0.6795114063418665  0.3665789115448774  0.5030844827915288  1.0000
  C   C13       1.0  0.2832718336518667  0.5071195044987036  0.512801494794921  1.0000
  C   C14       1.0  0.7167282279381553  0.49287763912179355  0.4871963025141781  1.0000
  C   C15       1.0  0.32073325935112973  0.38209717406214594  0.6205174549324323  1.0000
  C   C16       1.0  0.6792631984971608  0.6178989691661201  0.3794805053551611  1.0000
  C   C17       1.0  0.2824269381478572  0.2650161480923714  0.6390070622703519  1.0000
  C   C18       1.0  0.7175724824397067  0.7349831467844583  0.3609908334810468  1.0000
  C   C19       1.0  0.20627633280805918  0.2727097590290128  0.5506469722660086  1.0000
  C   C20       1.0  0.7937254052595435  0.7272851783471664  0.44934886538094065  1.0000
  C   C21       1.0  0.16776454958562687  0.397735242336644  0.4423348264046395  1.0000
  C   C22       1.0  0.8322369519066796  0.6022671570242795  0.5576597606093969  1.0000
  C   C23       1.0  0.20573849370909159  0.5150490376109575  0.4246216490698698  1.0000
  C   C24       1.0  0.7942635620108688  0.4849480471098102  0.5753749785100339  1.0000
  C   C25       1.0  0.08372875223395229  0.3982817462059955  0.35340812413839007  1.0000
  C   C26       1.0  0.9162710685240115  0.6017131989936856  0.6465863305272491  1.0000
  C   C27       1.0  0.96141394756571  0.5507257819072607  0.15825495814350887  1.0000
  C   C28       1.0  0.038584755199089216  0.44927571530214283  0.8417455887606946  1.0000
  C   C29       1.0  0.9630115237312894  0.6587276851894333  0.03742887680529343  1.0000
  C   C30       1.0  0.03698812203607823  0.34127703959367756  0.962573626195407  1.0000
  C   C31       1.0  0.865409026478318  0.6950312008721155  0.955253936741883  1.0000
  C   C32       1.0  0.1345863233313267  0.3049747088259167  0.04475052948661329  1.0000
  C   C33       1.0  0.7618807847955869  0.5326131017274064  0.10403653758145034  1.0000
  C   C34       1.0  0.23811483715063286  0.46738854342051883  0.8959687420788  1.0000
  C   C35       1.0  0.8585636238158897  0.48571198632509993  0.1897910850287516  1.0000
  C   C36       1.0  0.14143634530157814  0.5142884398570828  0.8102105295967018  1.0000
  S   S1        1.0  0.3482770388797505  0.6472685489394224  0.08987437324941533  1.0000
  S   S2        1.0  0.6517256108859044  0.3527360789813799  0.910125949705737  1.0000
  N   N1        1.0  0.3860702587275711  0.12383645967818781  0.21395021028066447  1.0000
  N   N2        1.0  0.6139257989503193  0.8761640332272265  0.7860511910926816  1.0000
  N   N3        1.0  0.7647212745035719  0.634242632821575  0.9875409135069331  1.0000
  N   N4        1.0  0.23527370644018217  0.36576116358268973  0.012464464595616658  1.0000
  N   N5        1.0  0.34234569940990406  0.7177968560774347  0.3721949020608476  1.0000
  N   N6        1.0  0.6576555872737585  0.28220246502671387  0.6278060784788622  1.0000
  N   N7        1.0  0.05634795512015962  0.5175622501174003  0.24190219762817122  1.0000
  N   N8        1.0  0.9436543158250928  0.4824370500495904  0.7580986234986893  1.0000
  O   O1        1.0  0.3488720713441608  0.5340092325308492  0.04756879337357118  1.0000
  O   O2        1.0  0.6511216076856458  0.4659924374659923  0.9524359542088799  1.0000
  O   O3        1.0  0.43318570420493085  0.5751488400607484  0.204215633398924  1.0000
  O   O4        1.0  0.5668208726525562  0.42485248965136446  0.7957836382024936  1.0000
  O   O5        1.0  0.20531801971399222  0.7204870840062086  0.12561769962148622  1.0000
  O   O6        1.0  0.7946848609292161  0.2795165278753657  0.8743855522747805  1.0000
  O   O7        1.0  0.4116553112541439  0.7470635121044538  0.9855086404846886  1.0000
  O   O8        1.0  0.5883453344270607  0.252937960256034  0.014492438497313747  1.0000
  O   O9        1.0  0.47572950428843097  0.30798369296874745  0.26717811380271417  1.0000
  O   O10       1.0  0.5242745043024398  0.6920165813631627  0.7328194595573334  1.0000
  O   O11       1.0  0.3296712364585942  0.658983529123482  0.5875746018753744  1.0000
  O   O12       1.0  0.670337038643126  0.34100505410280146  0.4124303542224722  1.0000
  O   O13       1.0  0.04235150541702379  0.2962030998850906  0.37962856865118505  1.0000
  O   O14       1.0  0.9576641503011133  0.7037946737038397  0.6203611964007293  1.0000
