data_image0
_chemical_formula_structural       Zn4H43C64N16F
_chemical_formula_sum              "Zn4 H43 C64 N16 F1"
_cell_length_a       13.272375931127721
_cell_length_b       13.348930103836002
_cell_length_c       14.8207553640611
_cell_angle_alpha    108.32638535234209
_cell_angle_beta     111.08461360974464
_cell_angle_gamma    102.46255871070443

_space_group_name_H-M_alt    "P 1"
_space_group_IT_number       1

loop_
  _space_group_symop_operation_xyz
  'x, y, z'

loop_
  _atom_site_type_symbol
  _atom_site_label
  _atom_site_symmetry_multiplicity
  _atom_site_fract_x
  _atom_site_fract_y
  _atom_site_fract_z
  _atom_site_occupancy
  Zn  Zn1       1.0  0.6382118425542204  0.12110564759984747  0.9941231257713523  1.0000
  Zn  Zn2       1.0  0.3559634408766855  0.8405137919973812  0.013319092293493153  1.0000
  Zn  Zn3       1.0  0.6359423168519953  0.9717070215401051  0.1342568994706356  1.0000
  Zn  Zn4       1.0  0.3560015083941365  0.004299964355482198  0.885839090236402  1.0000
  H   H1        1.0  0.7158534740516418  0.9785298214570092  0.8361620451016734  1.0000
  H   H2        1.0  0.2835250565608976  0.9978889580779298  0.16811007710741435  1.0000
  H   H3        1.0  0.8416596847938463  0.1569825646935783  0.35387653161382804  1.0000
  H   H4        1.0  0.09574090041489569  0.0152216526757485  0.8372087374186775  1.0000
  H   H5        1.0  0.06865796806249604  0.7602459837993721  0.9583021504121731  1.0000
  H   H6        1.0  0.9099778336722082  0.33640227431466485  0.17197156572424183  1.0000
  H   H7        1.0  0.3013882391540791  0.21058667200874487  0.013104464515343858  1.0000
  H   H8        1.0  0.6591370072816573  0.15472214172846321  0.3558069622468451  1.0000
  H   H9        1.0  0.9642719777601202  0.5176933046353938  0.9679785570316568  1.0000
  H   H10       1.0  0.7768134424697949  0.5444374689938841  0.9417763265015252  1.0000
  H   H11       1.0  0.59535583469836  0.4148437508016514  0.7747185223679407  1.0000
  H   H12       1.0  0.29581438711778674  0.6082514799815826  0.827029979798759  1.0000
  H   H13       1.0  0.7855923881549104  0.23325033561206254  0.6558897976854681  1.0000
  H   H14       1.0  0.9681323078526133  0.36256165054152945  0.8231507420626726  1.0000
  H   H15       1.0  0.6392801869774517  0.2596784028212298  0.5024907236614098  1.0000
  H   H16       1.0  0.1876322029017174  0.14456861659360234  0.28044221302270234  1.0000
  H   H17       1.0  0.9962764620958637  0.0038145013430579042  0.1277827198012816  1.0000
  H   H18       1.0  0.9467812424292887  0.7983603483588694  0.08140221632498185  1.0000
  H   H19       1.0  0.08879106138387978  0.7318942696921978  0.1864761722861488  1.0000
  H   H20       1.0  0.27866591656831474  0.873005240800552  0.33943529789456767  1.0000
  H   H21       1.0  0.07440730619081391  0.9904240806070133  0.5570546677840866  1.0000
  H   H22       1.0  0.7157332382100279  0.7793917989882431  0.21560747185176157  1.0000
  H   H23       1.0  0.021649997077233345  0.8923949829499946  0.6608807867253859  1.0000
  H   H24       1.0  0.04482961898900591  0.7083343441187895  0.6404609891512294  1.0000
  H   H25       1.0  0.15181431842307808  0.70896205498525  0.39870323675037167  1.0000
  H   H26       1.0  0.1318104478714519  0.8952561030828294  0.4214229904436237  1.0000
  H   H27       1.0  0.9775788059862408  0.5055585342217556  0.34902455028988305  1.0000
  H   H28       1.0  0.22176291617771685  0.4501212887621122  0.6570409729597698  1.0000
  H   H29       1.0  0.9739665900395877  0.3118859256165578  0.6066595940264036  1.0000
  H   H30       1.0  0.8614997181415518  0.116085048186477  0.5710997155191321  1.0000
  H   H31       1.0  0.8611540712700148  0.9484862577122397  0.435925751991249  1.0000
  H   H32       1.0  0.9881570757902338  0.97728773786406  0.34879586063470197  1.0000
  H   H33       1.0  0.2903839095921086  0.0763314858967803  0.6760334577436138  1.0000
  H   H34       1.0  0.10015149985654402  0.17163287313940864  0.3856295974228771  1.0000
  H   H35       1.0  0.3813040648973711  0.44121243481218636  0.08990673595317844  1.0000
  H   H36       1.0  0.6452054907966343  0.5521990384592288  0.1752986729059033  1.0000
  H   H37       1.0  0.8495465515858812  0.7492413131864879  0.9048675880489441  1.0000
  H   H38       1.0  0.9059177230086634  0.9647994591591244  0.8689676223724376  1.0000
  H   H39       1.0  0.3420119341151988  0.6044223131365882  0.05487133192215775  1.0000
  H   H40       1.0  0.6660739401220113  0.20840814492655108  0.814668889285599  1.0000
  H   H41       1.0  0.3110219444674272  0.8271957680912366  0.6657799281745652  1.0000
  H   H42       1.0  0.7122183548118031  0.7791304851284548  0.01705745821188037  1.0000
  H   H43       1.0  0.6767300905314928  0.3657767290057379  0.15459769080300848  1.0000
  C   C1        1.0  0.7049931446243534  0.9386705124575556  0.8873947233293648  1.0000
  C   C2        1.0  0.2715270885065806  0.6733385042285107  0.7001686618604239  1.0000
  C   C3        1.0  0.5358031188475182  0.6476941944760243  0.14187062785052987  1.0000
  C   C4        1.0  0.4749229261411045  0.16005862501357634  0.7075253847075017  1.0000
  C   C5        1.0  0.5855806520537074  0.31062319907966446  0.11387445311105901  1.0000
  C   C6        1.0  0.3771993688041135  0.0277001953838294  0.20094862781022016  1.0000
  C   C7        1.0  0.8455469132451726  0.1859658995969653  0.29428652764603663  1.0000
  C   C8        1.0  0.10765821790510449  0.952859996730716  0.8685778125123775  1.0000
  C   C9        1.0  0.09269404009959466  0.8218970737727745  0.9290237251091327  1.0000
  C   C10       1.0  0.8786994101430212  0.277670341414577  0.20136599544535033  1.0000
  C   C11       1.0  0.394329764513806  0.23079601447012982  0.04185832613530492  1.0000
  C   C12       1.0  0.31038877687857547  0.6771413600745504  0.8033460876822076  1.0000
  C   C13       1.0  0.5689273015372508  0.1082515312512768  0.29549978824088197  1.0000
  C   C14       1.0  0.48557392829002316  0.33806326419492894  0.09847289977900432  1.0000
  C   C15       1.0  0.4662443411846696  0.10093724483722612  0.3060915102342108  1.0000
  C   C16       1.0  0.9200536052922033  0.28731498444336984  0.30678866137085226  1.0000
  C   C17       1.0  0.029440331050857162  0.883200638666871  0.8876609109535564  1.0000
  C   C18       1.0  0.7794915780792593  0.4765553173779864  0.8791902363066059  1.0000
  C   C19       1.0  0.6772857206107618  0.4038964471483055  0.7851837097816414  1.0000
  C   C20       1.0  0.6779025738430067  0.3148986907120559  0.7036533019314034  1.0000
  C   C21       1.0  0.7842835328578489  0.3024600428558699  0.7183040162190578  1.0000
  C   C22       1.0  0.8867160828426536  0.37490133963302696  0.8126697253033226  1.0000
  C   C23       1.0  0.621592735848701  0.7524258539224106  0.17375683796510105  1.0000
  C   C24       1.0  0.8845618004595365  0.46180441583908294  0.8937537891555819  1.0000
  C   C25       1.0  0.5612937676756431  0.2162977881233061  0.5049453218522189  1.0000
  C   C26       1.0  0.46042820468530016  0.142015093975381  0.40756345549095835  1.0000
  C   C27       1.0  0.35790908091131257  0.09930804965728161  0.414924664524804  1.0000
  C   C28       1.0  0.3663196612534421  0.12333901471303933  0.5165265472000512  1.0000
  C   C29       1.0  0.46929702253151356  0.1786223172092818  0.6135258691144825  1.0000
  C   C30       1.0  0.5677017568272832  0.23539334156648553  0.6055732087021184  1.0000
  C   C31       1.0  0.16476587074608773  0.054116981200387215  0.26060938689468566  1.0000
  C   C32       1.0  0.058025590219458044  0.9753606369455384  0.1746961745065506  1.0000
  C   C33       1.0  0.030247366193407392  0.8594420581714888  0.148346763333315  1.0000
  C   C34       1.0  0.3835679516750687  0.1051193533600525  0.7238711340279166  1.0000
  C   C35       1.0  0.10977526772786926  0.8223643797062509  0.2069890848052439  1.0000
  C   C36       1.0  0.21613567804002548  0.9012752509315123  0.29308616318059694  1.0000
  C   C37       1.0  0.2443142905947084  0.018000390599525004  0.321275559354845  1.0000
  C   C38       1.0  0.05208066462828501  0.8535777457687742  0.6046626691761644  1.0000
  C   C39       1.0  0.06369856495461343  0.7496896357256092  0.5924501985273025  1.0000
  C   C40       1.0  0.10217096463482284  0.6981325831515194  0.5198418225039987  1.0000
  C   C41       1.0  0.12356176224209038  0.7497807076927784  0.4563314658564791  1.0000
  C   C42       1.0  0.11266098314774817  0.8543380639629632  0.46930901178978246  1.0000
  C   C43       1.0  0.07976083279548617  0.9075413406464675  0.5452432991324088  1.0000
  C   C44       1.0  0.03474191205991422  0.49252262252191065  0.4149610831609039  1.0000
  C   C45       1.0  0.43132454183663793  0.6633366785226473  0.09270158880953984  1.0000
  C   C46       1.0  0.014980503804451928  0.3815235718913712  0.40568408644528375  1.0000
  C   C47       1.0  0.08113724964315594  0.3681496273171305  0.49766544878216473  1.0000
  C   C48       1.0  0.1687948645106943  0.4632957712654502  0.5892280371351788  1.0000
  C   C49       1.0  0.18796716602024333  0.5748219000396376  0.5986218677901576  1.0000
  C   C50       1.0  0.11363262944923493  0.5878975418488821  0.5101980106145376  1.0000
  C   C51       1.0  0.9793464676605483  0.2381651371701139  0.552509344684964  1.0000
  C   C52       1.0  0.9145969892419218  0.12833414568164872  0.5309328059091811  1.0000
  C   C53       1.0  0.9143707255239591  0.034068616391671504  0.4550097146494494  1.0000
  C   C54       1.0  0.9851987762950712  0.050115537966441095  0.40611445407392915  1.0000
  C   C55       1.0  0.049936766906185405  0.15966303712758637  0.42805511193690643  1.0000
  C   C56       1.0  0.5751892318931129  0.17239304046398732  0.7944078766769704  1.0000
  C   C57       1.0  0.043770771579005434  0.25480375116946874  0.4976065895850609  1.0000
  C   C58       1.0  0.4713293278260764  0.4460936168031822  0.11593747474231729  1.0000
  C   C59       1.0  0.554977010804194  0.546741222585986  0.14852621468610755  1.0000
  C   C60       1.0  0.8393655909145252  0.8245137284892864  0.8941029498777836  1.0000
  C   C61       1.0  0.9194388230192914  0.8902356448256941  0.8793164791340756  1.0000
  C   C62       1.0  0.31707189568359695  0.7885279630470379  0.7209058148152535  1.0000
  C   C63       1.0  0.7019920223863991  0.8360163328622435  0.9785701577298909  1.0000
  C   C64       1.0  0.7483205682387536  0.8579265306417695  0.9117772372951548  1.0000
  N   N1        1.0  0.6419315138402766  0.9646784448512803  0.9386627548575885  1.0000
  N   N2        1.0  0.4245196716715968  0.9932918637079668  0.13610364678672948  1.0000
  N   N3        1.0  0.7695972239416379  0.12106768732095927  0.19105332689056098  1.0000
  N   N4        1.0  0.20751623679695555  0.9338993288287938  0.8948269991167024  1.0000
  N   N5        1.0  0.19848510290666613  0.8528875774904064  0.9335286224658998  1.0000
  N   N6        1.0  0.7890523957108329  0.17765733517396848  0.13218831066890868  1.0000
  N   N7        1.0  0.43668814932310346  0.1475513453197905  0.0226882832915436  1.0000
  N   N8        1.0  0.5420783097359632  0.04285800704148101  0.19402634862204587  1.0000
  N   N9        1.0  0.36983697661215587  0.7854865132310491  0.8783004071868774  1.0000
  N   N10       1.0  0.5725356462890474  0.823473463598461  0.14572035259118388  1.0000
  N   N11       1.0  0.4263036535452401  0.08682428481407098  0.8118257594575622  1.0000
  N   N12       1.0  0.453780086963441  0.7678477476109792  0.09517290011467604  1.0000
  N   N13       1.0  0.5455905929008227  0.12907786193201792  0.8556153006391651  1.0000
  N   N14       1.0  0.37355848848869044  0.8545173408169263  0.827434498192133  1.0000
  N   N15       1.0  0.640331699333302  0.9020167097053574  0.9952363461321311  1.0000
  N   N16       1.0  0.5545508941758966  0.19683310240434784  0.06734555253192552  1.0000
  F   F1        1.0  0.26498475293959706  0.0805192560340373  0.519847061173948  1.0000
