data_image0
_chemical_formula_structural       Dy2CuH20C32N4O28
_chemical_formula_sum              "Dy2 Cu1 H20 C32 N4 O28"
_cell_length_a       10.1848972563851
_cell_length_b       10.77743902556013
_cell_length_c       11.18646927044819
_cell_angle_alpha    88.15519464117978
_cell_angle_beta     76.12195173909971
_cell_angle_gamma    68.3751467776364

_space_group_name_H-M_alt    "P 1"
_space_group_IT_number       1

loop_
  _space_group_symop_operation_xyz
  'x, y, z'

loop_
  _atom_site_type_symbol
  _atom_site_label
  _atom_site_symmetry_multiplicity
  _atom_site_fract_x
  _atom_site_fract_y
  _atom_site_fract_z
  _atom_site_occupancy
  Dy  Dy1       1.0  0.5848810038887251  0.6022243461377174  0.6342107515499577  1.0000
  Dy  Dy2       1.0  0.41512474085749324  0.39776125808163  0.3657848069429618  1.0000
  Cu  Cu1       1.0  0.999996630702391  0.49999766904117127  0.5000052373042648  1.0000
  H   H1        1.0  0.36718823277605134  0.9801948673688374  0.4639244803919594  1.0000
  H   H2        1.0  0.6328388156968144  0.0197974071294027  0.536028154450399  1.0000
  H   H3        1.0  0.9726910384337161  0.171271601187911  0.3419398857581441  1.0000
  H   H4        1.0  0.02730324127236361  0.8287203348988329  0.6580596460778664  1.0000
  H   H5        1.0  0.16721330350797808  0.7412089084809423  0.3309089357741897  1.0000
  H   H6        1.0  0.8328220273225214  0.25878020479883895  0.669042917204905  1.0000
  H   H7        1.0  0.6765334892088363  0.4714320816302544  0.9459771856834038  1.0000
  H   H8        1.0  0.3234658498055651  0.5285897044067126  0.054027151546002  1.0000
  H   H9        1.0  0.9390986160314155  0.3051794671908326  0.20467280271067523  1.0000
  H   H10       1.0  0.06087556288181866  0.6948399281937796  0.7953571490101579  1.0000
  H   H11       1.0  0.1458230338963772  0.33869675634174  0.8278643184925939  1.0000
  H   H12       1.0  0.8541654484646911  0.6613223872161171  0.1721659523988492  1.0000
  H   H13       1.0  0.5087033386728949  0.7704506757210152  0.8665860496358702  1.0000
  H   H14       1.0  0.49129206284363386  0.22952110316249733  0.133383321332559  1.0000
  H   H15       1.0  0.5688826429707416  0.839819600383663  0.75309033230355  1.0000
  H   H16       1.0  0.4311329277298341  0.1601583833481186  0.2468936664601883  1.0000
  H   H17       1.0  0.7186935534049894  0.4588129475320527  0.38410193615025884  1.0000
  H   H18       1.0  0.2813028043509718  0.5411975515817957  0.615892242727476  1.0000
  H   H19       1.0  0.7984270661429347  0.5610339947250366  0.3834041222725303  1.0000
  H   H20       1.0  0.20159566198480405  0.43896279332437876  0.6165822896126654  1.0000
  C   C1        1.0  0.27858270744170005  0.8482269288168139  0.4002866699517325  1.0000
  C   C2        1.0  0.7214240846554248  0.1517669754629623  0.5997179095157676  1.0000
  C   C3        1.0  0.281515165160947  0.9741006494150425  0.42462621211289076  1.0000
  C   C4        1.0  0.7184927341520079  0.025892259752580995  0.5753558164863362  1.0000
  C   C5        1.0  0.17269294554805  0.0905852697511733  0.402536533870311  1.0000
  C   C6        1.0  0.8273167549706316  0.9094053034666274  0.597438088036462  1.0000
  C   C7        1.0  0.0610790467322317  0.0816873039695665  0.3551963225874388  1.0000
  C   C8        1.0  0.9389286051206583  0.9183033659487375  0.6447796566067365  1.0000
  C   C9        1.0  0.0632476220939536  0.9563634923736971  0.3271527560816451  1.0000
  C   C10       1.0  0.9367657177859743  0.043620214178162094  0.6728250908844869  1.0000
  C   C11       1.0  0.16957040254479924  0.8385910833741907  0.34965088413049017  1.0000
  C   C12       1.0  0.8304471504536438  0.1613979458058878  0.6503372560496884  1.0000
  C   C13       1.0  0.3871947276699644  0.7244740963814563  0.43664792360309673  1.0000
  C   C14       1.0  0.6128159829868807  0.27552520197355085  0.5633455394607053  1.0000
  C   C15       1.0  0.16916737172570612  0.22750848959949369  0.4292962778696107  1.0000
  C   C16       1.0  0.83083946435012  0.7724849123168269  0.5706966959277083  1.0000
  C   C17       1.0  0.9094425064834297  0.4130887810961354  0.8740432064282613  1.0000
  C   C18       1.0  0.09053676556789728  0.5869600778052656  0.1259826232473671  1.0000
  C   C19       1.0  0.7833407075753127  0.4287811874768438  0.9663406355011617  1.0000
  C   C20       1.0  0.21663931365623768  0.5712467047757102  0.03368201542465238  1.0000
  C   C21       1.0  0.7936058952806204  0.3897375556256648  0.085571805522882  1.0000
  C   C22       1.0  0.20637990740971182  0.6102719219649018  0.9144400725201717  1.0000
  C   C23       1.0  0.9299790744186537  0.3344562360857424  0.11232212207249143  1.0000
  C   C24       1.0  0.07001092892100044  0.665539711188714  0.8876995811361821  1.0000
  C   C25       1.0  0.05432568241508309  0.31688337839484143  0.0180503627323105  1.0000
  C   C26       1.0  0.9456657338767939  0.6831199859828274  0.9819830234476183  1.0000
  C   C27       1.0  0.04672748825876034  0.3548345514237566  0.8992507897070539  1.0000
  C   C28       1.0  0.9532486245620007  0.6451878308235379  0.1007802993908768  1.0000
  C   C29       1.0  0.8981025778645063  0.4582723343379626  0.7478679129360867  1.0000
  C   C30       1.0  0.10189991106533106  0.541727659965801  0.2521381212282278  1.0000
  C   C31       1.0  0.6585131470127195  0.40384059539385225  0.18314663720049398  1.0000
  C   C32       1.0  0.34147171631902035  0.5961575758597775  0.8168555106911979  1.0000
  N   N1        1.0  0.9463368139952736  0.9505934760093879  0.2743427139981874  1.0000
  N   N2        1.0  0.053676299751096196  0.04939635902551488  0.7256392295530956  1.0000
  N   N3        1.0  0.19846628366521202  0.2587038228501584  0.04515801201214488  1.0000
  N   N4        1.0  0.8015199441943678  0.7413213140311824  0.9548723562887033  1.0000
  O   O1        1.0  0.3985239909522066  0.6106697352614175  0.39732204527071946  1.0000
  O   O2        1.0  0.6014995776620892  0.3893326498789945  0.6026566252576869  1.0000
  O   O3        1.0  0.45859115873606254  0.7427983405455052  0.5083101194203151  1.0000
  O   O4        1.0  0.5414106179973929  0.25719281853069725  0.49169759046083766  1.0000
  O   O5        1.0  0.2865779619472733  0.24537494449991462  0.4227508980288305  1.0000
  O   O6        1.0  0.7134362103616423  0.7546040671476959  0.577233349241581  1.0000
  O   O7        1.0  0.040754256391018415  0.3173422004394268  0.45477213321466065  1.0000
  O   O8        1.0  0.9592454074000757  0.6826497895607986  0.5452538960872388  1.0000
  O   O9        1.0  0.8810538713610327  0.04972934666915311  0.22282748129235586  1.0000
  O   O10       1.0  0.11894682210037634  0.9502643067053356  0.7771686716233217  1.0000
  O   O11       1.0  0.9197760289363331  0.8465841526899214  0.28536315217542807  1.0000
  O   O12       1.0  0.0802306406079154  0.15340431284732153  0.7146302049909321  1.0000
  O   O13       1.0  0.016473614724183988  0.4481967219905272  0.6697156616187383  1.0000
  O   O14       1.0  0.9835272270623039  0.5517916916978152  0.33029692782055503  1.0000
  O   O15       1.0  0.7745510834621356  0.5031289671197284  0.7240318781494821  1.0000
  O   O16       1.0  0.22544306795376912  0.4968662071035723  0.2759737193264797  1.0000
  O   O17       1.0  0.5370080275255803  0.4388856045349811  0.15551888012613088  1.0000
  O   O18       1.0  0.46297825320407066  0.5611009376608181  0.8444900189690827  1.0000
  O   O19       1.0  0.6689441777863933  0.3756578948996179  0.29419829446917584  1.0000
  O   O20       1.0  0.3310306615839593  0.6243347086601716  0.705808328762103  1.0000
  O   O21       1.0  0.20262176959950298  0.22922157932192277  0.1530297126370428  1.0000
  O   O22       1.0  0.7973767344026828  0.770784163055417  0.8469929366347984  1.0000
  O   O23       1.0  0.3080013407890405  0.24378514824159941  0.9604805022337359  1.0000
  O   O24       1.0  0.6919796817233533  0.7562619543601271  0.03955131190733853  1.0000
  O   O25       1.0  0.5038072226869302  0.7916153306821769  0.7820579465755485  1.0000
  O   O26       1.0  0.4961875826490428  0.20838250580263212  0.21791779074908382  1.0000
  O   O27       1.0  0.7360324622096142  0.5208558969650383  0.4375693490215156  1.0000
  O   O28       1.0  0.263977030119058  0.47914921111150477  0.562420408204481  1.0000
