data_image0
_chemical_formula_structural       Cd2H40C40N4O8
_chemical_formula_sum              "Cd2 H40 C40 N4 O8"
_cell_length_a       7.652500537378388
_cell_length_b       9.626145182598538
_cell_length_c       12.723311451203138
_cell_angle_alpha    77.03716108319836
_cell_angle_beta     76.32640400984454
_cell_angle_gamma    89.10164703392816

_space_group_name_H-M_alt    "P 1"
_space_group_IT_number       1

loop_
  _space_group_symop_operation_xyz
  'x, y, z'

loop_
  _atom_site_type_symbol
  _atom_site_label
  _atom_site_symmetry_multiplicity
  _atom_site_fract_x
  _atom_site_fract_y
  _atom_site_fract_z
  _atom_site_occupancy
  Cd  Cd1       1.0  0.6710513666415852  0.6472530072311072  0.9913720285421591  1.0000
  Cd  Cd2       1.0  0.32895243680658853  0.3527484673332637  0.008627290795395494  1.0000
  H   H1        1.0  0.12945801788502112  0.9094976986172157  0.06965024210700926  1.0000
  H   H2        1.0  0.8705404006716436  0.09050374484301218  0.9303506247395107  1.0000
  H   H3        1.0  0.24396439723935973  0.7696463236724751  0.21520821578311458  1.0000
  H   H4        1.0  0.7560353703266429  0.2303551222503444  0.7847916752382674  1.0000
  H   H5        1.0  0.11216514743023254  0.5309421604929483  0.32668169107030554  1.0000
  H   H6        1.0  0.8878359579992648  0.46905930914623883  0.6733195799175178  1.0000
  H   H7        1.0  0.9233506114651535  0.5582572478675231  0.26901788842264557  1.0000
  H   H8        1.0  0.07665044917381182  0.4417431620885779  0.7309843599551726  1.0000
  H   H9        1.0  0.8554847714765546  0.6248149334020424  0.4527646189662632  1.0000
  H   H10       1.0  0.1445148617178518  0.3751833334715329  0.5472382042250743  1.0000
  H   H11       1.0  0.04635015902227481  0.7430702662083846  0.40856041353389116  1.0000
  H   H12       1.0  0.9536469068097734  0.25693118187383845  0.5914422144016172  1.0000
  H   H13       1.0  0.7630915092713266  0.8757667508981299  0.3906800882896064  1.0000
  H   H14       1.0  0.23690544076553272  0.12423148271190597  0.609321545496556  1.0000
  H   H15       1.0  0.7212211229867622  0.76608034272855  0.30435450321879637  1.0000
  H   H16       1.0  0.27877582333481865  0.23391789796607307  0.6956479158312305  1.0000
  H   H17       1.0  0.04687818246936361  0.9724507129774765  0.24818651834001318  1.0000
  H   H18       1.0  0.9531161180546308  0.0275485683058605  0.7518153044425802  1.0000
  H   H19       1.0  0.8571960954378497  0.9986459704049153  0.18951342345130223  1.0000
  H   H20       1.0  0.14280089195897716  0.001353337057381097  0.8104888034725946  1.0000
  H   H21       1.0  0.8209024135976011  0.34890433854450004  0.10240925765317851  1.0000
  H   H22       1.0  0.17910390870711992  0.6510929022127385  0.8975920195940573  1.0000
  H   H23       1.0  0.8183583285021854  0.18976763020298648  0.2834100349350735  1.0000
  H   H24       1.0  0.1816426537015587  0.8102306391331878  0.7165918124311261  1.0000
  H   H25       1.0  0.43178311039064  0.46175614687772554  0.4373097154556688  1.0000
  H   H26       1.0  0.5682139814483805  0.5382452516123807  0.5626874156328227  1.0000
  H   H27       1.0  0.45533113295753225  0.6144141179867829  0.2476936263772487  1.0000
  H   H28       1.0  0.5446712242625227  0.38558410421986616  0.7523017483168033  1.0000
  H   H29       1.0  0.5229725014770779  0.2599135129596987  0.5570072571908611  1.0000
  H   H30       1.0  0.47702457550081345  0.7400879138687555  0.44299301495306764  1.0000
  H   H31       1.0  0.7894971012327548  0.06571285173617271  0.44291737513668744  1.0000
  H   H32       1.0  0.2105027858437226  0.9342918015742542  0.5570827247701756  1.0000
  H   H33       1.0  0.8751546016674326  0.8596607355527721  0.5516537832334123  1.0000
  H   H34       1.0  0.12484659705840784  0.1403428463679859  0.4483447477105784  1.0000
  H   H35       1.0  0.8575679989647896  0.6943749778235356  0.73705916365045  1.0000
  H   H36       1.0  0.1424385435773061  0.3056275684336995  0.2629380119107124  1.0000
  H   H37       1.0  0.4964953668573673  0.947945558090133  0.8981865232891764  1.0000
  H   H38       1.0  0.5035041616876867  0.052049473057500996  0.10181294996123569  1.0000
  H   H39       1.0  0.4974030121067516  0.12201615068446611  0.7248779373457453  1.0000
  H   H40       1.0  0.5025925515608025  0.8779810066107174  0.27512407912782066  1.0000
  C   C1        1.0  0.897772808333116  0.7848902592202619  0.080436200366556  1.0000
  C   C2        1.0  0.10222825973640683  0.21511013656665764  0.9195644774835401  1.0000
  C   C3        1.0  0.03266309985286851  0.836764477246625  0.13679632354919136  1.0000
  C   C4        1.0  0.9673352813438288  0.1632358923613424  0.8632039501595943  1.0000
  C   C5        1.0  0.1417733324084693  0.7143131065016063  0.18899058193501622  1.0000
  C   C6        1.0  0.8582263903670013  0.2856872797381341  0.8110102864763533  1.0000
  C   C7        1.0  0.02737444204606731  0.6141148127270312  0.292527003535433  1.0000
  C   C8        1.0  0.9726252770141247  0.3858855805972965  0.7074746501397939  1.0000
  C   C9        1.0  0.9401933463064016  0.697231534660773  0.37930124409405147  1.0000
  C   C10       1.0  0.05980502745973131  0.3027688491163758  0.6207006001424561  1.0000
  C   C11       1.0  0.8291502315140423  0.8158555490434338  0.3289988234049376  1.0000
  C   C12       1.0  0.1708467558827849  0.1841437584188625  0.6710034035189666  1.0000
  C   C13       1.0  0.9417879631354114  0.9169818337853853  0.2252960582977011  1.0000
  C   C14       1.0  0.05821037327075371  0.0830174761395028  0.7747051928010649  1.0000
  C   C15       1.0  0.2517483167158688  0.6356578209572419  0.10509104719694305  1.0000
  C   C16       1.0  0.7482541787982201  0.36434471791220346  0.8949090558396265  1.0000
  C   C17       1.0  0.7358117646927129  0.37086812245274803  0.17829417670432687  1.0000
  C   C18       1.0  0.26419187445445413  0.6291290850409438  0.8217059111377338  1.0000
  C   C19       1.0  0.7337331417570426  0.28183751523264533  0.2809837024063597  1.0000
  C   C20       1.0  0.2662651946491153  0.7181617946922427  0.7190175486924062  1.0000
  C   C21       1.0  0.6243131212301805  0.3114293081201964  0.37833519655651326  1.0000
  C   C22       1.0  0.3756852636817953  0.6885710544031908  0.6216642918884077  1.0000
  C   C23       1.0  0.5211382402330501  0.43376326233940427  0.3652188990890579  1.0000
  C   C24       1.0  0.47886153104823864  0.5662381764988282  0.6347802066684666  1.0000
  C   C25       1.0  0.5318063845639929  0.5180661892564231  0.25977398420366166  1.0000
  C   C26       1.0  0.4681946610066917  0.4819331043398877  0.7402229594532557  1.0000
  C   C27       1.0  0.6128257869188047  0.2232168447114874  0.4891289331445349  1.0000
  C   C28       1.0  0.38716750062842925  0.7767909540814345  0.5108707579264616  1.0000
  C   C29       1.0  0.7006845368089571  0.10138071174189629  0.5118188470381995  1.0000
  C   C30       1.0  0.29931779811941084  0.8986175529722827  0.48818123923901163  1.0000
  C   C31       1.0  0.6891865281433951  0.0075376288280465985  0.6203469095721559  1.0000
  C   C32       1.0  0.31081193520380884  0.9924648743152675  0.3796529798843763  1.0000
  C   C33       1.0  0.790728591886641  0.8840367844257527  0.6267268695208799  1.0000
  C   C34       1.0  0.2092752600673506  0.11596574273711717  0.3732706871628295  1.0000
  C   C35       1.0  0.7824471705943028  0.7918235084934439  0.7289561913138272  1.0000
  C   C36       1.0  0.21755798557848754  0.2081779614489392  0.27104136693473885  1.0000
  C   C37       1.0  0.5806954090338579  0.9329445748951104  0.8197625150867082  1.0000
  C   C38       1.0  0.4193042800969239  0.06705473040779  0.18023697492306207  1.0000
  C   C39       1.0  0.5821742649876641  0.03060832373427049  0.7208991273969332  1.0000
  C   C40       1.0  0.4178253457078966  0.9693888409486959  0.27909996160122563  1.0000
  N   N1        1.0  0.6357263738209511  0.4873683891186432  0.1675764525025087  1.0000
  N   N2        1.0  0.3642786217661183  0.5126288066684738  0.8324210889866921  1.0000
  N   N3        1.0  0.6793795052429064  0.8155313545595533  0.8241501535536528  1.0000
  N   N4        1.0  0.32062417869479287  0.18446691261722487  0.1758489568984203  1.0000
  O   O1        1.0  0.9568857078683309  0.7057579348438023  0.012266661141808334  1.0000
  O   O2        1.0  0.043118091864563717  0.2942435468051626  0.9877334434596108  1.0000
  O   O3        1.0  0.734903411366098  0.8210200972574879  0.10189288096648846  1.0000
  O   O4        1.0  0.2650948876800997  0.17897813881513971  0.8981077769945429  1.0000
  O   O5        1.0  0.2190777793809674  0.5023842994101885  0.12107336180094562  1.0000
  O   O6        1.0  0.7809245966226472  0.49761503207166413  0.8789265323501354  1.0000
  O   O7        1.0  0.37647348047877227  0.708403489767832  0.029048196640339148  1.0000
  O   O8        1.0  0.6235262422966983  0.29159689647190856  0.9709526717710303  1.0000
