data_image0
_chemical_formula_structural       Cu8H56C56N40O16
_chemical_formula_sum              "Cu8 H56 C56 N40 O16"
_cell_length_a       15.248732065185711
_cell_length_b       15.258508046493455
_cell_length_c       15.518377493723941
_cell_angle_alpha    119.29976600136987
_cell_angle_beta     119.50653929994023
_cell_angle_gamma    90.04720398778265

_space_group_name_H-M_alt    "P 1"
_space_group_IT_number       1

loop_
  _space_group_symop_operation_xyz
  'x, y, z'

loop_
  _atom_site_type_symbol
  _atom_site_label
  _atom_site_symmetry_multiplicity
  _atom_site_fract_x
  _atom_site_fract_y
  _atom_site_fract_z
  _atom_site_occupancy
  Cu  Cu1       1.0  0.42819942589127874  0.48716688415230175  0.8905876222408509  1.0000
  Cu  Cu2       1.0  0.9622337847150887  0.4033242695445977  0.8904188779906477  1.0000
  Cu  Cu3       1.0  0.9870574150869373  0.4625323999996811  0.3908102143322767  1.0000
  Cu  Cu4       1.0  0.9033764371812864  0.9281514536719087  0.39063327894312766  1.0000
  Cu  Cu5       1.0  0.5718217453942387  0.5128202833212753  0.1094359982641606  1.0000
  Cu  Cu6       1.0  0.03809650302761714  0.5970886572295059  0.11006273638783874  1.0000
  Cu  Cu7       1.0  0.012975815571891793  0.5376432012203479  0.6094953670584359  1.0000
  Cu  Cu8       1.0  0.09657493975363704  0.07183976006906075  0.6093195524803859  1.0000
  H   H1        1.0  0.446390261937708  0.6264557492104854  0.8012832075714228  1.0000
  H   H2        1.0  0.8551205428326515  0.1751640051114123  0.8023540836371127  1.0000
  H   H3        1.0  0.12636157848693588  0.35549547807241305  0.30202963683456824  1.0000
  H   H4        1.0  0.6741640106909157  0.9460116032390715  0.30103562317128774  1.0000
  H   H5        1.0  0.553670291148812  0.37348607806388406  0.19867668574715217  1.0000
  H   H6        1.0  0.14499044001938438  0.8254160596004922  0.19812428046731873  1.0000
  H   H7        1.0  0.8735525883925348  0.6445813703635536  0.6981566748644283  1.0000
  H   H8        1.0  0.3257591271555995  0.05385021370776133  0.6988008735526207  1.0000
  H   H9        1.0  0.8079095427530659  0.9423548117934356  0.1763165240647523  1.0000
  H   H10       1.0  0.8683407708589783  0.23415125201833595  0.17711791147790032  1.0000
  H   H11       1.0  0.44286504519057973  0.3682104345126405  0.6767521571426229  1.0000
  H   H12       1.0  0.7333805416406279  0.3068021387257573  0.6750710598523642  1.0000
  H   H13       1.0  0.19208618514380044  0.05764681516104983  0.8236918910844081  1.0000
  H   H14       1.0  0.13184002087649543  0.7662365831942778  0.8233186874740496  1.0000
  H   H15       1.0  0.5571181278116768  0.6318163230720728  0.32333976308664353  1.0000
  H   H16       1.0  0.26645963760945773  0.6930404004553309  0.3246814767185596  1.0000
  H   H17       1.0  0.717449385587102  0.9210127822148592  0.03540240310164222  1.0000
  H   H18       1.0  0.8181709191135341  0.11487667192546534  0.036560855424667964  1.0000
  H   H19       1.0  0.4208646878695674  0.31792289949301983  0.5357039670590922  1.0000
  H   H20       1.0  0.6135443524674713  0.21689716131837136  0.5345943239349255  1.0000
  H   H21       1.0  0.2825652103729298  0.07897259239516785  0.9645995316232073  1.0000
  H   H22       1.0  0.1820241926534152  0.8855834803735047  0.9638288387021063  1.0000
  H   H23       1.0  0.5790460565228628  0.6821084675877316  0.4643661604074368  1.0000
  H   H24       1.0  0.38625439828567926  0.7828926788986338  0.4651191193783221  1.0000
  H   H25       1.0  0.7802775252572545  0.7200814531723483  0.3226609696322029  1.0000
  H   H26       1.0  0.042418099308498776  0.6018913039317582  0.3226116386327221  1.0000
  H   H27       1.0  0.2208269236356912  0.5426442973688381  0.8230578935422912  1.0000
  H   H28       1.0  0.10187696044729229  0.2798655372820135  0.8215402277079207  1.0000
  H   H29       1.0  0.21968818410663718  0.27993741804694844  0.6773602207308826  1.0000
  H   H30       1.0  0.9578667006887899  0.39854319620767603  0.6779546214546672  1.0000
  H   H31       1.0  0.7792781524068602  0.4574920632917597  0.17721174050348767  1.0000
  H   H32       1.0  0.89795946695601  0.7201142682637708  0.1782623921303285  1.0000
  H   H33       1.0  0.5998152410701535  0.2702725057891937  0.7451123605121807  1.0000
  H   H34       1.0  0.6472171836633932  0.47428871323893423  0.7467702229043951  1.0000
  H   H35       1.0  0.7704121349857757  0.14567461034165782  0.24542808126390278  1.0000
  H   H36       1.0  0.9745583747535987  0.09957734749934846  0.2454815098418663  1.0000
  H   H37       1.0  0.4002062626981626  0.7297292340703906  0.2549481189655937  1.0000
  H   H38       1.0  0.3525189682240751  0.5242338821132719  0.2518357961717257  1.0000
  H   H39       1.0  0.22971852282720553  0.854516039962576  0.7545970263565565  1.0000
  H   H40       1.0  0.02545402467754335  0.9004310439520536  0.7545102482277527  1.0000
  H   H41       1.0  0.7220518151232583  0.34263136543245304  0.8900699842679672  1.0000
  H   H42       1.0  0.6706614798933047  0.5461271276760938  0.8918277784491195  1.0000
  H   H43       1.0  0.8432654552318511  0.16819286167395828  0.3902632453830535  1.0000
  H   H44       1.0  0.04658453015929352  0.22152055413858557  0.3901370458332352  1.0000
  H   H45       1.0  0.27798837156427675  0.657362135604771  0.10998540770867754  1.0000
  H   H46       1.0  0.3288195412204544  0.45257791640599976  0.10666198387730227  1.0000
  H   H47       1.0  0.1567298540390284  0.83177909884882  0.6096558106990814  1.0000
  H   H48       1.0  0.9534267296820288  0.778490338705552  0.6098543606878905  1.0000
  H   H49       1.0  0.6320824337847953  0.2340990824427179  0.8485321053339944  1.0000
  H   H50       1.0  0.7184589674027322  0.6135448853280608  0.8501085492363742  1.0000
  H   H51       1.0  0.7342814077180649  0.21619185420929202  0.3486826747185603  1.0000
  H   H52       1.0  0.11426851505074617  0.13229328019179576  0.3491927177534464  1.0000
  H   H53       1.0  0.3679755791786547  0.7658879308953956  0.15151813229454808  1.0000
  H   H54       1.0  0.2808642341798516  0.38504520006429727  0.1481746392391656  1.0000
  H   H55       1.0  0.2657260674542739  0.7837996815177988  0.6512557060863456  1.0000
  H   H56       1.0  0.8857418076418779  0.8677213556859299  0.6507905942206519  1.0000
  C   C1        1.0  0.5168098536628705  0.6655980226929472  0.8926430385511142  1.0000
  C   C2        1.0  0.8760547841163272  0.22712300664012733  0.8935849244336538  1.0000
  C   C3        1.0  0.16576391894425058  0.37643575057268913  0.39338982133799755  1.0000
  C   C4        1.0  0.726333972291677  0.016331484152111466  0.3922430664846887  1.0000
  C   C5        1.0  0.48324769411863133  0.33433904717182367  0.10732020270322103  1.0000
  C   C6        1.0  0.12410302822591733  0.773393327387758  0.10692141536930674  1.0000
  C   C7        1.0  0.834188395037195  0.6236399125857374  0.6067997902114755  1.0000
  C   C8        1.0  0.2735696572072113  0.9835423214810317  0.607595301863121  1.0000
  C   C9        1.0  0.6149616967627196  0.6690901525202406  0.06160293966802046  1.0000
  C   C10       1.0  0.9468075366639324  0.39245401983138345  0.06201279631662258  1.0000
  C   C11       1.0  0.1695289589723359  0.4470661818723229  0.5621825044925616  1.0000
  C   C12       1.0  0.891815386716786  0.11453944588789262  0.5609716726288952  1.0000
  C   C13       1.0  0.38505997722819535  0.3308701692505593  0.9383791140711324  1.0000
  C   C14       1.0  0.05346867358082363  0.6081084218612601  0.9385645466286332  1.0000
  C   C15       1.0  0.8304697745829942  0.5530401451164482  0.4380385226017299  1.0000
  C   C16       1.0  0.10806636177886017  0.8854109763362956  0.43889470488453963  1.0000
  C   C17       1.0  0.6885838712909162  0.7667754575682507  0.1196644246052898  1.0000
  C   C18       1.0  0.9311178598418335  0.3528890403445217  0.12018610638098462  1.0000
  C   C19       1.0  0.2672958823682023  0.43141611525662416  0.6203030911953603  1.0000
  C   C20       1.0  0.8521115274890719  0.18803390985863896  0.618733352348528  1.0000
  C   C21       1.0  0.3114324935700879  0.23318710490392647  0.8803146856074734  1.0000
  C   C22       1.0  0.06913080624030946  0.6476152346848492  0.8803652790356293  1.0000
  C   C23       1.0  0.7326941898960371  0.5686686288865345  0.3798910059884902  1.0000
  C   C24       1.0  0.1477463199446304  0.8119109477691918  0.38112018661877295  1.0000
  C   C25       1.0  0.6714598971286705  0.809597560048509  0.05201359416804515  1.0000
  C   C26       1.0  0.8807576596342841  0.24254985041318392  0.05286084180714565  1.0000
  C   C27       1.0  0.3100321883977628  0.3809885899247262  0.5527502769688297  1.0000
  C   C28       1.0  0.7415669269958585  0.17069438789778957  0.551081494042144  1.0000
  C   C29       1.0  0.32856913977514085  0.19036452771271672  0.9479694852676487  1.0000
  C   C30       1.0  0.11946246504137989  0.7579450385756059  0.9476349234905043  1.0000
  C   C31       1.0  0.6899233174766193  0.6190727596072917  0.44740442062051494  1.0000
  C   C32       1.0  0.25827290640171424  0.8291697461348588  0.4487175399792988  1.0000
  C   C33       1.0  0.7359869105903272  0.7189023614913878  0.24174509301663247  1.0000
  C   C34       1.0  0.005755022333850839  0.5223587405683361  0.24188381479978457  1.0000
  C   C35       1.0  0.21942488825523995  0.5060116594669707  0.7421579900378034  1.0000
  C   C36       1.0  0.022072394215044346  0.23559630011138913  0.7407774183814765  1.0000
  C   C37       1.0  0.26399200036888715  0.2810974841571934  0.7582623492968565  1.0000
  C   C38       1.0  0.9945018145466734  0.47811498211804343  0.7586527647249923  1.0000
  C   C39       1.0  0.7806193406752514  0.49410803341390863  0.2580792481090057  1.0000
  C   C40       1.0  0.9777591985085791  0.764388539543276  0.2590505355523404  1.0000
  C   C41       1.0  0.5866893448997885  0.375028668688543  0.8932463692231138  1.0000
  C   C42       1.0  0.8091925139308103  0.5175016443977043  0.8945719387860366  1.0000
  C   C43       1.0  0.8752825114891465  0.3069079726919455  0.3936504605286543  1.0000
  C   C44       1.0  0.018115920272642028  0.08635036228218947  0.3938238086109749  1.0000
  C   C45       1.0  0.41335855377922553  0.6249593624079209  0.10682788550459316  1.0000
  C   C46       1.0  0.1906345623368537  0.48175157357037085  0.10450247389318436  1.0000
  C   C47       1.0  0.12480045768258204  0.6932387951868221  0.6065660082804881  1.0000
  C   C48       1.0  0.981897224081507  0.9136562712156074  0.606163137635832  1.0000
  C   C49       1.0  0.6373533199035605  0.300574818927238  0.8395118097488705  1.0000
  C   C50       1.0  0.7043731597662486  0.538059377157026  0.8410980566338252  1.0000
  C   C51       1.0  0.8008764570450921  0.2023158457488564  0.33980166372755605  1.0000
  C   C52       1.0  0.03860741862417427  0.1371617454136711  0.33995714832975205  1.0000
  C   C53       1.0  0.36269067410623984  0.6994181906001131  0.16054581194193684  1.0000
  C   C54       1.0  0.29519921418290096  0.4606344060085448  0.157470617293356  1.0000
  C   C55       1.0  0.1991871436826855  0.7977595256575255  0.6602246694275208  1.0000
  C   C56       1.0  0.9614067438396957  0.8628509033138414  0.660033194466081  1.0000
  N   N1        1.0  0.5835095725804393  0.7559795798876578  0.9377510350397813  1.0000
  N   N2        1.0  0.8546239180139564  0.18189544202278538  0.938841621466011  1.0000
  N   N3        1.0  0.2562347235092801  0.35486312068666587  0.4385466743863589  1.0000
  N   N4        1.0  0.6809104800845347  0.0828239350540798  0.4371106764463875  1.0000
  N   N5        1.0  0.4165453133162486  0.24396500291741308  0.06221667720410542  1.0000
  N   N6        1.0  0.14554643782987833  0.8185863132373608  0.06162967487387043  1.0000
  N   N7        1.0  0.7437051950161191  0.6452007097141673  0.5616098667980722  1.0000
  N   N8        1.0  0.31896229546801874  0.9170234826169972  0.5626920189739764  1.0000
  N   N9        1.0  0.5272714924089286  0.6169405836225081  0.9481141386930786  1.0000
  N   N10       1.0  0.9208901514782326  0.33104159159326235  0.948733458964007  1.0000
  N   N11       1.0  0.11720568516384583  0.4213683304541504  0.4487766226922217  1.0000
  N   N12       1.0  0.830539226870293  0.026962466207429293  0.4477677156230868  1.0000
  N   N13       1.0  0.47277003238208687  0.38300623526231453  0.0518568554855961  1.0000
  N   N14       1.0  0.07928851790458669  0.6694826487043172  0.05185416353608462  1.0000
  N   N15       1.0  0.882769594743415  0.5786979013985131  0.5514463588300629  1.0000
  N   N16       1.0  0.1693678425661745  0.9729682286087283  0.5521066012563481  1.0000
  N   N17       1.0  0.7365930152148435  0.9004939178798849  0.09387367880405144  1.0000
  N   N18       1.0  0.8575702273308393  0.19368069490696638  0.09494584265866747  1.0000
  N   N19       1.0  0.40099243923972944  0.3576558049119071  0.5945408118119744  1.0000
  N   N20       1.0  0.692540022469636  0.2357229315570706  0.5929198257283942  1.0000
  N   N21       1.0  0.2634146593214338  0.09949194541163557  0.9061276700502104  1.0000
  N   N22       1.0  0.14266029998839969  0.8067736064664075  0.9055175067010879  1.0000
  N   N23       1.0  0.5989604352068482  0.6423937086186626  0.4055667735072959  1.0000
  N   N24       1.0  0.30724983798587147  0.7640819790763584  0.40683949950053483  1.0000
  N   N25       1.0  0.7648746380705801  0.797535856605947  0.23531948279880052  1.0000
  N   N26       1.0  0.9703313390007865  0.4374915392733527  0.23563345150433446  1.0000
  N   N27       1.0  0.2980537230942204  0.4706567350050149  0.7358466543387863  1.0000
  N   N28       1.0  0.9369425584055835  0.264399282231878  0.7341781321478751  1.0000
  N   N29       1.0  0.2351131649324998  0.20244745862110133  0.7646730644252597  1.0000
  N   N30       1.0  0.029910940110603787  0.5629538196142434  0.7648679105405023  1.0000
  N   N31       1.0  0.7019649071157801  0.5294253026592556  0.2643482786592983  1.0000
  N   N32       1.0  0.06289244552952765  0.73559686686594  0.26567706122996537  1.0000
  N   N33       1.0  0.6464476252052407  0.6389850187548805  0.13895391490783046  1.0000
  N   N34       1.0  0.9927552725486991  0.4996471073210743  0.13926014333056005  1.0000
  N   N35       1.0  0.1394709655021982  0.4928773088850418  0.6393757486673336  1.0000
  N   N36       1.0  0.9993104645107848  0.14609487242289992  0.638325005835334  1.0000
  N   N37       1.0  0.3535492893701217  0.36099982598732083  0.8610477673919233  1.0000
  N   N38       1.0  0.007541528994877908  0.5009160854320314  0.8612925643685118  1.0000
  N   N39       1.0  0.8605569723767417  0.5072594114126545  0.36088246973777416  1.0000
  N   N40       1.0  0.0005660887205677278  0.8538778032992835  0.3615258055632395  1.0000
  O   O1        1.0  0.5120559428618209  0.3965229655269552  0.8268105160890897  1.0000
  O   O2        1.0  0.817143329607326  0.4299596362221364  0.8277853777079968  1.0000
  O   O3        1.0  0.8966279523354429  0.3153344251373724  0.32730429109248865  1.0000
  O   O4        1.0  0.9303472083067845  0.011578765821283693  0.32742183899160426  1.0000
  O   O5        1.0  0.4879587363946668  0.6034264336823651  0.1732487481453902  1.0000
  O   O6        1.0  0.1831539524673147  0.569385994405124  0.17148079312390516  1.0000
  O   O7        1.0  0.10345618068670592  0.6849446174627969  0.6729679912768701  1.0000
  O   O8        1.0  0.06965052186009044  0.9884571605446125  0.6725829788627351  1.0000
  O   O9        1.0  0.622549761829795  0.4113360089574132  0.0012858517170856387  1.0000
  O   O10       1.0  0.8816070623262106  0.5892054420107016  0.002511921000831521  1.0000
  O   O11       1.0  0.9116895867023302  0.37902565403332733  0.5016211370790556  1.0000
  O   O12       1.0  0.08992525469292187  0.12218257227591778  0.5019793758249093  1.0000
  O   O13       1.0  0.37754179426752177  0.5886899244191355  0.9988067116446331  1.0000
  O   O14       1.0  0.11788845280894826  0.41013225187010954  0.9964809385651917  1.0000
  O   O15       1.0  0.08841246117736291  0.6210333000638573  0.4986217265765802  1.0000
  O   O16       1.0  0.9101133325377618  0.8778075673650393  0.49799973908932327  1.0000
