data_image0
_chemical_formula_structural       Cd2H16C24S4N4O8
_chemical_formula_sum              "Cd2 H16 C24 S4 N4 O8"
_cell_length_a       3.710840629812269
_cell_length_b       12.393616007348225
_cell_length_c       13.975607276114633
_cell_angle_alpha    89.9998361935229
_cell_angle_beta     90.00044940832326
_cell_angle_gamma    97.83148651032758

_space_group_name_H-M_alt    "P 1"
_space_group_IT_number       1

loop_
  _space_group_symop_operation_xyz
  'x, y, z'

loop_
  _atom_site_type_symbol
  _atom_site_label
  _atom_site_symmetry_multiplicity
  _atom_site_fract_x
  _atom_site_fract_y
  _atom_site_fract_z
  _atom_site_occupancy
  Cd  Cd1       1.0  0.4999974903749162  1.984682008100006e-06  0.4999988265217752  1.0000
  Cd  Cd2       1.0  0.5000006081914491  0.49999948293833557  1.3269203548999995e-06  1.0000
  H   H1        1.0  0.6294940336905198  0.5085803583374825  0.6454152647347868  1.0000
  H   H2        1.0  0.370511747727761  0.9914245186348793  0.1454153716182276  1.0000
  H   H3        1.0  0.370503430999328  0.4914191825246093  0.3545847218827021  1.0000
  H   H4        1.0  0.6294938010361619  0.008575021464515898  0.8545846150076386  1.0000
  H   H5        1.0  0.7449211330568131  0.3904084008314044  0.7875868130860795  1.0000
  H   H6        1.0  0.2550782601220688  0.10959490371737247  0.2875869153742201  1.0000
  H   H7        1.0  0.255079397806746  0.6095919542405995  0.212412458001161  1.0000
  H   H8        1.0  0.7449242224475794  0.8904038221736172  0.7124123557170705  1.0000
  H   H9        1.0  0.6982875071353689  0.428856636032414  0.4805839574079656  1.0000
  H   H10       1.0  0.3017120427195862  0.0711462615203047  0.980585162413483  1.0000
  H   H11       1.0  0.3017133952208296  0.5711445335029808  0.5194153136786426  1.0000
  H   H12       1.0  0.6982965722283294  0.9288540927882494  0.019414824214543103  1.0000
  H   H13       1.0  0.908073512218486  0.2229981252946232  0.7668253018534371  1.0000
  H   H14       1.0  0.09192491289725513  0.2770044086246272  0.2668282272666076  1.0000
  H   H15       1.0  0.0919262756598015  0.7770006008505985  0.233173969235061  1.0000
  H   H16       1.0  0.908077569682675  0.7229943172656096  0.7331717593570914  1.0000
  C   C1        1.0  0.6964850818231126  0.42664283600396397  0.635483846167503  1.0000
  C   C2        1.0  0.3035288032756184  0.07336078792469888  0.1354819923718438  1.0000
  C   C3        1.0  0.30351582054336745  0.5733583335306704  0.3645161404515207  1.0000
  C   C4        1.0  0.6964763739956652  0.9266379377113054  0.8645179942546477  1.0000
  C   C5        1.0  0.7626587029242766  0.3642149789437568  0.713720306434972  1.0000
  C   C6        1.0  0.23735008937729415  0.1357901094779663  0.21372245340827328  1.0000
  C   C7        1.0  0.23733876175529636  0.6357845619190883  0.2862789646501014  1.0000
  C   C8        1.0  0.7626523932026358  0.8642086164122632  0.7862775332154257  1.0000
  C   C9        1.0  0.878843301752084  0.24130138807067414  0.4309808087532616  1.0000
  C   C10       1.0  0.12116439272983823  0.2587048713074934  0.9309818885808099  1.0000
  C   C11       1.0  0.12115797209676069  0.7587005959281116  0.5690184623327212  1.0000
  C   C12       1.0  0.8788357666616445  0.7412946692996059  0.069018813571887  1.0000
  C   C13       1.0  0.7381497749501518  0.38246549218042253  0.5449969997803663  1.0000
  C   C14       1.0  0.26186299590160894  0.11754158065647151  0.0449985274066194  1.0000
  C   C15       1.0  0.26185382210769587  0.6175356770999869  0.4550029868414498  1.0000
  C   C16       1.0  0.7381425528725953  0.8824579594421706  0.9550021747516553  1.0000
  C   C17       1.0  0.8915804071120444  0.21565143665338832  0.6148612355287851  1.0000
  C   C18       1.0  0.10842210665002476  0.28435223183221575  0.11486274576725458  1.0000
  C   C19       1.0  0.10842244695023597  0.7843481037009922  0.385138035561873  1.0000
  C   C20       1.0  0.8915746150648258  0.7156456801023409  0.8851379563839075  1.0000
  C   C21       1.0  0.8342603617562928  0.2781232598405481  0.5328231606659131  1.0000
  C   C22       1.0  0.16574481236953886  0.22187976689578193  0.0328213674325326  1.0000
  C   C23       1.0  0.1657428637986272  0.7218770949772237  0.4671761104241128  1.0000
  C   C24       1.0  0.8342553470116696  0.7781197737120777  0.9671786191877487  1.0000
  S   S1        1.0  0.0015975199297245163  0.08435842747743291  0.6204173017422788  1.0000
  S   S2        1.0  0.9983966979179253  0.41564441557679277  0.1204181823906296  1.0000
  S   S3        1.0  0.998397621561409  0.915641928102275  0.3795826848717851  1.0000
  S   S4        1.0  0.0016007667822038778  0.5843551252845389  0.8795825197592748  1.0000
  N   N1        1.0  0.8564152896118387  0.26408799806790745  0.701592253712505  1.0000
  N   N2        1.0  0.14358934495639625  0.23591467282911785  0.201591095192633  1.0000
  N   N3        1.0  0.14358524125172786  0.7359123570040964  0.2984070173747355  1.0000
  N   N4        1.0  0.8564127661308873  0.7640832385977208  0.7984088914316985  1.0000
  O   O1        1.0  0.04612506002182218  0.31239287027168666  0.3759546996683624  1.0000
  O   O2        1.0  0.9538699971788914  0.18760699034780973  0.8759548193173856  1.0000
  O   O3        1.0  0.9538762138270227  0.687609113727099  0.6240445714176204  1.0000
  O   O4        1.0  0.046130162212598816  0.8123925502592969  0.1240458828353042  1.0000
  O   O5        1.0  0.7432587270297617  0.1458313698941112  0.4048509744231126  1.0000
  O   O6        1.0  0.25674059820603645  0.354170058386174  0.9048499509812727  1.0000
  O   O7        1.0  0.25673678593344096  0.8541698001505081  0.5951475811255023  1.0000
  O   O8        1.0  0.7432599326883673  0.6458302966835632  0.0951514667032072  1.0000
