data_image0
_chemical_formula_structural       Zn4H24C40N32
_chemical_formula_sum              "Zn4 H24 C40 N32"
_cell_length_a       9.22454308200037
_cell_length_b       10.174060316000313
_cell_length_c       12.438470821000108
_cell_angle_alpha    89.99999892758974
_cell_angle_beta     90.00001514130766
_cell_angle_gamma    90.00002849772541

_space_group_name_H-M_alt    "P 1"
_space_group_IT_number       1

loop_
  _space_group_symop_operation_xyz
  'x, y, z'

loop_
  _atom_site_type_symbol
  _atom_site_label
  _atom_site_symmetry_multiplicity
  _atom_site_fract_x
  _atom_site_fract_y
  _atom_site_fract_z
  _atom_site_occupancy
  Zn  Zn1       1.0  0.05947754318133751  0.8407459558601997  0.6354020605833669  1.0000
  Zn  Zn2       1.0  0.5594772784009836  0.6592531438414044  0.3645979223023872  1.0000
  Zn  Zn3       1.0  0.9405227120958062  0.34074616853744283  0.8645975272047154  1.0000
  Zn  Zn4       1.0  0.4405216157645386  0.1592541178465794  0.1354017343503386  1.0000
  H   H1        1.0  0.2669392639402801  0.8056872391086853  0.4339705679572106  1.0000
  H   H2        1.0  0.7669390900032554  0.6943119546373351  0.5660302595827531  1.0000
  H   H3        1.0  0.733060794201279  0.3056873643736821  0.0660290863881912  1.0000
  H   H4        1.0  0.23306108536279885  0.19431381085791338  0.9339701344701012  1.0000
  H   H5        1.0  0.2633282819266399  0.6818871028693819  0.8313224674674445  1.0000
  H   H6        1.0  0.7633280340893266  0.8181120892397471  0.16867675144946057  1.0000
  H   H7        1.0  0.7366718866587263  0.18188919327465672  0.6686763188664957  1.0000
  H   H8        1.0  0.23667203083277855  0.3181119835938376  0.3313237066574999  1.0000
  H   H9        1.0  0.06145805752841942  0.5409000824140049  0.6930337455482771  1.0000
  H   H10       1.0  0.5614579358626417  0.9591009839689303  0.3069662377259803  1.0000
  H   H11       1.0  0.9385409500524631  0.040899312581622396  0.806965043007182  1.0000
  H   H12       1.0  0.43854220599941135  0.459099990012824  0.1930342181593545  1.0000
  H   H13       1.0  0.6387397612414034  0.4675843505795143  0.7727453697291795  1.0000
  H   H14       1.0  0.13873971245659794  0.032414816111845796  0.22725463658390055  1.0000
  H   H15       1.0  0.3612616473177895  0.9675832897715747  0.7272534121030177  1.0000
  H   H16       1.0  0.8612591124912613  0.5324169296229397  0.2727450220674754  1.0000
  H   H17       1.0  0.6878719015049128  0.9468885751041115  0.9786911045251759  1.0000
  H   H18       1.0  0.18787395882556981  0.5531115656921699  0.021309707504706  1.0000
  H   H19       1.0  0.3121262435671781  0.4468885105492221  0.5213092855475026  1.0000
  H   H20       1.0  0.8121270455457081  0.05311171763185029  0.47869155873546293  1.0000
  H   H21       1.0  0.7212553870273555  0.5426429065706699  0.015180389090417601  1.0000
  H   H22       1.0  0.22125692390360296  0.9573562664668027  0.9848196255307613  1.0000
  H   H23       1.0  0.27874344350183133  0.042643799478511796  0.4848192693998002  1.0000
  H   H24       1.0  0.7787433950097553  0.45735543067787177  0.5151807643771846  1.0000
  C   C1        1.0  0.3149698262058038  0.7568748788863503  0.503234714312434  1.0000
  C   C2        1.0  0.814969654247783  0.7431243366324125  0.4967645147347783  1.0000
  C   C3        1.0  0.6850292992366677  0.256874972810337  0.9967640708397952  1.0000
  C   C4        1.0  0.18502928568800311  0.24312618064804772  0.0032351405963382002  1.0000
  C   C5        1.0  0.4611884364897563  0.6415443581893  0.6008238960661673  1.0000
  C   C6        1.0  0.9611882927274422  0.8584549236117665  0.399176165621455  1.0000
  C   C7        1.0  0.5388117100792799  0.1415443879989908  0.8991748909034882  1.0000
  C   C8        1.0  0.0388117942109929  0.35845669917756595  0.10082429184978993  1.0000
  C   C9        1.0  0.34538109840386266  0.6867062415787685  0.665953272976509  1.0000
  C   C10       1.0  0.8453809068089557  0.8132920048339538  0.33404596203635617  1.0000
  C   C11       1.0  0.6546190728109879  0.18670632533179088  0.8340463172388581  1.0000
  C   C12       1.0  0.1546191554835374  0.31329481434134715  0.16595449614654004  1.0000
  C   C13       1.0  0.34528462553794287  0.6489582825075288  0.7736899893998127  1.0000
  C   C14       1.0  0.8452833321233871  0.8510399638612042  0.22631004955136552  1.0000
  C   C15       1.0  0.6547155250771655  0.14895836869747106  0.726309601410371  1.0000
  C   C16       1.0  0.1547145826393717  0.3510417881274249  0.2736896040791592  1.0000
  C   C17       1.0  0.8751949206022331  0.7492231899109782  0.8309671778032098  1.0000
  C   C18       1.0  0.3751960543186783  0.750777035800432  0.16903367097290814  1.0000
  C   C19       1.0  0.12480420066506073  0.2492240200512795  0.6690332153842817  1.0000
  C   C20       1.0  0.6248050579217833  0.2507761232149193  0.3309667881952053  1.0000
  C   C21       1.0  0.9908602130377135  0.5933975239752202  0.7489796201449438  1.0000
  C   C22       1.0  0.49086037691519396  0.906604719951673  0.25102125132061565  1.0000
  C   C23       1.0  0.009139907256532404  0.0933963340788395  0.7510199715407495  1.0000
  C   C24       1.0  0.5091408203629726  0.4066027738638879  0.2489792053920468  1.0000
  C   C25       1.0  0.5550846811236527  0.5321868583627062  0.7403587432549585  1.0000
  C   C26       1.0  0.05508488147309981  0.9678132222394422  0.2596404348117645  1.0000
  C   C27       1.0  0.4449164898312717  0.0321858658163379  0.7596400454380189  1.0000
  C   C28       1.0  0.9449163492079579  0.4678134396678927  0.24035841302169567  1.0000
  C   C29       1.0  0.7335489302426553  0.8551798705882019  0.9484108602164698  1.0000
  C   C30       1.0  0.23355104839065183  0.6448212738056894  0.05158996077366851  1.0000
  C   C31       1.0  0.2664502488468657  0.3551797846550784  0.55158953130141  1.0000
  C   C32       1.0  0.766451090092261  0.14481943992887378  0.4484113040215051  1.0000
  C   C33       1.0  0.7511215589623108  0.6305959885407049  0.9703146816241528  1.0000
  C   C34       1.0  0.25112270780694257  0.8694041809270631  0.029685338855699704  1.0000
  C   C35       1.0  0.2488774975677259  0.1305958951282662  0.5296857134326132  1.0000
  C   C36       1.0  0.7488784691710464  0.3694052872733309  0.470315118443132  1.0000
  C   C37       1.0  0.845339759509237  0.6280857053248282  0.8828433275915588  1.0000
  C   C38       1.0  0.34534202492898913  0.871915489744971  0.117156711370761  1.0000
  C   C39       1.0  0.1546582115860744  0.12808458436733616  0.6171570675046639  1.0000
  C   C40       1.0  0.6546602374834548  0.3719145895404735  0.38284374588861436  1.0000
  N   N1        1.0  0.2537028534906369  0.7605862631756252  0.6014951791621073  1.0000
  N   N2        1.0  0.7537037285903738  0.7394129245704588  0.3985040378667364  1.0000
  N   N3        1.0  0.7462962739772082  0.26058638705522  0.8985036059316375  1.0000
  N   N4        1.0  0.24629737744883337  0.2394138112845781  0.10149561752308503  1.0000
  N   N5        1.0  0.43972937324753764  0.6875368083637381  0.4978152506204482  1.0000
  N   N6        1.0  0.939729241058352  0.8124634466014837  0.5021848068576418  1.0000
  N   N7        1.0  0.560270620417171  0.18753685671949677  0.0021844055867106006  1.0000
  N   N8        1.0  0.06027099878467371  0.31246424018466  0.9978147813760999  1.0000
  N   N9        1.0  0.9675810465535266  0.7247708307117192  0.7460483883400145  1.0000
  N   N10       1.0  0.4675833079105517  0.7752304197712261  0.2539524785591851  1.0000
  N   N11       1.0  0.032418061369391196  0.22477063419440668  0.7539520052327902  1.0000
  N   N12       1.0  0.5324189017390922  0.27522946719225416  0.24604798022370747  1.0000
  N   N13       1.0  0.5692609835962374  0.5653594594627618  0.636464944366587  1.0000
  N   N14       1.0  0.06926120282957271  0.9346396446738794  0.3635350404383928  1.0000
  N   N15       1.0  0.43073912139703924  0.0653584581820681  0.8635338438035661  1.0000
  N   N16       1.0  0.930738925684615  0.4346428066589211  0.13646541583236171  1.0000
  N   N17       1.0  0.9211993071671642  0.5304020089338124  0.8288977978287237  1.0000
  N   N18       1.0  0.42120056103527764  0.9695992205236125  0.17110305997187686  1.0000
  N   N19       1.0  0.0787996946847684  0.030400852390386  0.6711017948495056  1.0000
  N   N20       1.0  0.5788006706205452  0.4695982871297986  0.32889819970549194  1.0000
  N   N21       1.0  0.8203954954949639  0.8646844544990413  0.8624002958653919  1.0000
  N   N22       1.0  0.3203987231410395  0.6353167292634934  0.13760054216115952  1.0000
  N   N23       1.0  0.17960260471656406  0.3646833443949475  0.6376000955026272  1.0000
  N   N24       1.0  0.6796034101550605  0.13531485792836406  0.36240072278377516  1.0000
  N   N25       1.0  0.69572138423181  0.7458597028449033  0.0027930101847531003  1.0000
  N   N26       1.0  0.19572389868349666  0.7541394586179775  0.9972069994276255  1.0000
  N   N27       1.0  0.30427755719645694  0.24586060705242116  0.49720664510326884  1.0000
  N   N28       1.0  0.8042784774601089  0.25413961757080017  0.5027933936827154  1.0000
  N   N29       1.0  0.45075433291079053  0.5695455666615955  0.8098584334898932  1.0000
  N   N30       1.0  0.9507552380864585  0.930454693301591  0.19014082219366205  1.0000
  N   N31       1.0  0.5492457743669379  0.06954462295276188  0.6901403546142933  1.0000
  N   N32       1.0  0.049244888143285016  0.43045548606167466  0.3098596341430522  1.0000
