data_image0
_chemical_formula_structural       Gd4H48C60O36
_chemical_formula_sum              "Gd4 H48 C60 O36"
_cell_length_a       10.059327236452358
_cell_length_b       12.423429896695003
_cell_length_c       12.823250651169829
_cell_angle_alpha    101.13021931378944
_cell_angle_beta     89.99895575757752
_cell_angle_gamma    90.0005824795317

_space_group_name_H-M_alt    "P 1"
_space_group_IT_number       1

loop_
  _space_group_symop_operation_xyz
  'x, y, z'

loop_
  _atom_site_type_symbol
  _atom_site_label
  _atom_site_symmetry_multiplicity
  _atom_site_fract_x
  _atom_site_fract_y
  _atom_site_fract_z
  _atom_site_occupancy
  Gd  Gd1       1.0  0.7245508789223861  0.4009151569326689  0.9234521469487479  1.0000
  Gd  Gd2       1.0  0.22455762987741676  0.5990801333490055  0.5765496149064477  1.0000
  Gd  Gd3       1.0  0.2754397731692747  0.5990960233967257  0.07654268406290045  1.0000
  Gd  Gd4       1.0  0.7754469393054889  0.40090263151106587  0.42345870237576844  1.0000
  H   H1        1.0  0.8778311229175769  0.6940191116384966  0.11240185529963045  1.0000
  H   H2        1.0  0.37784065644031267  0.30598432727529706  0.38759520794830865  1.0000
  H   H3        1.0  0.12216549371254358  0.3059894593139702  0.8875978838961489  1.0000
  H   H4        1.0  0.622171865895126  0.6940227740008708  0.6123979792072234  1.0000
  H   H5        1.0  0.00040332179828789986  0.7893386492998928  0.2739415273014744  1.0000
  H   H6        1.0  0.500415789790601  0.21066525063217506  0.22605624456817006  1.0000
  H   H7        1.0  0.9995942889529205  0.2106699642671757  0.7260566607163742  1.0000
  H   H8        1.0  0.49960369128525167  0.7893532892299076  0.7739409244785096  1.0000
  H   H9        1.0  0.6450446195765807  0.792943849703832  0.46074787071930984  1.0000
  H   H10       1.0  0.14506123360694537  0.20704507074011502  0.03925250276914482  1.0000
  H   H11       1.0  0.3549569674120717  0.20704648765826755  0.5392550289441972  1.0000
  H   H12       1.0  0.854955265034654  0.7929496014496207  0.9607427334852833  1.0000
  H   H13       1.0  0.5205157910773791  0.7035294581390943  0.2991111965274414  1.0000
  H   H14       1.0  0.020530662749777696  0.2964703481977864  0.20088932714236316  1.0000
  H   H15       1.0  0.4794867900415268  0.29646582103660524  0.7008919693000168  1.0000
  H   H16       1.0  0.9794818595045526  0.7035276256232449  0.7991058280558578  1.0000
  H   H17       1.0  0.9801486024264604  0.8625549698990795  0.658623560275416  1.0000
  H   H18       1.0  0.48016208521329407  0.1374401846284385  0.8413722489679859  1.0000
  H   H19       1.0  0.019855966962253998  0.13745265315627359  0.3413806587579914  1.0000
  H   H20       1.0  0.5198464606572059  0.8625545940683709  0.15861910940856921  1.0000
  H   H21       1.0  0.915738666325829  0.021266522464763696  0.8019747868425359  1.0000
  H   H22       1.0  0.41573835582617147  0.978729887889848  0.6980229715152151  1.0000
  H   H23       1.0  0.08427186771399418  0.978743624777536  0.1980276262733369  1.0000
  H   H24       1.0  0.5842672076436983  0.021259799846475896  0.30197354981057606  1.0000
  H   H25       1.0  0.6903792899395353  0.15766730998273457  0.572201265332801  1.0000
  H   H26       1.0  0.19038170574824417  0.8423302053458315  0.9278030069197388  1.0000
  H   H27       1.0  0.309613350187682  0.8423361700064547  0.427803636818574  1.0000
  H   H28       1.0  0.8096149108509038  0.1576701647651362  0.07219499601586683  1.0000
  H   H29       1.0  0.7499379670108438  0.9997481988675433  0.4326117514003231  1.0000
  H   H30       1.0  0.24994732277172454  0.0002469893769613994  0.06739081880417792  1.0000
  H   H31       1.0  0.25005268489004345  0.0002519794735462987  0.5673932318455217  1.0000
  H   H32       1.0  0.7500542643888791  0.9997543073616412  0.9326034797966969  1.0000
  H   H33       1.0  0.6939006670772015  0.32076869369263505  0.13700447968247434  1.0000
  H   H34       1.0  0.1939055568544958  0.6792319619295382  0.3629984735532689  1.0000
  H   H35       1.0  0.30610092004256734  0.6792341366847905  0.8629940440993026  1.0000
  H   H36       1.0  0.8061029888622924  0.320764094735317  0.6370064170334974  1.0000
  H   H37       1.0  0.5612722296132586  0.3000133511345382  0.066622772348083  1.0000
  H   H38       1.0  0.06126873967065189  0.6999685364617249  0.4333772868120037  1.0000
  H   H39       1.0  0.43873035162747687  0.6999919608040344  0.9333754967195917  1.0000
  H   H40       1.0  0.9387298649744765  0.3000022040959465  0.5666183435031373  1.0000
  H   H41       1.0  0.5749391675870897  0.4907972410239266  0.7477129503157588  1.0000
  H   H42       1.0  0.07490877152405058  0.5091803464162722  0.7522738997468255  1.0000
  H   H43       1.0  0.4250176848454855  0.5092175922071432  0.2522990363440273  1.0000
  H   H44       1.0  0.9250063288420448  0.4907715854282415  0.24768576506268405  1.0000
  H   H45       1.0  0.7081311551435759  0.556376523788323  0.7674493512766037  1.0000
  H   H46       1.0  0.20813022648082574  0.4436420302571518  0.732573168114101  1.0000
  H   H47       1.0  0.2918336502611822  0.44362971465744033  0.2325452137304894  1.0000
  H   H48       1.0  0.7918355725145928  0.5563744323216042  0.2674695872116005  1.0000
  C   C1        1.0  0.6208047099153615  0.6294084121027125  0.10156400471767313  1.0000
  C   C2        1.0  0.1208138053160823  0.3705911180282158  0.3984358345401235  1.0000
  C   C3        1.0  0.37918693615961263  0.3705984334438597  0.8984384896010483  1.0000
  C   C4        1.0  0.8791937463237857  0.629399304574278  0.6015639627420273  1.0000
  C   C5        1.0  0.6920930387891104  0.6920395802628005  0.19591386965483792  1.0000
  C   C6        1.0  0.19210260579038865  0.3079620557165939  0.3040830756772196  1.0000
  C   C7        1.0  0.30790656008551315  0.30795990585473015  0.8040862863929522  1.0000
  C   C8        1.0  0.8079069342008506  0.6920400824344738  0.6959106209128835  1.0000
  C   C9        1.0  0.8271033085454106  0.717055452833719  0.1884608779774553  1.0000
  C   C10       1.0  0.32711536401544095  0.2829476362816763  0.3115391626987504  1.0000
  C   C11       1.0  0.17289330804101158  0.2829489537803056  0.8115403198455627  1.0000
  C   C12       1.0  0.6728991464805887  0.7170601785547602  0.6884580759989236  1.0000
  C   C13       1.0  0.8958010029935153  0.7694322682256781  0.2777276363950918  1.0000
  C   C14       1.0  0.39581552606520626  0.23056874780527176  0.22227100219995322  1.0000
  C   C15       1.0  0.10419461949063448  0.23057213838555413  0.7222735614342995  1.0000
  C   C16       1.0  0.604203954982772  0.7694424112994652  0.7777246042125798  1.0000
  C   C17       1.0  0.8300908343036325  0.7949256615165722  0.3750809371090045  1.0000
  C   C18       1.0  0.33010636925777687  0.20507006368814026  0.12491750258965342  1.0000
  C   C19       1.0  0.16990677636634638  0.2050762635419119  0.6249205154153618  1.0000
  C   C20       1.0  0.6699121176381408  0.7949328519604961  0.8750779187406369  1.0000
  C   C21       1.0  0.6946391864188538  0.7730662230505911  0.3839253531932344  1.0000
  C   C22       1.0  0.19465520857414018  0.22692867487008775  0.11607715070176994  1.0000
  C   C23       1.0  0.30536240060099823  0.22692743725989564  0.6160766898027961  1.0000
  C   C24       1.0  0.805362284150462  0.7730757104968689  0.8839248225731355  1.0000
  C   C25       1.0  0.6257267901770973  0.7226478303351767  0.2936596932325416  1.0000
  C   C26       1.0  0.1257422844030174  0.27735252633150503  0.20634103206034388  1.0000
  C   C27       1.0  0.3742747968552606  0.2773466713653575  0.7063417478037196  1.0000
  C   C28       1.0  0.8742722260618123  0.7226519655565297  0.7936570633048066  1.0000
  C   C29       1.0  0.865345500591765  0.9207658416861759  0.5394024847747405  1.0000
  C   C30       1.0  0.3653603689146578  0.07922940070753978  0.9605980730115394  1.0000
  C   C31       1.0  0.13465012186106406  0.07923768092320665  0.4606008661859634  1.0000
  C   C32       1.0  0.6346461886884497  0.9207684878730901  0.03940018456803779  1.0000
  C   C33       1.0  0.9140175408182143  0.9267128626754725  0.6424950414235087  1.0000
  C   C34       1.0  0.4140278402610064  0.07328261139561928  0.8575064432459814  1.0000
  C   C35       1.0  0.08598603446823459  0.07329476037707389  0.3575091776162723  1.0000
  C   C36       1.0  0.5859777232399496  0.9267128382356588  0.14249051787614778  1.0000
  C   C37       1.0  0.8774010401965952  0.014840061670099691  0.721470541824232  1.0000
  C   C38       1.0  0.377407832872862  0.9851577302008676  0.7785296066693664  1.0000
  C   C39       1.0  0.12260551743726468  0.9851709056451481  0.27853204494316236  1.0000
  C   C40       1.0  0.6225987246928496  0.014835195263060496  0.2214691603256612  1.0000
  C   C41       1.0  0.7960912506065224  0.09883070209583879  0.6974448875898036  1.0000
  C   C42       1.0  0.29609839737776866  0.9011658540644732  0.8025545790669358  1.0000
  C   C43       1.0  0.20390834831159307  0.9011778262532458  0.3025564027583912  1.0000
  C   C44       1.0  0.7039061720084163  0.0988287541739581  0.197442984021322  1.0000
  C   C45       1.0  0.7500804323140997  0.09177086343423471  0.5929145806482554  1.0000
  C   C46       1.0  0.25008715707802054  0.908227009671357  0.9070881502026258  1.0000
  C   C47       1.0  0.24991519011980753  0.9082350555099125  0.4070916179478204  1.0000
  C   C48       1.0  0.7499164182497181  0.0917693239561572  0.09290665780093833  1.0000
  C   C49       1.0  0.7833902006444832  0.002795270308197891  0.5138672572423106  1.0000
  C   C50       1.0  0.28340112853010163  0.997202811839699  0.9861342707304958  1.0000
  C   C51       1.0  0.21660243944189966  0.9972097433198072  0.4861418700899805  1.0000
  C   C52       1.0  0.7166034409247998  0.002797643517268999  0.013860629810999106  1.0000
  C   C53       1.0  0.7716558931358364  0.2001071850042919  0.777970000680462  1.0000
  C   C54       1.0  0.27166865791983946  0.7998867092908455  0.7220315852525518  1.0000
  C   C55       1.0  0.22834370577607638  0.7998997031764857  0.22203094241569946  1.0000
  C   C56       1.0  0.7283478406310238  0.20010369203095735  0.2779689875579977  1.0000
  C   C57       1.0  0.99369906021532  0.47548566126347686  0.05115821264030983  1.0000
  C   C58       1.0  0.4937078983321611  0.5245109646667956  0.4488389040797146  1.0000
  C   C59       1.0  0.006299544923322699  0.5245268505140004  0.948818177887745  1.0000
  C   C60       1.0  0.506297664802858  0.47546414246206575  0.5511779331770585  1.0000
  O   O1        1.0  0.6896786230606864  0.5726633736957609  0.028127148377905094  1.0000
  O   O2        1.0  0.18968369620710487  0.42733315771191366  0.47187499088286  1.0000
  O   O3        1.0  0.3103080526001136  0.4273445049799278  0.9718677637409602  1.0000
  O   O4        1.0  0.8103188848274882  0.5726546128710479  0.5281312658250955  1.0000
  O   O5        1.0  0.49471282384707377  0.6363348919105505  0.10142512545572661  1.0000
  O   O6        1.0  0.9947221033168674  0.3636649774590667  0.3985742239335012  1.0000
  O   O7        1.0  0.50527882217456  0.3636726458847974  0.8985821960036592  1.0000
  O   O8        1.0  0.005283460162402799  0.6363247315831515  0.6014215218065078  1.0000
  O   O9        1.0  0.9087791835458957  0.83343294328305  0.4631336583334901  1.0000
  O   O10       1.0  0.4087983261114302  0.166559018447181  0.03686678180313411  1.0000
  O   O11       1.0  0.09121842708004377  0.16657213427665593  0.5368731422096006  1.0000
  O   O12       1.0  0.5912181725365927  0.833432416017743  0.963126208775677  1.0000
  O   O13       1.0  0.786252123060791  0.20297072092702  0.877162426859954  1.0000
  O   O14       1.0  0.2862781584556089  0.7970215941915983  0.6228394000954369  1.0000
  O   O15       1.0  0.21374548764946164  0.7970418652254239  0.12284128280262517  1.0000
  O   O16       1.0  0.7137472869659687  0.20295812475556116  0.3771596911052912  1.0000
  O   O17       1.0  0.7396219004881386  0.2889034863038659  0.7451189638114218  1.0000
  O   O18       1.0  0.23962083033265458  0.7110943917560845  0.7548815744840172  1.0000
  O   O19       1.0  0.26037272794054894  0.7111059047271551  0.2548809490231251  1.0000
  O   O20       1.0  0.7603817507988706  0.2888992898631031  0.2451196929198575  1.0000
  O   O21       1.0  0.9022322490737053  0.40627007968678436  0.052757249180849904  1.0000
  O   O22       1.0  0.402240010446988  0.5937219303382619  0.44724017266337784  1.0000
  O   O23       1.0  0.09776237959300717  0.5937455419689143  0.9472260405629742  1.0000
  O   O24       1.0  0.5977625704189646  0.4062508230592242  0.5527722658055866  1.0000
  O   O25       1.0  0.0756747641537459  0.509745544330535  0.1258215254897053  1.0000
  O   O26       1.0  0.5756852299247796  0.49024803348721224  0.37417612608873446  1.0000
  O   O27       1.0  0.9243248350467822  0.4902587453023485  0.8741539043575772  1.0000
  O   O28       1.0  0.42432033322894097  0.5097295551999962  0.6258404564603098  1.0000
  O   O29       1.0  0.6433872107652903  0.342208608825409  0.07669460452953562  1.0000
  O   O30       1.0  0.14340132315241758  0.6577941158659681  0.4233133953915243  1.0000
  O   O31       1.0  0.35661437636366594  0.6577991207510224  0.9233057365941166  1.0000
  O   O32       1.0  0.8566171635432125  0.34220021543502094  0.576694250222552  1.0000
  O   O33       1.0  0.6462257529348463  0.5118632775177757  0.7996624362104259  1.0000
  O   O34       1.0  0.14622416794841087  0.4881356291307951  0.700342749678484  1.0000
  O   O35       1.0  0.35374203472325405  0.48814609213171434  0.20033825238203215  1.0000
  O   O36       1.0  0.853753560544902  0.5118586807494409  0.2996656717827761  1.0000
