data_image0
_chemical_formula_structural       Zn6H54C78N6O30
_chemical_formula_sum              "Zn6 H54 C78 N6 O30"
_cell_length_a       10.437984620174246
_cell_length_b       18.394609255652576
_cell_length_c       18.39969544663585
_cell_angle_alpha    116.53048956483445
_cell_angle_beta     100.89060791079572
_cell_angle_gamma    100.89333614971359

_space_group_name_H-M_alt    "P 1"
_space_group_IT_number       1

loop_
  _space_group_symop_operation_xyz
  'x, y, z'

loop_
  _atom_site_type_symbol
  _atom_site_label
  _atom_site_symmetry_multiplicity
  _atom_site_fract_x
  _atom_site_fract_y
  _atom_site_fract_z
  _atom_site_occupancy
  Zn  Zn1       1.0  0.8325407762359378  0.703118218971106  0.3502530823635085  1.0000
  Zn  Zn2       1.0  0.12960570209122574  0.6471279887093642  0.29679369232115954  1.0000
  Zn  Zn3       1.0  0.4821515394919089  0.6495954186672678  0.3528044832354738  1.0000
  Zn  Zn4       1.0  0.16745876903883777  0.2968815092110545  0.6497475339779798  1.0000
  Zn  Zn5       1.0  0.8703938448720834  0.3528717394215733  0.7032063806920164  1.0000
  Zn  Zn6       1.0  0.5178476862323649  0.35040367015497514  0.6471958133932392  1.0000
  H   H1        1.0  0.9599551297165334  0.7489412997595295  0.5041850866290504  1.0000
  H   H2        1.0  0.21138532920270586  0.7552335677491655  0.2510107007465053  1.0000
  H   H3        1.0  0.45601824274282887  0.49573639984328827  0.2444756165360076  1.0000
  H   H4        1.0  0.0400450698852808  0.2510577890282732  0.49581585880663687  1.0000
  H   H5        1.0  0.7886151933266704  0.24476616029610904  0.748989477745326  1.0000
  H   H6        1.0  0.5439819568589854  0.5042626889445145  0.7555253288996796  1.0000
  H   H7        1.0  0.08390129051404929  0.7543956605969697  0.4614220035840546  1.0000
  H   H8        1.0  0.3297473736457946  0.706852500858581  0.24548892080827053  1.0000
  H   H9        1.0  0.6226443232271778  0.5385368880238488  0.29287807559697404  1.0000
  H   H10       1.0  0.9160989090877647  0.2456034281908401  0.5385789418516254  1.0000
  H   H11       1.0  0.6702508782009245  0.29314658799810195  0.7545107270134821  1.0000
  H   H12       1.0  0.3773549041856228  0.46146220074717087  0.7071216777034266  1.0000
  H   H13       1.0  0.06897651733615351  0.964017810681753  0.34290708091446476  1.0000
  H   H14       1.0  0.1046532432363634  0.37859338435675477  0.0357249514263316  1.0000
  H   H15       1.0  0.7259084809261083  0.6569334084405442  0.6209700676632722  1.0000
  H   H16       1.0  0.9310220523725408  0.035981917586070694  0.6570934299483683  1.0000
  H   H17       1.0  0.8953469546769244  0.621405704482271  0.9642765373376606  1.0000
  H   H18       1.0  0.27408975231752214  0.3430675986327857  0.3790309771464707  1.0000
  H   H19       1.0  0.9080209827221352  0.049176616421547706  0.3903431111841158  1.0000
  H   H20       1.0  0.8586571419587373  0.3410564578136145  0.9507029813874084  1.0000
  H   H21       1.0  0.5176228159147487  0.60924630116579  0.6585981320775289  1.0000
  H   H22       1.0  0.09197629524704357  0.9508224724695751  0.6096558878306696  1.0000
  H   H23       1.0  0.1413440332091511  0.658942630888525  0.04929806952692673  1.0000
  H   H24       1.0  0.48237509777838034  0.39075406654762196  0.34140259301943143  1.0000
  H   H25       1.0  0.6594759498821006  0.8323691275792626  0.3897762603453359  1.0000
  H   H26       1.0  0.8271190577247296  0.5573355545850163  0.1676725322373614  1.0000
  H   H27       1.0  0.2694278573429116  0.610057196057582  0.4426426614570573  1.0000
  H   H28       1.0  0.3405223019646186  0.16762996127742014  0.6102233874764096  1.0000
  H   H29       1.0  0.17288178942074953  0.4426648126665  0.832326335982316  1.0000
  H   H30       1.0  0.7305713548438605  0.3899438108276243  0.5573574021747163  1.0000
  H   H31       1.0  0.8063469749215884  0.11227317004751569  0.5011726710841273  1.0000
  H   H32       1.0  0.6944756899158193  0.3890263893457302  0.8877697679108677  1.0000
  H   H33       1.0  0.305315902920853  0.4986467675920991  0.6111849691431389  1.0000
  H   H34       1.0  0.1936512803021983  0.887725918706714  0.49882589008099404  1.0000
  H   H35       1.0  0.3055254750916347  0.610974617316927  0.11222996334990405  1.0000
  H   H36       1.0  0.6946852773126295  0.5013523209563645  0.38881445178626006  1.0000
  H   H37       1.0  0.381694029063553  0.09890936579443381  0.46118295805928977  1.0000
  H   H38       1.0  0.2830677280614254  0.3623509474659415  0.9009414421752596  1.0000
  H   H39       1.0  0.9205744061852955  0.5386890762956257  0.637703873700737  1.0000
  H   H40       1.0  0.6183061570007596  0.9010916410563398  0.5388177543794443  1.0000
  H   H41       1.0  0.716932794467958  0.637648780579333  0.09905873631657863  1.0000
  H   H42       1.0  0.07942579848211305  0.46131001233850105  0.36229544175000683  1.0000
  H   H43       1.0  0.31250210130601624  0.9436597255465742  0.3498827193533033  1.0000
  H   H44       1.0  0.36877646658001595  0.40636309867463893  0.05616411516589187  1.0000
  H   H45       1.0  0.962466657656357  0.6497679050184857  0.5935018327828346  1.0000
  H   H46       1.0  0.6874964582422437  0.056341920681766994  0.6501164718559664  1.0000
  H   H47       1.0  0.6312250315154416  0.5936366292849655  0.9438361688045944  1.0000
  H   H48       1.0  0.03753191205234433  0.35023182324933805  0.4064986780800055  1.0000
  H   H49       1.0  0.4910498283297927  0.8734476833957104  0.31879024628586455  1.0000
  H   H50       1.0  0.617445622407118  0.44549086663677434  0.12642268669675621  1.0000
  H   H51       1.0  0.17204174570051128  0.6806659006264725  0.5542933795289076  1.0000
  H   H52       1.0  0.5089497084730752  0.12655396269574481  0.6812085070737482  1.0000
  H   H53       1.0  0.3825555392232759  0.5545101401283362  0.8735781312206328  1.0000
  H   H54       1.0  0.8279558501306425  0.3193338276757912  0.4457064825269653  1.0000
  C   C1        1.0  0.03264924844476991  0.798217472838438  0.3059083608443205  1.0000
  C   C2        1.0  0.23432527624692062  0.5075170485516836  0.20151082422987088  1.0000
  C   C3        1.0  0.7264191435712843  0.6939997385946127  0.4922920544778862  1.0000
  C   C4        1.0  0.9673499755909633  0.20178161603502792  0.6940924791127048  1.0000
  C   C5        1.0  0.7656726154660518  0.4924852374808211  0.7984923845117109  1.0000
  C   C6        1.0  0.2735833284017275  0.3059999893305587  0.5077088782995745  1.0000
  C   C7        1.0  0.9463984296639156  0.8547082802564958  0.34056845313098455  1.0000
  C   C8        1.0  0.09157176518198183  0.48565766256507464  0.14510084204631826  1.0000
  C   C9        1.0  0.6055459789406187  0.6592963175889112  0.514095676685777  1.0000
  C   C10       1.0  0.05360079268329093  0.14529080866820016  0.6594329301543527  1.0000
  C   C11       1.0  0.9084290752093696  0.5143427048913409  0.8549001994866074  1.0000
  C   C12       1.0  0.39445354941959476  0.34070532875866627  0.4859057933153963  1.0000
  C   C13       1.0  0.9770198468671722  0.937860594404441  0.3541658974604261  1.0000
  C   C14       1.0  0.03895855307499127  0.4160848349647496  0.061958070720152164  1.0000
  C   C15       1.0  0.6226675880703497  0.6456303496327892  0.5835832939619864  1.0000
  C   C16       1.0  0.02297969840760319  0.062139133777719686  0.6458347188810691  1.0000
  C   C17       1.0  0.961042941643406  0.5839148930973083  0.9380432999069586  1.0000
  C   C18       1.0  0.37733096303525576  0.3543712968516814  0.41641861388884394  1.0000
  C   C19       1.0  0.8871707475728884  0.9841909554609743  0.3796877830226466  1.0000
  C   C20       1.0  0.9028229225632671  0.39536047273574587  0.015704004687293622  1.0000
  C   C21       1.0  0.5073523597548403  0.6199930674418682  0.6043487871796104  1.0000
  C   C22       1.0  0.1128284798399051  0.015808133310038403  0.6203119702777542  1.0000
  C   C23       1.0  0.0971775999661162  0.6046392553095288  0.9842961738045448  1.0000
  C   C24       1.0  0.4926465311928895  0.38000730013465045  0.3956515000676931  1.0000
  C   C25       1.0  0.7662882679295252  0.945787013047003  0.38895066201135375  1.0000
  C   C26       1.0  0.8204462245732886  0.44310686418641865  0.05417400306311755  1.0000
  C   C27       1.0  0.3771910687132945  0.6107395589979137  0.5567370764807295  1.0000
  C   C28       1.0  0.233710626395272  0.05421335442706272  0.6110485385793256  1.0000
  C   C29       1.0  0.1795549404341656  0.5568941424762456  0.9458257281976474  1.0000
  C   C30       1.0  0.6228081451620113  0.38926144783607003  0.4432624438227252  1.0000
  C   C31       1.0  0.7476512857156337  0.8636740882081141  0.3787880407767048  1.0000
  C   C32       1.0  0.8839488981966783  0.5150128371836048  0.13630138777205067  1.0000
  C   C33       1.0  0.36862602962496294  0.6209947506530684  0.4848569791725553  1.0000
  C   C34       1.0  0.25234696444255883  0.1363250006997916  0.6212121503733528  1.0000
  C   C35       1.0  0.11605194894880101  0.4849875300679045  0.8636974804476197  1.0000
  C   C36       1.0  0.63137415981641  0.3790062560952592  0.5151426466095543  1.0000
  C   C37       1.0  0.6608103612720484  0.9881548775526596  0.4077925533252868  1.0000
  C   C38       1.0  0.6727043046925729  0.4197154570861699  0.01178495927035784  1.0000
  C   C39       1.0  0.25296155908223755  0.591878082723966  0.580285382349942  1.0000
  C   C40       1.0  0.3391891907568478  0.0118448504246018  0.5922058897029601  1.0000
  C   C41       1.0  0.3272971815539237  0.5802861888851752  0.9882145483748774  1.0000
  C   C42       1.0  0.7470363765910406  0.40812036667034596  0.4197128591024041  1.0000
  C   C43       1.0  0.6983518585106196  0.07538690096682642  0.467633220015685  1.0000
  C   C44       1.0  0.6232256950635673  0.39233081772586337  0.9245786883950943  1.0000
  C   C45       1.0  0.23081228468646506  0.5321735382298487  0.6078107407414778  1.0000
  C   C46       1.0  0.30164962604733603  0.9246147450557487  0.5323668309578553  1.0000
  C   C47       1.0  0.3767744943778055  0.607670189022457  0.07542093738702248  1.0000
  C   C48       1.0  0.769189216786053  0.4678261896273099  0.3921884565723844  1.0000
  C   C49       1.0  0.5978040871052742  0.1146841529413578  0.48735684580010036  1.0000
  C   C50       1.0  0.4834351274347313  0.3727239370071231  0.8852456951075568  1.0000
  C   C51       1.0  0.11060276998490082  0.5125459849580594  0.627445044712296  1.0000
  C   C52       1.0  0.40219707790218  0.8853168537213065  0.5126428854606716  1.0000
  C   C53       1.0  0.5165650620066488  0.6272770697411972  0.11475393067455303  1.0000
  C   C54       1.0  0.8893980940751405  0.4874524641280331  0.37255296984770336  1.0000
  C   C55       1.0  0.4586274570057754  0.06720011907486878  0.44476554593449447  1.0000
  C   C56       1.0  0.391641690812996  0.3776157132695204  0.9326766805650736  1.0000
  C   C57       1.0  0.013934518154201147  0.5550865696751188  0.6224402798772886  1.0000
  C   C58       1.0  0.5413714373190217  0.932800248399204  0.5552336546561848  1.0000
  C   C59       1.0  0.6083601268329701  0.6223846540500019  0.06732392311819514  1.0000
  C   C60       1.0  0.9860653669627055  0.4449118795990898  0.3775587158606797  1.0000
  C   C61       1.0  0.420427789188267  0.9810184857103509  0.38338353676861925  1.0000
  C   C62       1.0  0.4394241107656641  0.4024730260238415  0.018839717311237847  1.0000
  C   C63       1.0  0.036948779859429196  0.6163065544905919  0.5974588432361473  1.0000
  C   C64       1.0  0.5795727198036147  0.018983160397887403  0.6166164087262658  1.0000
  C   C65       1.0  0.5605777085688288  0.597527341244458  0.9811603430437189  1.0000
  C   C66       1.0  0.9630494719872971  0.3836925343660837  0.4025408045855983  1.0000
  C   C67       1.0  0.520902343767176  0.9412815682743059  0.3658717085692019  1.0000
  C   C68       1.0  0.5795680150593583  0.4246910637408661  0.05860427658770823  1.0000
  C   C69       1.0  0.15489818928087118  0.6337359599523396  0.5752122025571609  1.0000
  C   C70       1.0  0.47909589791910895  0.0587194385428944  0.6341266195989732  1.0000
  C   C71       1.0  0.42043444506467875  0.5753105821960462  0.9413958798644944  1.0000
  C   C72       1.0  0.8450994082388092  0.36626376829870116  0.4247871161703998  1.0000
  C   C73       1.0  0.6371140554474978  0.2055483806601401  0.556987155503748  1.0000
  C   C74       1.0  0.43190829445835294  0.3514821503140766  0.79442359066595  1.0000
  C   C75       1.0  0.0803755902683676  0.4429347379031867  0.6486658574246036  1.0000
  C   C76       1.0  0.3628877638869951  0.7944519866081663  0.44301290485120864  1.0000
  C   C77       1.0  0.568091254193483  0.6485175777656309  0.20557593901891388  1.0000
  C   C78       1.0  0.9196242982255924  0.5570637112685687  0.35133205165673326  1.0000
  N   N1        1.0  0.8361192476068099  0.8204328835027398  0.35610921845204063  1.0000
  N   N2        1.0  0.01562934224895689  0.5355269960512886  0.17946946167399605  1.0000
  N   N3        1.0  0.4797056526804012  0.6437329642195664  0.46429749959028027  1.0000
  N   N4        1.0  0.1638806155299406  0.17956748409056897  0.6438922609305422  1.0000
  N   N5        1.0  0.9843714998309281  0.4644733713538968  0.8205310365306175  1.0000
  N   N6        1.0  0.5202948529344198  0.35626868199112494  0.5357035325612359  1.0000
  O   O1        1.0  0.13284911864903384  0.8272361346295938  0.2876492690508173  1.0000
  O   O2        1.0  0.3057147002436196  0.4603761682778611  0.17238138174792542  1.0000
  O   O3        1.0  0.8448657610251189  0.7122859782753111  0.5395581277190901  1.0000
  O   O4        1.0  0.8671504266257415  0.1727635935525669  0.712351347290678  1.0000
  O   O5        1.0  0.6942874538674104  0.5396229202361623  0.8276186879884406  1.0000
  O   O6        1.0  0.15513476150426436  0.28771374976996356  0.46044205077274114  1.0000
  O   O7        1.0  0.0003680127400969124  0.7702511375972492  0.46915108075910444  1.0000
  O   O8        1.0  0.2303862863661976  0.6988418887141349  0.2297541396198497  1.0000
  O   O9        1.0  0.5312929506476038  0.5307674827674518  0.3008850021939651  1.0000
  O   O10       1.0  0.9996315308461446  0.2297485906361416  0.5308500789107029  1.0000
  O   O11       1.0  0.7696132605971046  0.3011578394168026  0.7702459333933334  1.0000
  O   O12       1.0  0.46870627676519677  0.46923160600356795  0.6991147511064355  1.0000
  O   O13       1.0  0.9941892483013747  0.7223401384688375  0.29601483851563176  1.0000
  O   O14       1.0  0.2715998244737676  0.573393276135768  0.27744910249395366  1.0000
  O   O15       1.0  0.6978344602590881  0.7038674360408663  0.4263152736077276  1.0000
  O   O16       1.0  0.005809321407319606  0.27765958979898636  0.7039856723472084  1.0000
  O   O17       1.0  0.7284006946785552  0.4266064520119528  0.7225521626545088  1.0000
  O   O18       1.0  0.3021667165973341  0.2961316526100433  0.5736852339782956  1.0000
  O   O19       1.0  0.7607571968682407  0.2534163803669713  0.5802964575519454  1.0000
  O   O20       1.0  0.5076962371008236  0.32689829678211174  0.7465426892127526  1.0000
  O   O21       1.0  0.1808379299762208  0.4197625193788567  0.673339454149918  1.0000
  O   O22       1.0  0.2392423500950613  0.7465833477639663  0.41970361546123075  1.0000
  O   O23       1.0  0.4923020316604648  0.6730988739091543  0.2534561049493149  1.0000
  O   O24       1.0  0.81916130081364  0.5802365692897098  0.32665921249385843  1.0000
  O   O25       1.0  0.5457121151283886  0.2294501554930193  0.5898639451748195  1.0000
  O   O26       1.0  0.3166314965817847  0.360462077029851  0.7705480482633149  1.0000
  O   O27       1.0  0.9561296733005661  0.40988645395444223  0.6395200729447552  1.0000
  O   O28       1.0  0.45428872864003  0.770550211860943  0.41013600970148195  1.0000
  O   O29       1.0  0.6833670765039771  0.6395376511355267  0.22945137594290094  1.0000
  O   O30       1.0  0.04387150693291643  0.5901126345940215  0.36047934798464365  1.0000
