data_image0
_chemical_formula_structural       Zn4H56C40N8O16
_chemical_formula_sum              "Zn4 H56 C40 N8 O16"
_cell_length_a       7.3048342772103325
_cell_length_b       9.810405987270064
_cell_length_c       16.65251265203497
_cell_angle_alpha    90.0000877877593
_cell_angle_beta     89.99977718643493
_cell_angle_gamma    92.38027873637775

_space_group_name_H-M_alt    "P 1"
_space_group_IT_number       1

loop_
  _space_group_symop_operation_xyz
  'x, y, z'

loop_
  _atom_site_type_symbol
  _atom_site_label
  _atom_site_symmetry_multiplicity
  _atom_site_fract_x
  _atom_site_fract_y
  _atom_site_fract_z
  _atom_site_occupancy
  Zn  Zn1       1.0  0.7577561310576258  0.5521723078771217  0.5548233778901874  1.0000
  Zn  Zn2       1.0  0.7422402921945092  0.44782785263955555  0.05482672649409181  1.0000
  Zn  Zn3       1.0  0.2422393879156886  0.4478291370103448  0.4451742545436801  1.0000
  Zn  Zn4       1.0  0.25776070314999805  0.5521736025772981  0.9451739084849607  1.0000
  H   H1        1.0  0.5297512929437431  0.49455672462783445  0.7481805543098758  1.0000
  H   H2        1.0  0.9702435596789699  0.5054459266718753  0.2481817618959496  1.0000
  H   H3        1.0  0.47024538134421323  0.5054406420355306  0.2518218822009715  1.0000
  H   H4        1.0  0.029755906254266114  0.4945524653537349  0.7518176720630764  1.0000
  H   H5        1.0  0.45792771892953255  0.8698353173750631  0.8766634983369315  1.0000
  H   H6        1.0  0.04206880578955462  0.1301662346858876  0.3766633005503692  1.0000
  H   H7        1.0  0.542077223377504  0.13016308497924456  0.12333833765730871  1.0000
  H   H8        1.0  0.957922445569956  0.8698321418501745  0.6233355329057275  1.0000
  H   H9        1.0  0.4728910242461524  0.8682300427854913  0.6165724047853658  1.0000
  H   H10       1.0  0.0271078638390492  0.13177294386020577  0.11657223414527353  1.0000
  H   H11       1.0  0.5270989114522352  0.13176935137329338  0.3834276296922781  1.0000
  H   H12       1.0  0.9728972922389759  0.8682295393024688  0.8834271998107186  1.0000
  H   H13       1.0  0.766004637059112  0.7256661139538989  0.3011338055902897  1.0000
  H   H14       1.0  0.7339952325357544  0.2743366710145665  0.801135651284632  1.0000
  H   H15       1.0  0.2339992568031448  0.27433840703288576  0.6988656283677059  1.0000
  H   H16       1.0  0.2660057093712139  0.7256637639988026  0.1988643831840236  1.0000
  H   H17       1.0  0.8791159976389552  0.8756202130684657  0.3415462961908844  1.0000
  H   H18       1.0  0.6208862595285752  0.124382671197182  0.8415506026499743  1.0000
  H   H19       1.0  0.12088631336406763  0.12438022452637648  0.6584537382765987  1.0000
  H   H20       1.0  0.379114682380994  0.875617763815484  0.1584488313087036  1.0000
  H   H21       1.0  0.6388429717764696  0.8603603896675833  0.3415939358985015  1.0000
  H   H22       1.0  0.861159231544555  0.13964147450437284  0.8415966424984518  1.0000
  H   H23       1.0  0.36116476218105475  0.1396390380475694  0.658403696523962  1.0000
  H   H24       1.0  0.13884028782621977  0.8603579377247286  0.15840339197096404  1.0000
  H   H25       1.0  0.44521279380547446  0.994510501846534  0.7460682587202002  1.0000
  H   H26       1.0  0.054784863926173016  0.0054907460234404  0.2460679264193146  1.0000
  H   H27       1.0  0.5547866186772055  0.005486869979080198  0.25393357727831767  1.0000
  H   H28       1.0  0.9452133397965029  0.9945096838248803  0.7539303065217596  1.0000
  H   H29       1.0  0.7347870784057308  0.09125400454044548  0.5214216233562254  1.0000
  H   H30       1.0  0.7652110037470197  0.9087460807510368  0.0214205449962108  1.0000
  H   H31       1.0  0.2652195002058876  0.9087495014071861  0.478578411108984  1.0000
  H   H32       1.0  0.23478856905868645  0.09125435168225948  0.9785806904935795  1.0000
  H   H33       1.0  0.613531269969414  0.08451723111234338  0.6145644250196298  1.0000
  H   H34       1.0  0.8864671594306017  0.9154789929048092  0.1145643455287413  1.0000
  H   H35       1.0  0.3864777261986703  0.9154801587801061  0.3854344084207781  1.0000
  H   H36       1.0  0.11353109772960582  0.08452245714700271  0.8854344879227227  1.0000
  H   H37       1.0  0.8538181069953625  0.0855884814615564  0.6145221834783712  1.0000
  H   H38       1.0  0.6461857991483557  0.9144077527849815  0.1145237166883959  1.0000
  H   H39       1.0  0.14618710252801753  0.9144150219025063  0.38547604945807723  1.0000
  H   H40       1.0  0.35381777407044274  0.0855906469857572  0.8854763177770837  1.0000
  H   H41       1.0  0.5763927813943185  0.6603349626966235  0.9376709121013533  1.0000
  H   H42       1.0  0.9236084815131633  0.33966508485658403  0.43767204995498343  1.0000
  H   H43       1.0  0.423606684528501  0.3396634293317859  0.062330923897583504  1.0000
  H   H44       1.0  0.0763895618838717  0.6603322843847577  0.562327384004803  1.0000
  H   H45       1.0  0.5736261631064324  0.515103884231948  0.8891676579568824  1.0000
  H   H46       1.0  0.9263728892882955  0.48489808558784386  0.3891695228271673  1.0000
  H   H47       1.0  0.4263733028189876  0.4848945077957579  0.11083357753207682  1.0000
  H   H48       1.0  0.07362115370346342  0.5151013163139596  0.6108293106269971  1.0000
  H   H49       1.0  0.4442763619695853  0.6517950364456554  0.556270921129574  1.0000
  H   H50       1.0  0.05571883510206281  0.3482057615935119  0.056272097977490915  1.0000
  H   H51       1.0  0.55571910354535  0.34820538824391173  0.4437309148737185  1.0000
  H   H52       1.0  0.9442822136851916  0.6517967138254335  0.9437279364920033  1.0000
  H   H53       1.0  0.4359868141597332  0.5084173857248686  0.6058237457909215  1.0000
  H   H54       1.0  0.0640121137368936  0.4915845556818752  0.1058238369602975  1.0000
  H   H55       1.0  0.5640099135787866  0.49158100113849906  0.3941762886804341  1.0000
  H   H56       1.0  0.9359874056364889  0.5084148565465298  0.8941755969991404  1.0000
  C   C1        1.0  0.5117968783712356  0.604363376605427  0.7479248020961577  1.0000
  C   C2        1.0  0.9881992921294014  0.39563825647639567  0.24792527909716713  1.0000
  C   C3        1.0  0.48819979592453683  0.3956339900558418  0.2520758328847563  1.0000
  C   C4        1.0  0.011798911590666697  0.6043621733726211  0.752073554353885  1.0000
  C   C5        1.0  0.4981118960719472  0.6763007548719314  0.819732628458425  1.0000
  C   C6        1.0  0.0018838069004871976  0.3237016822056873  0.3197344761229886  1.0000
  C   C7        1.0  0.5018861473146714  0.32369661437221703  0.18026920754127226  1.0000
  C   C8        1.0  0.9981089204327562  0.6762987373181345  0.680264957842745  1.0000
  C   C9        1.0  0.7642563713646525  0.7431067161541093  0.432393285881176  1.0000
  C   C10       1.0  0.7357465736187764  0.25689842270374186  0.932396313829287  1.0000
  C   C11       1.0  0.23573925449154837  0.2568967691382369  0.5676037460435381  1.0000
  C   C12       1.0  0.26425015411714275  0.7430999641603152  0.0676043211520465  1.0000
  C   C13       1.0  0.47340767710375087  0.8167732284915773  0.8196840718402215  1.0000
  C   C14       1.0  0.026589288516873897  0.1832271706458357  0.3196833480829042  1.0000
  C   C15       1.0  0.5265946338940637  0.18322720910466467  0.1803171636472172  1.0000
  C   C16       1.0  0.9734005937517908  0.8167712033073543  0.6803142843544165  1.0000
  C   C17       1.0  0.47914785534793225  0.8152476073211262  0.6740441828792143  1.0000
  C   C18       1.0  0.0208545879741209  0.18475450073322716  0.174044070864575  1.0000
  C   C19       1.0  0.5208460807505234  0.184749754178597  0.3259576531240072  1.0000
  C   C20       1.0  0.9791465142584885  0.8152489948871134  0.8259547625853828  1.0000
  C   C21       1.0  0.5008773212165211  0.6745400031596988  0.6752925608807843  1.0000
  C   C22       1.0  0.9991181637679034  0.32546247836367564  0.175292955706837  1.0000
  C   C23       1.0  0.4991167217648212  0.32545939874490404  0.3247086746132907  1.0000
  C   C24       1.0  0.0008828315922357866  0.6745389768489858  0.8247040762123561  1.0000
  C   C25       1.0  0.7629202921037646  0.8023465240297583  0.3487086453564672  1.0000
  C   C26       1.0  0.7370819563709362  0.1976573971201319  0.8487116174711105  1.0000
  C   C27       1.0  0.23708338800312845  0.19765391614446057  0.6512895875799103  1.0000
  C   C28       1.0  0.26291761643737743  0.8023430353124611  0.15128901750870236  1.0000
  C   C29       1.0  0.46508321134841424  0.885059398026975  0.7465570073206962  1.0000
  C   C30       1.0  0.034918709756190894  0.11494491933298429  0.24655560704016471  1.0000
  C   C31       1.0  0.5349122541587052  0.11494102666468822  0.25344663021252956  1.0000
  C   C32       1.0  0.9650780714381001  0.8850544877289719  0.7534408243717365  1.0000
  C   C33       1.0  0.7356608168175498  0.12680832087594504  0.5836771085624264  1.0000
  C   C34       1.0  0.7643365648965171  0.8731888488180033  0.0836772005893138  1.0000
  C   C35       1.0  0.264342916726882  0.873193139501765  0.416321724884348  1.0000
  C   C36       1.0  0.2356643235729123  0.1268105659918746  0.9163222333689518  1.0000
  C   C37       1.0  0.7431816897760797  0.28021321261859095  0.5915516587622207  1.0000
  C   C38       1.0  0.7568169392715874  0.7197829577972  0.0915528260810703  1.0000
  C   C39       1.0  0.2568245681972884  0.719784172111609  0.4084477751905241  1.0000
  C   C40       1.0  0.2431896393452391  0.28022054814903896  0.9084460073641836  1.0000
  N   N1        1.0  0.5101817850519766  0.6001226553007585  0.6011217303973311  1.0000
  N   N2        1.0  0.9898142365395659  0.3998776130536683  0.1011222084568146  1.0000
  N   N3        1.0  0.48981636521232036  0.3998767543496697  0.3988807061131752  1.0000
  N   N4        1.0  0.010188127908811899  0.600123844742562  0.8988766249911323  1.0000
  N   N5        1.0  0.504477708191395  0.6043099642358742  0.8947008565771171  1.0000
  N   N6        1.0  0.9955240343890424  0.39569202363561823  0.3947031225822215  1.0000
  N   N7        1.0  0.4955244959261407  0.3956884329547847  0.1053003789094902  1.0000
  N   N8        1.0  0.004474115890886303  0.6043073860106105  0.6052957108684183  1.0000
  O   O1        1.0  0.7580205230176915  0.6089556277379486  0.4372315395047082  1.0000
  O   O2        1.0  0.7419769570639191  0.39105053226160175  0.9372304744204669  1.0000
  O   O3        1.0  0.2419777875670306  0.39104684252085053  0.5627708970070416  1.0000
  O   O4        1.0  0.25802113976283897  0.6089478571853348  0.0627713615796495  1.0000
  O   O5        1.0  0.7456477798919112  0.35023248612878877  0.5241630591064919  1.0000
  O   O6        1.0  0.7543502784699359  0.6497676055500676  0.0241635668715929  1.0000
  O   O7        1.0  0.2543464768499959  0.649770996586973  0.4758381763892459  1.0000
  O   O8        1.0  0.24564787179436115  0.3502318041003535  0.9758388696389135  1.0000
  O   O9        1.0  0.7693066677790625  0.8167880784988312  0.49329643626048636  1.0000
  O   O10       1.0  0.7306973851129115  0.18322230581600962  0.9933012078221921  1.0000
  O   O11       1.0  0.23068737522311983  0.18321132340017948  0.5066999951537667  1.0000
  O   O12       1.0  0.26930750375398566  0.8167750763355102  0.006700628171628901  1.0000
  O   O13       1.0  0.7468911490103736  0.3380457886881061  0.6582617346146549  1.0000
  O   O14       1.0  0.7531029543174697  0.6619535899748711  0.1582610545121028  1.0000
  O   O15       1.0  0.25311126887554286  0.6619566893116157  0.3417376993436818  1.0000
  O   O16       1.0  0.24690757125927834  0.3380468631095185  0.8417395804583165  1.0000
