data_image0
_chemical_formula_structural       Cu2Mo2H18C22N6O10
_chemical_formula_sum              "Cu2 Mo2 H18 C22 N6 O10"
_cell_length_a       6.723944415357478
_cell_length_b       10.060044623748498
_cell_length_c       10.176027587115916
_cell_angle_alpha    79.16560248726684
_cell_angle_beta     77.56146390297434
_cell_angle_gamma    76.24329176554645

_space_group_name_H-M_alt    "P 1"
_space_group_IT_number       1

loop_
  _space_group_symop_operation_xyz
  'x, y, z'

loop_
  _atom_site_type_symbol
  _atom_site_label
  _atom_site_symmetry_multiplicity
  _atom_site_fract_x
  _atom_site_fract_y
  _atom_site_fract_z
  _atom_site_occupancy
  Cu  Cu1       1.0  0.3040866417834494  0.7655412950218405  0.5731840882844849  1.0000
  Cu  Cu2       1.0  0.6958959100958424  0.23446318193855828  0.4268165467305137  1.0000
  Mo  Mo1       1.0  0.1808944643014244  0.15276150826179696  0.49566097866282627  1.0000
  Mo  Mo2       1.0  0.8190966591686221  0.8472398665277225  0.5043380174877967  1.0000
  H   H1        1.0  0.47014536239633753  0.9279592277142468  0.7224571520581192  1.0000
  H   H2        1.0  0.5298561192389853  0.0720432501160246  0.2775313476756409  1.0000
  H   H3        1.0  0.4101077240401096  0.9779635972583661  0.9599399129447617  1.0000
  H   H4        1.0  0.5898974385678244  0.0220367997654733  0.04004942028588229  1.0000
  H   H5        1.0  0.13927288215683117  0.8791385479678268  0.13745741157938338  1.0000
  H   H6        1.0  0.8607410976068197  0.12086282767818801  0.8625354223373306  1.0000
  H   H7        1.0  0.009921460435627697  0.6962493875877699  0.8212682585496296  1.0000
  H   H8        1.0  0.9900671804529821  0.3037550463448611  0.1787354588681538  1.0000
  H   H9        1.0  0.6085024607168704  0.7772634372950051  0.3173698591745904  1.0000
  H   H10       1.0  0.3914906165964781  0.2227512933858904  0.6826353426877816  1.0000
  H   H11       1.0  0.1499048770899805  0.5543403204393371  0.4841313008658048  1.0000
  H   H12       1.0  0.8500736762079625  0.44566727147962837  0.5158683622477723  1.0000
  H   H13       1.0  0.2267308183032526  0.42873235250925024  0.28066240101771456  1.0000
  H   H14       1.0  0.7732714151264801  0.5712576288689704  0.719338032531951  1.0000
  H   H15       1.0  0.5219075208841772  0.47556663691873524  0.09474307561241349  1.0000
  H   H16       1.0  0.47812668359588884  0.5244231455988173  0.9052705870111523  1.0000
  H   H17       1.0  0.882242246518281  0.7624787632688879  0.1862624463311917  1.0000
  H   H18       1.0  0.11776754363607009  0.23751640543362382  0.8137330581778102  1.0000
  C   C1        1.0  0.35477863346808663  0.8863560786493069  0.8015272243677458  1.0000
  C   C2        1.0  0.6452182751578447  0.1136463863932846  0.1984638861317976  1.0000
  C   C3        1.0  0.3207351384338324  0.9125048155945239  0.9347643791861698  1.0000
  C   C4        1.0  0.6792700166712109  0.0874955273591027  0.0652308611259258  1.0000
  C   C5        1.0  0.17103158459290307  0.858794313088282  0.032453822383700995  1.0000
  C   C6        1.0  0.8289878489625836  0.1412090878342269  0.9675418171267366  1.0000
  C   C7        1.0  0.052931516350923954  0.779573255743145  0.9934253116848452  1.0000
  C   C8        1.0  0.947075712925802  0.22043004198917523  0.006584837805107227  1.0000
  C   C9        1.0  0.09647629563143315  0.7558900147423914  0.8573514200374176  1.0000
  C   C10       1.0  0.9035153885113518  0.24411438866465562  0.1426548230953344  1.0000
  C   C11       1.0  0.7603771696078568  0.6578922326819522  0.0729280357863971  1.0000
  C   C12       1.0  0.23964275767225732  0.34209450087842436  0.9270842431252503  1.0000
  C   C13       1.0  0.592006859179641  0.6285886832623433  0.1909916545732172  1.0000
  C   C14       1.0  0.40800266915348266  0.3714022874949946  0.8090115090618184  1.0000
  C   C15       1.0  0.532860361743673  0.6971048030086421  0.3050606587092161  1.0000
  C   C16       1.0  0.46714618778242584  0.3029058762305397  0.694932555818923  1.0000
  C   C17       1.0  0.27230169967990053  0.5730609402535619  0.39784877275476294  1.0000
  C   C18       1.0  0.7276893579987843  0.4269455945396459  0.6021503019739001  1.0000
  C   C19       1.0  0.31665141980012385  0.5037400885978653  0.28564509782302844  1.0000
  C   C20       1.0  0.683337346418803  0.4962539802688752  0.7143633850065568  1.0000
  C   C21       1.0  0.4801731671814126  0.530387041026657  0.18227570036838603  1.0000
  C   C22       1.0  0.5198399675795856  0.4696069458460315  0.8177352669365945  1.0000
  N   N1        1.0  0.24508196538128163  0.8081840657011838  0.765367554734297  1.0000
  N   N2        1.0  0.7549012254669379  0.1918183699900666  0.23463040354904055  1.0000
  N   N3        1.0  0.8952079726886242  0.7325811255110252  0.0920156961948351  1.0000
  N   N4        1.0  0.10479261065750484  0.26741921366662064  0.9079811703694745  1.0000
  N   N5        1.0  0.3779914948369907  0.6680340049113339  0.4069702321345474  1.0000
  N   N6        1.0  0.6220115015477676  0.33196840809178946  0.5930249452813641  1.0000
  O   O1        1.0  0.7700214716821707  0.6157253118197233  0.9643339481377138  1.0000
  O   O2        1.0  0.2299831747861916  0.3842667433839678  0.0356647962635464  1.0000
  O   O3        1.0  0.2479670927489509  0.9821851185560888  0.4573003043121631  1.0000
  O   O4        1.0  0.7520127347353949  0.017818363789473296  0.542696958878814  1.0000
  O   O5        1.0  0.40242592865276094  0.2310982593491744  0.4414151563160331  1.0000
  O   O6        1.0  0.5975667878629026  0.7688979807265142  0.5585805938029437  1.0000
  O   O7        1.0  0.9809574691238583  0.2589822925543288  0.40486863814016516  1.0000
  O   O8        1.0  0.019032443450186124  0.7410180137814988  0.5951346483821709  1.0000
  O   O9        1.0  0.10295795701834008  0.1559910415191297  0.6721256382577039  1.0000
  O   O10       1.0  0.8970350038118087  0.8440092703379133  0.3278762359252951  1.0000
