data_image0
_chemical_formula_structural       AlH15C33S3O15
_chemical_formula_sum              "Al1 H15 C33 S3 O15"
_cell_length_a       4.266999966261926
_cell_length_b       20.32302780168135
_cell_length_c       20.355273880849378
_cell_angle_alpha    60.088888775904095
_cell_angle_beta     88.06711717008484
_cell_angle_gamma    88.0013843403009

_space_group_name_H-M_alt    "P 1"
_space_group_IT_number       1

loop_
  _space_group_symop_operation_xyz
  'x, y, z'

loop_
  _atom_site_type_symbol
  _atom_site_label
  _atom_site_symmetry_multiplicity
  _atom_site_fract_x
  _atom_site_fract_y
  _atom_site_fract_z
  _atom_site_occupancy
  Al  Al1       1.0  0.09131224765751969  0.49870654859128655  0.4995169229433074  1.0000
  H   H1        1.0  0.881676825306357  0.30875551496670534  0.704788123122981  1.0000
  H   H2        1.0  0.869012794511704  0.23435456024068904  0.8465777891108105  1.0000
  H   H3        1.0  0.29930651287908455  0.7081023497436545  0.3089275291994441  1.0000
  H   H4        1.0  0.30861863578999765  0.8504190123846554  0.2367117272145195  1.0000
  H   H5        1.0  0.3134297020731154  0.3116224180802261  0.4817348855497915  1.0000
  H   H6        1.0  0.3151282316745707  0.23926254821485313  0.41172459955098634  1.0000
  H   H7        1.0  0.8585456868218558  0.7047853086433733  0.48232575012547596  1.0000
  H   H8        1.0  0.8416050878034937  0.846872002962513  0.4149693538890774  1.0000
  H   H9        1.0  0.28029137962948886  0.48075420424851245  0.709172517643552  1.0000
  H   H10       1.0  0.2936501255600845  0.4110184911240892  0.8512066184180682  1.0000
  H   H11       1.0  0.9164808054307728  0.47751616135148106  0.3096884655997273  1.0000
  H   H12       1.0  0.8947354973379403  0.4100811287158166  0.2353104865173847  1.0000
  H   H13       1.0  0.9050254673728801  0.027105863325679998  0.36727257361771853  1.0000
  H   H14       1.0  0.9120164225798317  0.366603533886419  0.10997876419787644  1.0000
  H   H15       1.0  0.9373246000689334  0.10854012264050539  0.02453632484019151  1.0000
  C   C1        1.0  0.5830738708158377  0.4413136338841142  0.6144097817290586  1.0000
  C   C2        1.0  0.6095481414121338  0.4411702567378127  0.44187802860807324  1.0000
  C   C3        1.0  0.5818769197691864  0.6138058069892054  0.44184421742264146  1.0000
  C   C4        1.0  0.749692841245519  0.32979544215787365  0.7375223060794698  1.0000
  C   C5        1.0  0.744442112416543  0.2887590216075182  0.816169302753352  1.0000
  C   C6        1.0  0.422202390773883  0.7391227058939192  0.3307120698655768  1.0000
  C   C7        1.0  0.4253339148765888  0.8178744934042541  0.29086011087525787  1.0000
  C   C8        1.0  0.44460750411697353  0.33160430373667527  0.4285799548858763  1.0000
  C   C9        1.0  0.44375608220717316  0.29173014361510496  0.389731944343616  1.0000
  C   C10       1.0  0.7349155077093529  0.737382832261943  0.42922167268813644  1.0000
  C   C11       1.0  0.7272006490668375  0.8161347310771844  0.39164911792401125  1.0000
  C   C12       1.0  0.412945777840612  0.4275694392224664  0.7398884420743814  1.0000
  C   C13       1.0  0.41830782847214454  0.3888543915148617  0.818508705039726  1.0000
  C   C14       1.0  0.7815811814800425  0.42607118827974944  0.3307454303604587  1.0000
  C   C15       1.0  0.7708143665792447  0.38849377340884667  0.28961261690160717  1.0000
  C   C16       1.0  0.5811066020000126  0.39878273018204874  0.6989207125447692  1.0000
  C   C17       1.0  0.580713074642027  0.318311581526025  0.85747315051934  1.0000
  C   C18       1.0  0.5665697956888421  0.2778454070784662  0.9373556001952964  1.0000
  C   C19       1.0  0.5251312290862628  0.24599399295870938  0.005824961646432317  1.0000
  C   C20       1.0  0.48689232833113033  0.2071207531418864  0.08512572090818792  1.0000
  C   C21       1.0  0.5792896354928699  0.6984222242035611  0.39965620604996843  1.0000
  C   C22       1.0  0.573912799305056  0.8572247735096922  0.321715508420681  1.0000
  C   C23       1.0  0.5568415507175357  0.9372133787200739  0.28281020798027606  1.0000
  C   C24       1.0  0.5145457722638938  0.005809694117026298  0.24700214017080677  1.0000
  C   C25       1.0  0.4797901872742828  0.0853332138632652  0.20676657540928298  1.0000
  C   C26       1.0  0.6138259298098417  0.39878707025576426  0.3995886737695288  1.0000
  C   C27       1.0  0.601518577811561  0.32082696491816876  0.31882773161037653  1.0000
  C   C28       1.0  0.5741947487698695  0.2824977850778581  0.2776746106785524  1.0000
  C   C29       1.0  0.5199524476392128  0.24707406994102846  0.24567662162777995  1.0000
  C   C30       1.0  0.4803835007705715  0.20716220893077517  0.20673936907154203  1.0000
  C   C31       1.0  0.47418179311679853  0.1265656481641173  0.12637102004241293  1.0000
  C   C32       1.0  0.46228753559230995  0.12688704680776652  0.24595561021939014  1.0000
  C   C33       1.0  0.4710241761310029  0.2465051362710895  0.12635653678539424  1.0000
  S   S1        1.0  0.3515764547441051  0.0797587959589308  0.34511082220332423  1.0000
  S   S2        1.0  0.3692732241894062  0.346433462642814  0.07694470135027133  1.0000
  S   S3        1.0  0.3856330356351804  0.07667861744872786  0.07690187297251333  1.0000
  O   O1        1.0  0.35358210917802774  0.581592836224253  0.43078312044443834  1.0000
  O   O2        1.0  0.34614930555892437  0.48479888850165054  0.5824061598565181  1.0000
  O   O3        1.0  0.372887157790629  0.43057134217345794  0.4860878429043823  1.0000
  O   O4        1.0  0.8125731909409453  0.5806880085271755  0.4857699966606433  1.0000
  O   O5        1.0  0.8403961858656073  0.48426499239234744  0.4305304983468048  1.0000
  O   O6        1.0  0.8227299850191655  0.4303548146861971  0.5813241655261123  1.0000
  O   O7        1.0  0.6187727862057314  0.039976759436932185  0.3932534088011366  1.0000
  O   O8        1.0  0.18414365685398337  0.13325306570489912  0.3603080551119789  1.0000
  O   O9        1.0  0.13379372381022847  0.017638238101753197  0.3514802479389516  1.0000
  O   O10       1.0  0.6349800200085056  0.39280868325835877  0.07026375456624831  1.0000
  O   O11       1.0  0.2187183822157834  0.36465539008840153  0.007874182862153077  1.0000
  O   O12       1.0  0.13653138212819724  0.3518560679146603  0.13406327796811726  1.0000
  O   O13       1.0  0.6613972540033899  0.06987067318242168  0.036023371212174006  1.0000
  O   O14       1.0  0.2321823185084284  0.007506938240503301  0.1284705939553277  1.0000
  O   O15       1.0  0.15869861043359632  0.13362085289455908  0.015969938551442915  1.0000
