data_image0
_chemical_formula_structural       Co6H36C36N24O12
_chemical_formula_sum              "Co6 H36 C36 N24 O12"
_cell_length_a       12.001157423035487
_cell_length_b       12.001190092968812
_cell_length_c       12.001072522461763
_cell_angle_alpha    95.93138993942388
_cell_angle_beta     95.93265903260664
_cell_angle_gamma    95.93146438803201

_space_group_name_H-M_alt    "P 1"
_space_group_IT_number       1

loop_
  _space_group_symop_operation_xyz
  'x, y, z'

loop_
  _atom_site_type_symbol
  _atom_site_label
  _atom_site_symmetry_multiplicity
  _atom_site_fract_x
  _atom_site_fract_y
  _atom_site_fract_z
  _atom_site_occupancy
  Co  Co1       1.0  0.829387912432125  0.548528145083324  0.2601386490140739  1.0000
  Co  Co2       1.0  0.2601355803133599  0.8293847443742663  0.5485203305427503  1.0000
  Co  Co3       1.0  0.5485273386674477  0.2601219053795205  0.8293929236216326  1.0000
  Co  Co4       1.0  0.17060498049857392  0.4514682765936655  0.7398868520957861  1.0000
  Co  Co5       1.0  0.7398774222729189  0.17061630936241565  0.4514668233556519  1.0000
  Co  Co6       1.0  0.4514773133760315  0.7398782904225597  0.17061747092916588  1.0000
  H   H1        1.0  0.19468603281245583  0.6303795300824004  0.12519965505277494  1.0000
  H   H2        1.0  0.12520037927794186  0.1946769677558748  0.6303816932169112  1.0000
  H   H3        1.0  0.630375854889472  0.12520301833426123  0.19468165892729417  1.0000
  H   H4        1.0  0.805328695641805  0.3696275955134709  0.8747932809210608  1.0000
  H   H5        1.0  0.87478578454823  0.8053370880138288  0.3696299032514574  1.0000
  H   H6        1.0  0.36963213452361293  0.8747925080828979  0.8053236023961998  1.0000
  H   H7        1.0  0.09825539531833269  0.5541132959557585  0.010995570801554791  1.0000
  H   H8        1.0  0.010995664943536099  0.09824723419999506  0.5541098205317211  1.0000
  H   H9        1.0  0.5541117934433188  0.010998120786780417  0.09825293294784392  1.0000
  H   H10       1.0  0.9017728355619071  0.4459045279728429  0.988992294304225  1.0000
  H   H11       1.0  0.9889863464612176  0.9017789396854496  0.44590757480227683  1.0000
  H   H12       1.0  0.4459113905724478  0.9889907635369607  0.9017665190101308  1.0000
  H   H13       1.0  0.4165533638711453  0.8083673663492307  0.40122966161251117  1.0000
  H   H14       1.0  0.4012282131829323  0.4165383840689571  0.8083729165749529  1.0000
  H   H15       1.0  0.8083724382576706  0.40122191858674233  0.41655720674156527  1.0000
  H   H16       1.0  0.5834553913810581  0.19162734189136899  0.5987539295144869  1.0000
  H   H17       1.0  0.5987663183685186  0.5834681972362218  0.19162877040872664  1.0000
  H   H18       1.0  0.19161698038157476  0.5987464727695339  0.5834659663115785  1.0000
  H   H19       1.0  0.8685330523009042  0.6662672186091497  0.527019873737295  1.0000
  H   H20       1.0  0.5270282773145425  0.8685196249138227  0.6662559396688719  1.0000
  H   H21       1.0  0.6662567271626542  0.527017977954131  0.8685238710500867  1.0000
  H   H22       1.0  0.13148331337576016  0.33373754092202995  0.4729613233757845  1.0000
  H   H23       1.0  0.4729536600296242  0.13149896054417096  0.3337473545038278  1.0000
  H   H24       1.0  0.33374198287842916  0.4729606471173326  0.13149542845312107  1.0000
  H   H25       1.0  0.990357937760386  0.736279489800573  0.6149529036996524  1.0000
  H   H26       1.0  0.6149560106488892  0.9903563522970985  0.7362748818258494  1.0000
  H   H27       1.0  0.7362711047230377  0.6149455001908635  0.9903538793476441  1.0000
  H   H28       1.0  0.0096441181462623  0.26372787248701  0.3850304516028657  1.0000
  H   H29       1.0  0.3850275928249403  0.009652381341496206  0.2637325905880629  1.0000
  H   H30       1.0  0.2637275555587308  0.38502973545094926  0.009654242577845197  1.0000
  H   H31       1.0  0.9656007253557135  0.5867436885322163  0.5968093299033085  1.0000
  H   H32       1.0  0.5968161222689262  0.9655977130325651  0.5867315781190499  1.0000
  H   H33       1.0  0.5867363538137624  0.5968110860931047  0.9655950116883073  1.0000
  H   H34       1.0  0.034407229976309794  0.41326933791951576  0.40316851965644657  1.0000
  H   H35       1.0  0.40317169137730957  0.03440897951459479  0.41327694526169256  1.0000
  H   H36       1.0  0.41326906297557287  0.40316825156462255  0.03441336662692151  1.0000
  C   C1        1.0  0.023174502506243796  0.6606281656714827  0.45457578104974045  1.0000
  C   C2        1.0  0.4545818146135049  0.023171276935734425  0.6606218082635847  1.0000
  C   C3        1.0  0.6606154824315453  0.45457281360081225  0.02316291296115484  1.0000
  C   C4        1.0  0.9768377299188203  0.3393862262305944  0.5454193000984445  1.0000
  C   C5        1.0  0.5454110628381343  0.9768384885583359  0.3393858651086602  1.0000
  C   C6        1.0  0.33937639243539053  0.5454058057797937  0.9768290354726259  1.0000
  C   C7        1.0  0.0378653888094149  0.5826496250532427  0.16375459662575048  1.0000
  C   C8        1.0  0.1637578130420678  0.0378519597180471  0.5826425577487128  1.0000
  C   C9        1.0  0.5826522685868697  0.1637593321324218  0.037851924754946344  1.0000
  C   C10       1.0  0.9621585438629907  0.41734677349307253  0.8362298539680066  1.0000
  C   C11       1.0  0.8362240676867215  0.9621598896609527  0.4173508888782606  1.0000
  C   C12       1.0  0.4173531513254146  0.8362291931249004  0.9621482098487845  1.0000
  C   C13       1.0  0.06564316181433577  0.6263905775719678  0.2825008556097045  1.0000
  C   C14       1.0  0.282509321179326  0.0656288110365395  0.6263847418917547  1.0000
  C   C15       1.0  0.6263928076474414  0.28250385353250346  0.06563499739267088  1.0000
  C   C16       1.0  0.9343782596760661  0.3736105673114736  0.7174838192401295  1.0000
  C   C17       1.0  0.7174810050472614  0.9343856608663758  0.37361148196750793  1.0000
  C   C18       1.0  0.3736092300258065  0.7174751021639096  0.9343713369507325  1.0000
  C   C19       1.0  0.16114117317854237  0.6815109831772402  0.35055630616282224  1.0000
  C   C20       1.0  0.350553517160307  0.161134199707476  0.6815185769084023  1.0000
  C   C21       1.0  0.6815079858548215  0.3505564144980865  0.1611347849399252  1.0000
  C   C22       1.0  0.8388684694614595  0.31848720285329085  0.6494368889332234  1.0000
  C   C23       1.0  0.6494343204821218  0.8388842061124039  0.3184852913604103  1.0000
  C   C24       1.0  0.3184746613655988  0.649422889132019  0.8388688051292232  1.0000
  C   C25       1.0  0.27531677185249487  0.7226563068668455  0.33043583850557207  1.0000
  C   C26       1.0  0.33043269362534744  0.2753154731690302  0.7226667130827238  1.0000
  C   C27       1.0  0.7226546747951161  0.33043223182384196  0.27531417810700276  1.0000
  C   C28       1.0  0.7246835985342983  0.2773375092149095  0.6695609871860667  1.0000
  C   C29       1.0  0.6695585411461876  0.7247058374332696  0.2773419539168458  1.0000
  C   C30       1.0  0.277327129644199  0.6695486482145937  0.7246878190328799  1.0000
  C   C31       1.0  0.9582043181451352  0.6628036990317625  0.5537956491228611  1.0000
  C   C32       1.0  0.5538023669726825  0.9581958790715034  0.6627941435836745  1.0000
  C   C33       1.0  0.6627940495620946  0.5537911283473634  0.9581943160600725  1.0000
  C   C34       1.0  0.041807861376483395  0.33720646535231674  0.44618817003527766  1.0000
  C   C35       1.0  0.4461829454917278  0.0418197445504802  0.33721335843348743  1.0000
  C   C36       1.0  0.33720630571424687  0.4461834687428166  0.0418172449609457  1.0000
  N   N1        1.0  0.13306582140535989  0.7029820284418804  0.45840721686062835  1.0000
  N   N2        1.0  0.45840614272228214  0.13305857489444864  0.7029854690496007  1.0000
  N   N3        1.0  0.7029685320085479  0.45841038296735104  0.1330649830350765  1.0000
  N   N4        1.0  0.8669379300636704  0.2970263657667259  0.5415780786807785  1.0000
  N   N5        1.0  0.5415715264357529  0.8669427898830975  0.29701900187595237  1.0000
  N   N6        1.0  0.2970056903034076  0.541567988575629  0.8669401678296678  1.0000
  N   N7        1.0  0.9798919008664554  0.6140344058322497  0.3496351757275704  1.0000
  N   N8        1.0  0.3496489770457458  0.9798903171713319  0.6140323995700994  1.0000
  N   N9        1.0  0.6140397428929489  0.3496417011132849  0.9798886226399898  1.0000
  N   N10       1.0  0.0201210659776834  0.38596243749855574  0.650345719224667  1.0000
  N   N11       1.0  0.6503405438452957  0.020134952963758185  0.38596399373614076  1.0000
  N   N12       1.0  0.3859614542916106  0.6503371633708284  0.02011845147142572  1.0000
  N   N13       1.0  0.11546664667869778  0.5918155031611363  0.09291992924299557  1.0000
  N   N14       1.0  0.09292236191842558  0.11545306817609459  0.5918108358270898  1.0000
  N   N15       1.0  0.5918111279695709  0.092922288385644  0.11545138685531238  1.0000
  N   N16       1.0  0.8845565252648625  0.4081967478156158  0.9070727018375349  1.0000
  N   N17       1.0  0.907065482601233  0.8845603347818808  0.40820003053357096  1.0000
  N   N18       1.0  0.4082069521765632  0.9070718325741465  0.8845489132182819  1.0000
  N   N19       1.0  0.33741345756124014  0.7802586136147981  0.41900232333574644  1.0000
  N   N20       1.0  0.41899418555370005  0.3374037811870566  0.7802677306794406  1.0000
  N   N21       1.0  0.7802587396294954  0.41899663183956193  0.3374139593366507  1.0000
  N   N22       1.0  0.6625919734868333  0.2197374373255272  0.5809935679350601  1.0000
  N   N23       1.0  0.5809952830440608  0.6626022328801966  0.21973255802778616  1.0000
  N   N24       1.0  0.21971804847133572  0.5809862323022514  0.6625977326921627  1.0000
  O   O1        1.0  0.9367630376623383  0.5357695252635608  0.13134242095915039  1.0000
  O   O2        1.0  0.13135426093103317  0.9367571612682752  0.5357565162619194  1.0000
  O   O3        1.0  0.535777922228938  0.13135711835934674  0.9367481257228573  1.0000
  O   O4        1.0  0.06326169975661601  0.46422275408917807  0.8686350309204369  1.0000
  O   O5        1.0  0.8686427877644151  0.06326221366264664  0.4642292084710107  1.0000
  O   O6        1.0  0.46423935371727504  0.8686511417779241  0.06324934608444718  1.0000
  O   O7        1.0  0.3062163700076326  0.7018538605370778  0.23039818643419346  1.0000
  O   O8        1.0  0.2304081235637625  0.3062274870367787  0.7018683803428586  1.0000
  O   O9        1.0  0.7018616494126277  0.2303969302509472  0.3062195316679421  1.0000
  O   O10       1.0  0.6937671385535465  0.2981364094897003  0.7695999243426852  1.0000
  O   O11       1.0  0.7696042255200767  0.6938020503479693  0.29814573088079743  1.0000
  O   O12       1.0  0.2981344436395688  0.7695779861216461  0.6937774681112426  1.0000
