data_image0
_chemical_formula_structural       Zn8H40C84N8O34
_chemical_formula_sum              "Zn8 H40 C84 N8 O34"
_cell_length_a       18.352279334063294
_cell_length_b       18.347188898126152
_cell_length_c       21.598151182907344
_cell_angle_alpha    115.11617675221547
_cell_angle_beta     115.14657561564242
_cell_angle_gamma    90.01136086366515

_space_group_name_H-M_alt    "P 1"
_space_group_IT_number       1

loop_
  _space_group_symop_operation_xyz
  'x, y, z'

loop_
  _atom_site_type_symbol
  _atom_site_label
  _atom_site_symmetry_multiplicity
  _atom_site_fract_x
  _atom_site_fract_y
  _atom_site_fract_z
  _atom_site_occupancy
  Zn  Zn1       1.0  0.19517539266602316  0.7825606341182124  0.5653393268119729  1.0000
  Zn  Zn2       1.0  0.8048182967440313  0.21743229714810752  0.4346522112921462  1.0000
  Zn  Zn3       1.0  0.7825701677431808  0.3702784379603942  0.5654489309016668  1.0000
  Zn  Zn4       1.0  0.21741904873400134  0.6297155422241119  0.4345319605526115  1.0000
  Zn  Zn5       1.0  0.3702727548026134  0.7827431765790751  0.5655033341435428  1.0000
  Zn  Zn6       1.0  0.6297199570984732  0.2172590734499097  0.4344940133697861  1.0000
  Zn  Zn7       1.0  0.7827758930493689  0.19509379990090991  0.5653458647116097  1.0000
  Zn  Zn8       1.0  0.21723378239035188  0.8049011408122271  0.4346406822094551  1.0000
  H   H1        1.0  0.04460920794357293  0.9500671979980242  0.5984006461393961  1.0000
  H   H2        1.0  0.5518155443261108  0.9404752508064363  0.5910143847334764  1.0000
  H   H3        1.0  0.349466318485412  0.44843822639251846  0.4091417217886999  1.0000
  H   H4        1.0  0.6505389014139739  0.5515604245879899  0.5908298752939487  1.0000
  H   H5        1.0  0.9608691431326264  0.34942234969850733  0.409334337801269  1.0000
  H   H6        1.0  0.039116579578937764  0.6505720729900588  0.590656018825804  1.0000
  H   H7        1.0  0.05945092966334199  0.960948146186951  0.40899149904533527  1.0000
  H   H8        1.0  0.9405473752853056  0.03904370009794887  0.5909997193931957  1.0000
  H   H9        1.0  0.9553921596500601  0.049924961455708725  0.40158684736196204  1.0000
  H   H10       1.0  0.9499936848643387  0.5543286504207786  0.5983066658146114  1.0000
  H   H11       1.0  0.049995901183564256  0.4456687830931828  0.4016875552976913  1.0000
  H   H12       1.0  0.554224597288972  0.6483154405731569  0.5984197452546243  1.0000
  H   H13       1.0  0.44578817825423306  0.3516900874735569  0.40155508939854206  1.0000
  H   H14       1.0  0.6483383351749128  0.04441454290601145  0.5984201993097785  1.0000
  H   H15       1.0  0.35169627307029583  0.9555743259050545  0.401593760585115  1.0000
  H   H16       1.0  0.4482130978923139  0.05951899327211412  0.4090016289101613  1.0000
  H   H17       1.0  0.6593599083646212  0.9165855439441662  0.20178509030635186  1.0000
  H   H18       1.0  0.6851873636465128  0.01164812210215162  0.28838106380801776  1.0000
  H   H19       1.0  0.7654408734616852  0.9675342225003762  0.26933105208129143  1.0000
  H   H20       1.0  0.314833010459566  0.9883386561004742  0.7116556862282125  1.0000
  H   H21       1.0  0.34064094262893024  0.08340538397838056  0.7982345963697669  1.0000
  H   H22       1.0  0.23455833391702202  0.03244843606593406  0.7306740311269024  1.0000
  H   H23       1.0  0.9167468481786897  0.5418756737670238  0.20204743345442477  1.0000
  H   H24       1.0  0.011847004293677856  0.6027946683844903  0.28854377671079595  1.0000
  H   H25       1.0  0.9682023782026905  0.5032999368377348  0.26949141165447793  1.0000
  H   H26       1.0  0.9882128466592802  0.3972270206458006  0.7115077746092452  1.0000
  H   H27       1.0  0.08328090670502063  0.45815639788686724  0.7980411291618097  1.0000
  H   H28       1.0  0.031877084938848846  0.4967366298108617  0.7305871637432092  1.0000
  H   H29       1.0  0.5431998218953568  0.28572752422208947  0.20186724299692577  1.0000
  H   H30       1.0  0.6039690265413143  0.2771722003156755  0.2884468285694837  1.0000
  H   H31       1.0  0.5046644476890095  0.3022281886881189  0.269400070962206  1.0000
  H   H32       1.0  0.3960147424606007  0.7228547866333486  0.7115390996366315  1.0000
  H   H33       1.0  0.4567712963319651  0.7142105143070054  0.7980683962327646  1.0000
  H   H34       1.0  0.49530894480015775  0.6977769577514367  0.7305446215533494  1.0000
  H   H35       1.0  0.2848027150529263  0.6601034184686939  0.2016577366572393  1.0000
  H   H36       1.0  0.27655966142081223  0.6856334648402724  0.2883185905353969  1.0000
  H   H37       1.0  0.30118513862250756  0.7661064599317984  0.2692628772910055  1.0000
  H   H38       1.0  0.7234693546038573  0.3143465818457472  0.7116305282602582  1.0000
  H   H39       1.0  0.7151149689989255  0.33984695284970456  0.7982367871694436  1.0000
  H   H40       1.0  0.6988109466835013  0.23385672315375675  0.7306532995815544  1.0000
  C   C1        1.0  0.6343751455662668  0.041249355704778286  0.16484912821873374  1.0000
  C   C2        1.0  0.36561217959998543  0.9587237994108339  0.8351638185929319  1.0000
  C   C3        1.0  0.9168563224429745  0.40544398695480066  0.9170927650091016  1.0000
  C   C4        1.0  0.5944019331030718  0.9994694683400099  0.08284237960790364  1.0000
  C   C5        1.0  0.4055759985943512  0.0004978954231801848  0.9171704281855  1.0000
  C   C6        1.0  0.9995546778763611  0.48844582000772613  0.0828701491765784  1.0000
  C   C7        1.0  0.0004099141092695922  0.511579582027956  0.917124983801564  1.0000
  C   C8        1.0  0.4888209988597866  0.0836386282902453  0.08288860882783666  1.0000
  C   C9        1.0  0.5111534998868522  0.9163283452938632  0.9171244676231183  1.0000
  C   C10       1.0  0.08308438014086765  0.5946056952130976  0.08290129972366601  1.0000
  C   C11       1.0  0.04124498067951521  0.5305764970609629  0.16488143960427948  1.0000
  C   C12       1.0  0.9420115606241808  0.04926728826092136  0.49579803179877774  1.0000
  C   C13       1.0  0.05799382616045522  0.9507323084762122  0.5041971843941652  1.0000
  C   C14       1.0  0.04930218171950439  0.553580827423339  0.4956377681819646  1.0000
  C   C15       1.0  0.9506745796721033  0.44642135953799317  0.5043460907588511  1.0000
  C   C16       1.0  0.5536191348282458  0.44640313965191336  0.49568198996471585  1.0000
  C   C17       1.0  0.4463806709545324  0.5535996192457519  0.5043138140215646  1.0000
  C   C18       1.0  0.4464862880279342  0.9420064756832078  0.4957612998002078  1.0000
  C   C19       1.0  0.958728681636842  0.46942941386488013  0.8351135131720613  1.0000
  C   C20       1.0  0.5535444018548858  0.057969053981835834  0.5042401018931599  1.0000
  C   C21       1.0  0.5207728383324123  0.020744145024870955  0.04138116576512374  1.0000
  C   C22       1.0  0.5310609635513117  0.12397053614205338  0.16488173068083975  1.0000
  C   C23       1.0  0.47919609771500393  0.9792226685564459  0.9586393061477947  1.0000
  C   C24       1.0  0.020607924446274194  0.5207392465889243  0.04137728091355087  1.0000
  C   C25       1.0  0.9793399163516413  0.4793014669028183  0.9586214578227086  1.0000
  C   C26       1.0  0.38074392985941335  0.16853561883512214  0.0779004569830235  1.0000
  C   C27       1.0  0.6192229906221772  0.8314322082114461  0.9221007177035219  1.0000
  C   C28       1.0  0.1673463908017682  0.6981620550450816  0.07785739545867902  1.0000
  C   C29       1.0  0.46891332460774754  0.8759993702807165  0.8351280487934857  1.0000
  C   C30       1.0  0.8325472313579426  0.3019334673645915  0.9221420207194555  1.0000
  C   C31       1.0  0.6972770433436963  0.9093888182873613  0.07774850999657443  1.0000
  C   C32       1.0  0.30269840688216487  0.09057499191560225  0.9222593471832495  1.0000
  C   C33       1.0  0.9101058553685702  0.37988501335318875  0.07777247947525717  1.0000
  C   C34       1.0  0.08982964931311717  0.6201753622629839  0.922234898423639  1.0000
  C   C35       1.0  0.12331767239611227  0.6345116260148915  0.16492608621338434  1.0000
  C   C36       1.0  0.7028721308295333  0.976778214764167  0.24311756735234982  1.0000
  C   C37       1.0  0.29713571753569573  0.02321471552433958  0.7569072678319273  1.0000
  C   C38       1.0  0.9770791376326926  0.539813062003532  0.2432604309787436  1.0000
  C   C39       1.0  0.02296252882523232  0.4602131208508809  0.7567988484151158  1.0000
  C   C40       1.0  0.5410240849772948  0.26682560900390934  0.24317604566348894  1.0000
  C   C41       1.0  0.4589604988487963  0.7331664102498794  0.7567940398379561  1.0000
  C   C42       1.0  0.265955181372064  0.7034246510114671  0.24306895637403161  1.0000
  C   C43       1.0  0.8766499648419528  0.3655114278404384  0.8350696250161675  1.0000
  C   C44       1.0  0.7340294236970167  0.2965505408021444  0.7568684432824497  1.0000
  C   C45       1.0  0.6030801297277861  0.10294446184078514  0.20558080533488976  1.0000
  C   C46       1.0  0.39689597141668315  0.8970241461742463  0.7944221477754638  1.0000
  C   C47       1.0  0.10261521978638663  0.6029089302206075  0.20563043872378742  1.0000
  C   C48       1.0  0.8973618397855745  0.3970980316984408  0.7943617409149651  1.0000
  C   C49       1.0  0.4149892078409536  0.10483298104371393  0.04048103496489118  1.0000
  C   C50       1.0  0.5849868033304733  0.8951406553258681  0.9595255303237451  1.0000
  C   C51       1.0  0.10407961886599536  0.6260825650971283  0.040423605557805234  1.0000
  C   C52       1.0  0.895844804854676  0.37397023559897496  0.9595683677529652  1.0000
  C   C53       1.0  0.6255707535449488  0.9356633973759969  0.040362880202273674  1.0000
  C   C54       1.0  0.37441277535673845  0.0643098336513006  0.959649354559005  1.0000
  C   C55       1.0  0.9361550437077923  0.41445005946196306  0.040407770727625844  1.0000
  C   C56       1.0  0.06379686594723209  0.5855804445208078  0.959581462570611  1.0000
  C   C57       1.0  0.14616239815386922  0.6463188844129135  0.29267888158803146  1.0000
  C   C58       1.0  0.85383454664116  0.3536717575906466  0.7073109763155189  1.0000
  C   C59       1.0  0.6465281973778404  0.14644605911072966  0.29262389014886736  1.0000
  C   C60       1.0  0.35345382427090055  0.8535330192571282  0.7073751096319967  1.0000
  C   C61       1.0  0.10349026840631848  0.6111031330882284  0.4924702389140521  1.0000
  C   C62       1.0  0.8964956760415532  0.388905170870899  0.5075314463040073  1.0000
  C   C63       1.0  0.6112146470740923  0.3891530833535199  0.4925775597789439  1.0000
  C   C64       1.0  0.3888004552892427  0.6108632759002077  0.5074187330846911  1.0000
  C   C65       1.0  0.3892557503735857  0.8812807108646581  0.4926886871681262  1.0000
  C   C66       1.0  0.6107925734854476  0.11871876141834294  0.5073488670883961  1.0000
  C   C67       1.0  0.8812824127129345  0.1034076527361165  0.4927210531626613  1.0000
  C   C68       1.0  0.1187262004734606  0.8965912432163706  0.507287882728363  1.0000
  C   C69       1.0  0.024741671985033502  0.972363554480154  0.55567427671604  1.0000
  C   C70       1.0  0.9752576228114409  0.027629419075829345  0.44431484597785  1.0000
  C   C71       1.0  0.9722870073167943  0.5312302274846066  0.555609487270914  1.0000
  C   C72       1.0  0.02768992197518834  0.4687691443511782  0.4443726885947967  1.0000
  C   C73       1.0  0.5311716996538678  0.5833171788434726  0.555684877978031  1.0000
  C   C74       1.0  0.468833815472408  0.4166816801913455  0.4443098495631119  1.0000
  C   C75       1.0  0.5833241165599218  0.02463584907223998  0.5556829844941049  1.0000
  C   C76       1.0  0.41670779814286624  0.9753410794754417  0.44431779081435246  1.0000
  C   C77       1.0  0.4700590219876943  0.033104778692233994  0.4485539295747074  1.0000
  C   C78       1.0  0.5299779770078388  0.966877976172562  0.5514537827374255  1.0000
  C   C79       1.0  0.41543042734508623  0.47013980350715917  0.44862046504227493  1.0000
  C   C80       1.0  0.584572092488017  0.5298614445329406  0.5513657110638732  1.0000
  C   C81       1.0  0.9785371815846915  0.4154118061202965  0.44873398934931435  1.0000
  C   C82       1.0  0.02143455173036565  0.5845885147690881  0.5512473083543412  1.0000
  C   C83       1.0  0.033063009668531235  0.9785702663348418  0.4485245322802598  1.0000
  C   C84       1.0  0.9669367523988087  0.021418298977849283  0.5514669100866527  1.0000
  N   N1        1.0  0.34809940877426016  0.22026303811291117  0.10141878937480442  1.0000
  N   N2        1.0  0.6518740818219159  0.7797061303634223  0.8985895751521582  1.0000
  N   N3        1.0  0.2186497843698731  0.7548016522691015  0.10152187122920253  1.0000
  N   N4        1.0  0.7812239525667694  0.24531019005605256  0.8984798666841269  1.0000
  N   N5        1.0  0.7534591223829777  0.8812311631998284  0.10137555756539028  1.0000
  N   N6        1.0  0.24649116830426018  0.11870972031531579  0.8986342884279566  1.0000
  N   N7        1.0  0.8821471353491293  0.34682970209635783  0.10118137999001689  1.0000
  N   N8        1.0  0.11776249130476679  0.6532438282232534  0.8988161531562682  1.0000
  O   O1        1.0  0.25004252139154914  0.7499589453481265  0.49999118081737487  1.0000
  O   O2        1.0  0.8204560033227752  0.39702209636146085  0.6745482982239112  1.0000
  O   O3        1.0  0.6031709501232216  0.14609186443360772  0.3254072828832265  1.0000
  O   O4        1.0  0.3968112165246112  0.8538925139003339  0.6745967984356511  1.0000
  O   O5        1.0  0.14565862979518585  0.7224126034526323  0.3256235838683068  1.0000
  O   O6        1.0  0.85436242671112  0.2775849427436157  0.67437249701063  1.0000
  O   O7        1.0  0.7227059925530526  0.17964784932658526  0.32552138359859134  1.0000
  O   O8        1.0  0.2772731350861692  0.8203247244276711  0.6744697846659378  1.0000
  O   O9        1.0  0.17952567001134417  0.6029547734170322  0.32542936980699727  1.0000
  O   O10       1.0  0.7499501451489224  0.25003847092760617  0.5000005675977802  1.0000
  O   O11       1.0  0.1307900202442839  0.5792147741390751  0.4435006031419918  1.0000
  O   O12       1.0  0.8692153103372605  0.42079893453315265  0.5565149210374685  1.0000
  O   O13       1.0  0.5793750363077662  0.3128975240800074  0.4434696610243094  1.0000
  O   O14       1.0  0.4206560663493093  0.6871215462596041  0.556511162992642  1.0000
  O   O15       1.0  0.3129866428373165  0.8640261809831319  0.4435787621314803  1.0000
  O   O16       1.0  0.6870570799090957  0.13595439854680794  0.556444934609587  1.0000
  O   O17       1.0  0.8642329329729465  0.13086171529404575  0.4438271667892906  1.0000
  O   O18       1.0  0.13577412539461173  0.8691483232033905  0.5561925551583329  1.0000
  O   O19       1.0  0.6877088681710577  0.4210443499304122  0.5395188281047185  1.0000
  O   O20       1.0  0.312305231108603  0.5789844917112463  0.4604894197348132  1.0000
  O   O21       1.0  0.11846706962130342  0.6876194257137415  0.5392745148541991  1.0000
  O   O22       1.0  0.8815125959003041  0.3123917686723203  0.4607258256496891  1.0000
  O   O23       1.0  0.8515670164790379  0.11822538698850597  0.5394921527720768  1.0000
  O   O24       1.0  0.14844544116785838  0.8817625388983502  0.46052001379652546  1.0000
  O   O25       1.0  0.4211371862265167  0.8517838346688154  0.5396916042768112  1.0000
  O   O26       1.0  0.578907265965242  0.14825720331706552  0.4603723111430397  1.0000
  O   O27       1.0  0.7055618334881756  0.02183910857984026  0.20308332709718263  1.0000
  O   O28       1.0  0.29443276074530933  0.9781499709972227  0.7969381236300351  1.0000
  O   O29       1.0  0.02206939562460518  0.49737497186244883  0.20307297547225997  1.0000
  O   O30       1.0  0.9779212970220926  0.5026271010475868  0.7969297579536629  1.0000
  O   O31       1.0  0.49823878267349647  0.181746145581279  0.20312159591555465  1.0000
  O   O32       1.0  0.5017568658061579  0.8182421965375895  0.796900292455426  1.0000
  O   O33       1.0  0.18073460413265252  0.7058766693819082  0.20316134585917914  1.0000
  O   O34       1.0  0.8192461047795522  0.29413466105404495  0.7968406556201374  1.0000
