data_image0
_chemical_formula_structural       Cd6P6H102C126N12O24
_chemical_formula_sum              "Cd6 P6 H102 C126 N12 O24"
_cell_length_a       11.348754133825132
_cell_length_b       12.343284316375364
_cell_length_c       26.418699331747774
_cell_angle_alpha    100.79339723901089
_cell_angle_beta     91.30634994077808
_cell_angle_gamma    112.13396115948298

_space_group_name_H-M_alt    "P 1"
_space_group_IT_number       1

loop_
  _space_group_symop_operation_xyz
  'x, y, z'

loop_
  _atom_site_type_symbol
  _atom_site_label
  _atom_site_symmetry_multiplicity
  _atom_site_fract_x
  _atom_site_fract_y
  _atom_site_fract_z
  _atom_site_occupancy
  Cd  Cd1       1.0  0.45841607611603763  0.8907310666621554  0.04034223276842398  1.0000
  Cd  Cd2       1.0  0.5415763154909284  0.10926975432877839  0.9596577735177263  1.0000
  Cd  Cd3       1.0  0.012106212775805153  0.384587073617368  0.2348679910506775  1.0000
  Cd  Cd4       1.0  0.9878922123453224  0.6154154631772428  0.7651318729223673  1.0000
  Cd  Cd5       1.0  0.9594176872754971  0.25319445035093213  0.389735306379194  1.0000
  Cd  Cd6       1.0  0.04058779896301004  0.74680800326761  0.6102627581589317  1.0000
  P   P1        1.0  0.8574342492131423  0.1173475664582213  0.269184868471207  1.0000
  P   P2        1.0  0.14256451629842118  0.8826558486289998  0.7308165914603677  1.0000
  P   P3        1.0  0.4705117159808836  0.20293741338966237  0.0725721895678149  1.0000
  P   P4        1.0  0.529488450035906  0.7970650933535666  0.9274280751124948  1.0000
  P   P5        1.0  0.08800621749368542  0.5152762863318686  0.3559431326595757  1.0000
  P   P6        1.0  0.9120049943962342  0.4847251735282683  0.6440556834687996  1.0000
  H   H1        1.0  0.0880997382841571  0.0631118017505301  0.2657394108233504  1.0000
  H   H2        1.0  0.9119022814216111  0.9368933104444893  0.7342671651888821  1.0000
  H   H3        1.0  0.1326912759431381  0.888990150042261  0.28165634228553665  1.0000
  H   H4        1.0  0.867311597938567  0.1110167845681147  0.7183473771744389  1.0000
  H   H5        1.0  0.9557673962515028  0.7107897745492339  0.3012892606821538  1.0000
  H   H6        1.0  0.04423328356689639  0.28921183270412587  0.6987101754372559  1.0000
  H   H7        1.0  0.7370387293152305  0.7101693854107154  0.3048739327337556  1.0000
  H   H8        1.0  0.26296231256798563  0.28983310836402154  0.6951263432855298  1.0000
  H   H9        1.0  0.6935907435956922  0.8833957597221912  0.2884946199353067  1.0000
  H   H10       1.0  0.3064061357314359  0.11660319395746652  0.7115052867022484  1.0000
  H   H11       1.0  0.6394646034864734  0.0009778215720644017  0.23323636312136387  1.0000
  H   H12       1.0  0.36053445028840536  0.9990138921810828  0.7667633188496978  1.0000
  H   H13       1.0  0.7004607850509784  0.1454158311557876  0.2194327263779172  1.0000
  H   H14       1.0  0.2995287642556051  0.8545742310108224  0.7805659184623792  1.0000
  H   H15       1.0  0.8321726552130002  0.08360172343112282  0.1536656062094295  1.0000
  H   H16       1.0  0.16782998874123228  0.9163881277504798  0.8463347208327291  1.0000
  H   H17       1.0  0.7808874988886244  0.9406088548844235  0.16780442712754248  1.0000
  H   H18       1.0  0.2191099332319197  0.0593792469530854  0.8321979437133675  1.0000
  H   H19       1.0  0.24095613913352315  0.24651012745541584  0.0629017238702545  1.0000
  H   H20       1.0  0.7590436475493547  0.7534959225096216  0.937104523936945  1.0000
  H   H21       1.0  0.038733756766760136  0.18783609210146324  0.1074582914288698  1.0000
  H   H22       1.0  0.9612733447264006  0.8121707200650403  0.8925507771366198  1.0000
  H   H23       1.0  0.013408332363020711  0.06206118629638981  0.17248983467752768  1.0000
  H   H24       1.0  0.9866042888426989  0.9379482411636599  0.8275199201357565  1.0000
  H   H25       1.0  0.18498969630036305  0.9942138333196764  0.19361663621621258  1.0000
  H   H26       1.0  0.815024288493724  0.005790235481292405  0.806386990465718  1.0000
  H   H27       1.0  0.3839029126621866  0.05170186587645988  0.1493918181280094  1.0000
  H   H28       1.0  0.616103974097662  0.9482978357854677  0.850608675108745  1.0000
  H   H29       1.0  0.5953058095405054  0.34062939130920716  0.1490204320693564  1.0000
  H   H30       1.0  0.4046976973519136  0.6593766890695106  0.8509783005070517  1.0000
  H   H31       1.0  0.5741465572805211  0.19165890581139422  0.1504441924620679  1.0000
  H   H32       1.0  0.42585500279348304  0.8083489700580341  0.8495576980145073  1.0000
  H   H33       1.0  0.7256243106364905  0.1953072628429878  0.08110842256382259  1.0000
  H   H34       1.0  0.27437423370984954  0.8046934755972185  0.9188909070364417  1.0000
  H   H35       1.0  0.7517391336525493  0.34528686265976927  0.0823003887134135  1.0000
  H   H36       1.0  0.24826359492426775  0.6547174241042768  0.9176985542099131  1.0000
  H   H37       1.0  0.15198321217111038  0.741168988516385  0.3243750820450302  1.0000
  H   H38       1.0  0.848017788422183  0.258820929746051  0.6756214420258573  1.0000
  H   H39       1.0  0.3578362778257045  0.9048114951444004  0.31678193494654744  1.0000
  H   H40       1.0  0.6421622079293954  0.09518478475193597  0.6832132178322964  1.0000
  H   H41       1.0  0.5634473416941362  0.888017807461132  0.3386262760375444  1.0000
  H   H42       1.0  0.436552802632164  0.11198653466594519  0.6613711207515394  1.0000
  H   H43       1.0  0.5634126563286728  0.7041335745922979  0.3645678813629231  1.0000
  H   H44       1.0  0.4365992623895636  0.2958777752790169  0.6354321896921603  1.0000
  H   H45       1.0  0.3561731974024128  0.5403355111776592  0.3721719457607549  1.0000
  H   H46       1.0  0.6438419819580404  0.45967125833126227  0.6278304203274557  1.0000
  H   H47       1.0  0.014076450229232835  0.6527084687318734  0.40659767048056494  1.0000
  H   H48       1.0  0.9859384646011266  0.34729745128512957  0.5934004534437705  1.0000
  H   H49       1.0  0.9431799414432759  0.5083924432811884  0.4198885287988788  1.0000
  H   H50       1.0  0.056827463491238565  0.49161448408806047  0.5801099549452715  1.0000
  H   H51       1.0  0.15593847869457997  0.5368786796058487  0.4664283348313916  1.0000
  H   H52       1.0  0.8440730302208976  0.4631254857019869  0.5335699654229558  1.0000
  H   H53       1.0  0.22306107978975825  0.6837833740505558  0.45674034323217677  1.0000
  H   H54       1.0  0.7769509320901378  0.3162198876530197  0.5432575064906047  1.0000
  H   H55       1.0  0.23824911451996664  0.9809242664912148  0.9982373492721803  1.0000
  H   H56       1.0  0.7617319145566553  0.019064172264208406  0.0017564894829788982  1.0000
  H   H57       1.0  0.9996959058408806  0.9195994275526045  0.9927058360553288  1.0000
  H   H58       1.0  0.00028403060937879987  0.0803907854962631  0.007291927997634699  1.0000
  H   H59       1.0  0.8659559944312462  0.7381519034368933  0.024695565647853374  1.0000
  H   H60       1.0  0.1340297154244752  0.2618417702830627  0.975307504846121  1.0000
  H   H61       1.0  0.8540671759103377  0.5571556337803828  0.05866429448244761  1.0000
  H   H62       1.0  0.1459273403476047  0.4428442082966909  0.9413398203020761  1.0000
  H   H63       1.0  0.9651266260653343  0.43019368643649597  0.08260710733855349  1.0000
  H   H64       1.0  0.034874767045515405  0.5698096897452273  0.917394386609935  1.0000
  H   H65       1.0  0.16068301727381856  0.3913305578884803  0.0905979281777505  1.0000
  H   H66       1.0  0.8393102718739558  0.6086702583627214  0.9094013333887006  1.0000
  H   H67       1.0  0.3964455584637818  0.45231726251156334  0.07854168789422998  1.0000
  H   H68       1.0  0.60355210356812  0.5476897663673413  0.9214604514145961  1.0000
  H   H69       1.0  0.513109511943675  0.652942070676893  0.05624281920467668  1.0000
  H   H70       1.0  0.4868855766749006  0.34706501767941944  0.9437573959405725  1.0000
  H   H71       1.0  0.9806633878496243  0.6154852969749527  0.1970303848363315  1.0000
  H   H72       1.0  0.019330009670063913  0.3845155604200912  0.802965096436786  1.0000
  H   H73       1.0  0.11267904671689177  0.8066837500500696  0.170646908218302  1.0000
  H   H74       1.0  0.8873242562955073  0.19331338032584  0.8293464949499239  1.0000
  H   H75       1.0  0.35134087042517603  0.8625978047918607  0.16990053483743847  1.0000
  H   H76       1.0  0.6486580922307751  0.137391281686881  0.830092480450304  1.0000
  H   H77       1.0  0.5377172015212892  0.8093982258522983  0.18277034103099507  1.0000
  H   H78       1.0  0.46228145764497697  0.19059627626155864  0.8172223872284049  1.0000
  H   H79       1.0  0.6275759495596774  0.6669718115763317  0.20498617399420738  1.0000
  H   H80       1.0  0.372427325346429  0.3330297444283731  0.7950144302301111  1.0000
  H   H81       1.0  0.5928054605563631  0.47228956616055484  0.23189699811803166  1.0000
  H   H82       1.0  0.4071958458569542  0.5277137771060938  0.7681075200651222  1.0000
  H   H83       1.0  0.440281247828139  0.28615056006677253  0.255676634143434  1.0000
  H   H84       1.0  0.5597154147229447  0.7138519985504461  0.7443235851810001  1.0000
  H   H85       1.0  0.20672718355565683  0.2554600137437149  0.2570574074149405  1.0000
  H   H86       1.0  0.7932734312395908  0.7445415688233366  0.7429442968804664  1.0000
  H   H87       1.0  0.696619148003208  0.053123706525113286  0.4233703584612059  1.0000
  H   H88       1.0  0.30337829286347084  0.9468806457067772  0.5766296505163098  1.0000
  H   H89       1.0  0.6262423947374886  0.8624315957062902  0.4569531255637215  1.0000
  H   H90       1.0  0.37375837618373003  0.1375744824340899  0.5430493532891063  1.0000
  H   H91       1.0  0.7878309259538627  0.7718349081937816  0.4689858435471166  1.0000
  H   H92       1.0  0.21216652575000694  0.22816944815249227  0.531013787401065  1.0000
  H   H93       1.0  0.009620803945111502  0.7855219234693608  0.46525585620452153  1.0000
  H   H94       1.0  0.9903721881771047  0.21447618733414942  0.5347439212359504  1.0000
  H   H95       1.0  0.2277184021488665  0.8829334498743789  0.4389852991921472  1.0000
  H   H96       1.0  0.772277930881188  0.11706454733938187  0.5610201940442039  1.0000
  H   H97       1.0  0.38509653297963814  0.05010424461833911  0.4040733353341892  1.0000
  H   H98       1.0  0.6149078996243135  0.9498900309413684  0.5959319472660027  1.0000
  H   H99       1.0  0.432226497795412  0.23746336155981138  0.3702122389136306  1.0000
  H   H100      1.0  0.5677742643635643  0.7625283097988034  0.6297889778526979  1.0000
  H   H101      1.0  0.2543736634628361  0.31305171843957413  0.3627224746780087  1.0000
  H   H102      1.0  0.7456265913425356  0.6869345749387249  0.6372767496016962  1.0000
  C   C1        1.0  0.8884344086489193  0.9855917581364649  0.2762537321422228  1.0000
  C   C2        1.0  0.11156813569564858  0.014412458683061402  0.7237516372797757  1.0000
  C   C3        1.0  0.011596261403099346  0.9853080553437724  0.2742318245686164  1.0000
  C   C4        1.0  0.9884018277328792  0.014698041130188197  0.7257725104139751  1.0000
  C   C5        1.0  0.03616196227812916  0.8875257460798522  0.2833935405571708  1.0000
  C   C6        1.0  0.9638394416699043  0.11247763421624772  0.7166075753619836  1.0000
  C   C7        1.0  0.9378164114441391  0.7880931194048628  0.2944718900251502  1.0000
  C   C8        1.0  0.06218352257023703  0.2119067065769755  0.705526622353183  1.0000
  C   C9        1.0  0.814452704162413  0.7874006316245213  0.2962919739472341  1.0000
  C   C10       1.0  0.18554607218634803  0.21260278757708304  0.7037091079550136  1.0000
  C   C11       1.0  0.7901896781749471  0.885182747756417  0.28715347923674267  1.0000
  C   C12       1.0  0.2098098223034555  0.11482244448792765  0.7128492824652497  1.0000
  C   C13       1.0  0.7227210851108127  0.066204791359894  0.2200672232460477  1.0000
  C   C14       1.0  0.27727652479396175  0.9337896578923263  0.7799315421437214  1.0000
  C   C15       1.0  0.7512278656959097  0.015662055291407708  0.1666819132533206  1.0000
  C   C16       1.0  0.24876640333324226  0.9843288203253238  0.8333183842403571  1.0000
  C   C17       1.0  0.640916415610775  0.9701800626749417  0.1241894335200584  1.0000
  C   C18       1.0  0.3590855627889553  0.029814317620399294  0.875809766593889  1.0000
  C   C19       1.0  0.32407220282200905  0.1536684388456422  0.10357089627243  1.0000
  C   C20       1.0  0.6759315967390052  0.8463303781709614  0.8964321253115486  1.0000
  C   C21       1.0  0.22610589614416202  0.19031335669735944  0.0914232551226277  1.0000
  C   C22       1.0  0.7738957723339794  0.809690873090666  0.9085821029604019  1.0000
  C   C23       1.0  0.11353549466405612  0.15631552630685522  0.1155722390464859  1.0000
  C   C24       1.0  0.8864710235990643  0.843687722691271  0.8844338592878245  1.0000
  C   C25       1.0  0.098895378157799  0.085146910003445  0.1521898539721676  1.0000
  C   C26       1.0  0.9011179194235057  0.9148598360698729  0.847817025790107  1.0000
  C   C27       1.0  0.19607813445054492  0.0479332154299925  0.1643208027078202  1.0000
  C   C28       1.0  0.8039336715227139  0.9520699681002897  0.835684229572294  1.0000
  C   C29       1.0  0.3083231456572689  0.08138795376948589  0.140079486449963  1.0000
  C   C30       1.0  0.6916834224026333  0.9186090342159902  0.8599222787194803  1.0000
  C   C31       1.0  0.5963938537659176  0.25757551652525723  0.1256480978594965  1.0000
  C   C32       1.0  0.4036052954687436  0.742430636924723  0.874349821963392  1.0000
  C   C33       1.0  0.7266592613364011  0.2772815632888808  0.1063333765069387  1.0000
  C   C34       1.0  0.2733382662439113  0.7227209782454621  0.8936672321858055  1.0000
  C   C35       1.0  0.8340497339634465  0.3165172953821624  0.1495528050187502  1.0000
  C   C36       1.0  0.16595032366532797  0.6834870138298471  0.8504476160050061  1.0000
  C   C37       1.0  0.2410944440272119  0.6308659244592221  0.34929871912446936  1.0000
  C   C38       1.0  0.7589147732902363  0.36913287646213894  0.6506987000533114  1.0000
  C   C39       1.0  0.24235763034553062  0.7337711663200394  0.333606842871113  1.0000
  C   C40       1.0  0.7576467761626375  0.2662205066515639  0.6663895048697555  1.0000
  C   C41       1.0  0.35772644257933467  0.8254927096520037  0.3294080938423036  1.0000
  C   C42       1.0  0.6422762816083036  0.1745052955274744  0.6705884060628264  1.0000
  C   C43       1.0  0.473339239797106  0.8153380705982014  0.3410419760056698  1.0000
  C   C44       1.0  0.5266649543080817  0.18466533250816045  0.6589535034903875  1.0000
  C   C45       1.0  0.4730770761895828  0.7124081136901453  0.35594759540821735  1.0000
  C   C46       1.0  0.5269313455109595  0.2875970105849746  0.6440496092434599  1.0000
  C   C47       1.0  0.3574481261083876  0.6207152521577797  0.3602587149075375  1.0000
  C   C48       1.0  0.6425647508007373  0.37928799246291334  0.6397395241835468  1.0000
  C   C49       1.0  0.034878658498165335  0.5770701763873447  0.41431467833823626  1.0000
  C   C50       1.0  0.9651320504273357  0.42293218707705177  0.5856845883217048  1.0000
  C   C51       1.0  0.13205373471044626  0.6130713911207762  0.4615834582834992  1.0000
  C   C52       1.0  0.8679582554950613  0.3869318623540322  0.5384151474979433  1.0000
  C   C53       1.0  0.08877325880520467  0.6566060117787558  0.5127885262728071  1.0000
  C   C54       1.0  0.91123928856679  0.3433945150510951  0.4872113627803003  1.0000
  C   C55       1.0  0.17673508868677607  0.900700953422941  0.010775892380671304  1.0000
  C   C56       1.0  0.8232470374214955  0.09929014901099009  0.9892200880447746  1.0000
  C   C57       1.0  0.04339094255232829  0.8666579153233724  0.008376789412245988  1.0000
  C   C58       1.0  0.9565880204806733  0.1333341172771583  0.9916207416158613  1.0000
  C   C59       1.0  0.9694114978231313  0.765234859142126  0.0252776036125226  1.0000
  C   C60       1.0  0.030569941072371893  0.2347589205641611  0.9747216298932669  1.0000
  C   C61       1.0  0.028006926460015822  0.6939657447454052  0.04239512894902479  1.0000
  C   C62       1.0  0.9719802489240835  0.3060270453168599  0.9576044781176805  1.0000
  C   C63       1.0  0.9573758414509825  0.5844929962029966  0.0581403571310446  1.0000
  C   C64       1.0  0.04261500436198424  0.4155042416729843  0.9418596918196158  1.0000
  C   C65       1.0  0.01715694144272828  0.5142630092682267  0.070858467858848  1.0000
  C   C66       1.0  0.9828364777674492  0.4857360127429615  0.9291398813054953  1.0000
  C   C67       1.0  0.15192304065399048  0.5482225633623301  0.06875220867073037  1.0000
  C   C68       1.0  0.8480686593349135  0.45177649692900707  0.9312449837276732  1.0000
  C   C69       1.0  0.2158425399409225  0.47480569748043416  0.07894616465020478  1.0000
  C   C70       1.0  0.7841561063293199  0.5252013595738062  0.9210522057042567  1.0000
  C   C71       1.0  0.3452007214386086  0.5095026673456289  0.07363559079712449  1.0000
  C   C72       1.0  0.6548012440489829  0.49050611150271084  0.9263656274619905  1.0000
  C   C73       1.0  0.41107768489553115  0.6210476354438512  0.0606905692093491  1.0000
  C   C74       1.0  0.5889196475831256  0.37895851925682683  0.939309596111606  1.0000
  C   C75       1.0  0.22602586703186492  0.6581161490693574  0.05511989270605259  1.0000
  C   C76       1.0  0.7739675846898918  0.34188288528498134  0.9448773223702958  1.0000
  C   C77       1.0  0.162964615563098  0.732876880397967  0.04189995453871376  1.0000
  C   C78       1.0  0.8370221327169175  0.2671168420692425  0.9580974568542189  1.0000
  C   C79       1.0  0.08381352819075974  0.6426781035251139  0.1959548757042739  1.0000
  C   C80       1.0  0.9161827137042593  0.3573191100268645  0.8040403268988713  1.0000
  C   C81       1.0  0.1585548525275229  0.750260730463715  0.18173061855004846  1.0000
  C   C82       1.0  0.84144530908398  0.24973733830756115  0.8182635791621705  1.0000
  C   C83       1.0  0.2888829622090797  0.7809470666036235  0.18119932841875647  1.0000
  C   C84       1.0  0.7111160698592017  0.21904832614599462  0.8187938617111854  1.0000
  C   C85       1.0  0.34351328300722633  0.7029053927353601  0.1944406814126793  1.0000
  C   C86       1.0  0.6564860352655373  0.2970908577349505  0.8055559948224627  1.0000
  C   C87       1.0  0.47701273827429713  0.7269106511780238  0.1937448475756938  1.0000
  C   C88       1.0  0.5229869854120467  0.27308650227119097  0.8062511564419879  1.0000
  C   C89       1.0  0.5257272113931111  0.6480371227466223  0.2057222121039501  1.0000
  C   C90       1.0  0.4742734684252881  0.35196448450673756  0.7942772240154596  1.0000
  C   C91       1.0  0.4450836440214942  0.5394414354144031  0.21978464253121638  1.0000
  C   C92       1.0  0.5549175431505021  0.46056554981927184  0.780216786074817  1.0000
  C   C93       1.0  0.4913328035082857  0.4555867000779017  0.23277029379471512  1.0000
  C   C94       1.0  0.5086638742691677  0.5444221442382755  0.7672319905185814  1.0000
  C   C95       1.0  0.40738135756037513  0.35289319233528005  0.2461514588968754  1.0000
  C   C96       1.0  0.5926119424245969  0.6471076280303053  0.7538474246402415  1.0000
  C   C97       1.0  0.2773664097802566  0.3345322762519202  0.24677090476315297  1.0000
  C   C98       1.0  0.7226335069489168  0.6654738230857191  0.753230806692038  1.0000
  C   C99       1.0  0.31196271162861683  0.5128361713246434  0.2211579195233426  1.0000
  C   C100      1.0  0.6880358760826013  0.487162739960482  0.7788435219094864  1.0000
  C   C101      1.0  0.2602107928690955  0.5957941067728142  0.20789193205577308  1.0000
  C   C102      1.0  0.7397909362269033  0.40420570972955955  0.7921050908831688  1.0000
  C   C103      1.0  0.7621820397222763  0.009040547076587305  0.4282320075389733  1.0000
  C   C104      1.0  0.23781708785411146  0.9909637545320039  0.5717702922924842  1.0000
  C   C105      1.0  0.7238954273761635  0.903047977539934  0.44727484281165886  1.0000
  C   C106      1.0  0.2761049056198956  0.09695718527838441  0.5527294423466316  1.0000
  C   C107      1.0  0.8122299112807596  0.8530368516497259  0.4536972545251813  1.0000
  C   C108      1.0  0.18776884339361294  0.1469665593231042  0.5463045834357345  1.0000
  C   C109      1.0  0.9379374728658123  0.9090552612394942  0.4408659246173057  1.0000
  C   C110      1.0  0.062058541432080026  0.09094370952304592  0.5591335926519463  1.0000
  C   C111      1.0  0.03459883150994615  0.8636850624390034  0.44774052266651404  1.0000
  C   C112      1.0  0.9653959773843752  0.13631120350119372  0.5522606332257921  1.0000
  C   C113      1.0  0.15466717644251568  0.9186990629970494  0.434119322956839  1.0000
  C   C114      1.0  0.8453286925827115  0.08129357269393007  0.5658826656755522  1.0000
  C   C115      1.0  0.1880447091328534  0.024635891263443493  0.41361659231229453  1.0000
  C   C116      1.0  0.8119558037384987  0.9753593726895884  0.5863860712289224  1.0000
  C   C117      1.0  0.3115246108261545  0.08549559380288231  0.3997421676593049  1.0000
  C   C118      1.0  0.6884759562472668  0.9144978471094446  0.6002622296851355  1.0000
  C   C119      1.0  0.3375708239271376  0.188643686876773  0.38097752554901376  1.0000
  C   C120      1.0  0.6624284032750226  0.8113444054812717  0.619023355852498  1.0000
  C   C121      1.0  0.2397956969764934  0.23141803971854807  0.3765966787821071  1.0000
  C   C122      1.0  0.7602049784688347  0.7685754423376211  0.623403938269  1.0000
  C   C123      1.0  0.0951396137910976  0.07415466934720878  0.4075602700371803  1.0000
  C   C124      1.0  0.9048581478665838  0.9258361502811426  0.5924404508417069  1.0000
  C   C125      1.0  0.9671724230861612  0.014782867871950604  0.42128067836699756  1.0000
  C   C126      1.0  0.032822288257335866  0.9852152046514178  0.5787202558394142  1.0000
  N   N1        1.0  0.2342593747120248  0.8361813695481572  0.027641007985543788  1.0000
  N   N2        1.0  0.7657254809194358  0.1638160125943031  0.9723540472109988  1.0000
  N   N3        1.0  0.3538047191707321  0.6934952784229437  0.05266748878193538  1.0000
  N   N4        1.0  0.6461866881817854  0.3065073580052697  0.9473326625086853  1.0000
  N   N5        1.0  0.13312134858144728  0.5682940268067894  0.2086015753463712  1.0000
  N   N6        1.0  0.8668747632511683  0.4317049809852023  0.7913945396588743  1.0000
  N   N7        1.0  0.23164968597213698  0.4119400655341537  0.2345901185097787  1.0000
  N   N8        1.0  0.7683478524453733  0.5880624801145728  0.7654101121536243  1.0000
  N   N9        1.0  0.8796430751317813  0.06258811420211428  0.4156781378727175  1.0000
  N   N10       1.0  0.12035407954652308  0.9374135366964681  0.5843220089494849  1.0000
  N   N11       1.0  0.12299323247430755  0.17573094100737313  0.3895535814139635  1.0000
  N   N12       1.0  0.8770097301798715  0.8242616238506881  0.6104454736955062  1.0000
  O   O1        1.0  0.9774266751869191  0.20076763150694182  0.2502444798190879  1.0000
  O   O2        1.0  0.022570128263758805  0.799233136984654  0.7497544490739045  1.0000
  O   O3        1.0  0.8148385124800016  0.1652912944729152  0.31999512623826826  1.0000
  O   O4        1.0  0.18515868993625167  0.8347166544677692  0.6800059514847945  1.0000
  O   O5        1.0  0.5301235542105687  0.9636136859499443  0.1354575124612438  1.0000
  O   O6        1.0  0.4698769694818665  0.0363834257300866  0.8645411491007451  1.0000
  O   O7        1.0  0.6647397148658739  0.9388553177949032  0.07791727642739225  1.0000
  O   O8        1.0  0.33525936058339306  0.0611364041870104  0.9220816494850013  1.0000
  O   O9        1.0  0.4797061818823495  0.08847472247555288  0.039040496715315995  1.0000
  O   O10       1.0  0.5202979580529999  0.9115268164462762  0.9609604968772985  1.0000
  O   O11       1.0  0.4753474572151788  0.29793289996588607  0.0433735215150648  1.0000
  O   O12       1.0  0.5246481950178961  0.7020651842752769  0.9566251558543114  1.0000
  O   O13       1.0  0.9384854061283505  0.3067271045532324  0.1382589480553733  1.0000
  O   O14       1.0  0.0615192780452319  0.6932879498892532  0.8617417230041795  1.0000
  O   O15       1.0  0.8155527413894249  0.3574848730909821  0.195573137238938  1.0000
  O   O16       1.0  0.18444346801013015  0.6425104845052303  0.8044268234020961  1.0000
  O   O17       1.0  0.11411422706287778  0.40632346321861956  0.36377887579592283  1.0000
  O   O18       1.0  0.8858922000813152  0.593677158505109  0.6362205558550613  1.0000
  O   O19       1.0  0.9938884315929001  0.49784962459786897  0.30995528930597516  1.0000
  O   O20       1.0  0.006118357616109948  0.5021518836472296  0.6900449822448849  1.0000
  O   O21       1.0  0.9793338473144502  0.6622991277746735  0.514106361716692  1.0000
  O   O22       1.0  0.02067478680518061  0.33769242275306505  0.48589533512969746  1.0000
  O   O23       1.0  0.16763888497832372  0.6865867845909362  0.5533884823109716  1.0000
  O   O24       1.0  0.8323803593712854  0.31342717520884383  0.446610407523174  1.0000
