data_image0
_chemical_formula_structural       Zn2H24C40N12O10
_chemical_formula_sum              "Zn2 H24 C40 N12 O10"
_cell_length_a       6.787957571602685
_cell_length_b       7.468888284475036
_cell_length_c       17.24973323371706
_cell_angle_alpha    94.12269965690635
_cell_angle_beta     96.59148602423788
_cell_angle_gamma    96.64085195862991

_space_group_name_H-M_alt    "P 1"
_space_group_IT_number       1

loop_
  _space_group_symop_operation_xyz
  'x, y, z'

loop_
  _atom_site_type_symbol
  _atom_site_label
  _atom_site_symmetry_multiplicity
  _atom_site_fract_x
  _atom_site_fract_y
  _atom_site_fract_z
  _atom_site_occupancy
  Zn  Zn1       1.0  0.5384975470727441  0.43614158060803737  0.6639856370772109  1.0000
  Zn  Zn2       1.0  0.4615002991793633  0.5638620722926858  0.3360141248119605  1.0000
  H   H1        1.0  0.08966521502816961  0.27818791817321653  0.6913876080544057  1.0000
  H   H2        1.0  0.910330061582066  0.7218184471824214  0.308612713093332  1.0000
  H   H3        1.0  0.8917863998715136  0.27292308906822893  0.8026430578653533  1.0000
  H   H4        1.0  0.10821238875119121  0.7270765031788854  0.19735777451354156  1.0000
  H   H5        1.0  0.034562570134220004  0.4567206486925031  0.9305929228165299  1.0000
  H   H6        1.0  0.965435146484339  0.5432816536760755  0.06940911020861051  1.0000
  H   H7        1.0  0.32306700799262  0.7796513215381607  0.13459244225968803  1.0000
  H   H8        1.0  0.6769340153837365  0.22034285413350568  0.8654094711753759  1.0000
  H   H9        1.0  0.6476692521770033  0.9614159506571128  0.13426604093500322  1.0000
  H   H10       1.0  0.35233938073987053  0.0385687383401319  0.8657376266432312  1.0000
  H   H11       1.0  0.9498212658899663  0.9575516685237841  0.9310075088334316  1.0000
  H   H12       1.0  0.05018478226080702  0.0424357323171378  0.06899613761192573  1.0000
  H   H13       1.0  0.10078459505739798  0.9358303239550024  0.8034332701397134  1.0000
  H   H14       1.0  0.8992184812238052  0.064167907703343  0.1965688555809848  1.0000
  H   H15       1.0  0.9416348398271952  0.7114943256043419  0.6966957458246271  1.0000
  H   H16       1.0  0.05836134890518712  0.2885079778752059  0.3033044850299548  1.0000
  H   H17       1.0  0.2805467181571189  0.3651670733176858  0.4933212522635914  1.0000
  H   H18       1.0  0.7194529908693925  0.6348392825925797  0.5066786714814102  1.0000
  H   H19       1.0  0.17234885227338034  0.07915559449209297  0.40280109807747533  1.0000
  H   H20       1.0  0.8276510015109011  0.920852112561576  0.5971971349230004  1.0000
  H   H21       1.0  0.7876450591572283  0.2937013138407139  0.5681069808198842  1.0000
  H   H22       1.0  0.2123535173682285  0.7063077497460313  0.4318918220055964  1.0000
  H   H23       1.0  0.9102820307521217  0.48717927457376914  0.6009521712553934  1.0000
  H   H24       1.0  0.08971428761380912  0.5128243794379229  0.39904578846321936  1.0000
  C   C1        1.0  0.14991219384372564  0.3533589768484688  0.7472076952318008  1.0000
  C   C2        1.0  0.8500840100128856  0.64664332724233  0.25279311601422455  1.0000
  C   C3        1.0  0.03878831029197729  0.3519458202692005  0.8107539819743083  1.0000
  C   C4        1.0  0.9612091859476807  0.6480551278997523  0.18924683983814822  1.0000
  C   C5        1.0  0.1173036724751668  0.4536073073295767  0.8800410455705078  1.0000
  C   C6        1.0  0.8826949260170879  0.5463909319404149  0.11995973637859692  1.0000
  C   C7        1.0  0.3075965827897634  0.5544802768799001  0.8846779227623431  1.0000
  C   C8        1.0  0.6924036883464383  0.4455193124225047  0.11532297061279452  1.0000
  C   C9        1.0  0.40204744134511133  0.6653871589326099  0.9547323967193861  1.0000
  C   C10       1.0  0.5979548592900701  0.33460566020597327  0.0452689468906797  1.0000
  C   C11       1.0  0.39508821324615456  0.7741532556348858  0.08130042272855323  1.0000
  C   C12       1.0  0.6049124298692947  0.22583821408252902  0.9187013898469233  1.0000
  C   C13       1.0  0.5832280190823768  0.8753248990819884  0.0816142188502411  1.0000
  C   C14       1.0  0.4167765163064487  0.12466250348114728  0.918388205815994  1.0000
  C   C15       1.0  0.5939339028234799  0.7650251468803901  0.9554873902495444  1.0000
  C   C16       1.0  0.406069325058077  0.234963610993347  0.04451444345880871  1.0000
  C   C17       1.0  0.6964916648939197  0.7583523006573786  0.886003344631803  1.0000
  C   C18       1.0  0.3035117682423093  0.2416378108047255  0.11399911989779102  1.0000
  C   C19       1.0  0.8783099681613323  0.8661539920665363  0.8809977866086529  1.0000
  C   C20       1.0  0.12169327484444645  0.13383476641844538  0.11900462749114384  1.0000
  C   C21       1.0  0.9625388909204633  0.8543868231515005  0.8116758476614622  1.0000
  C   C22       1.0  0.03746378997561101  0.14560870194134878  0.1883255968081983  1.0000
  C   C23       1.0  0.8709357158083154  0.7295700224718615  0.7499599269063212  1.0000
  C   C24       1.0  0.12906267742926764  0.2704268632097494  0.2500402242215429  1.0000
  C   C25       1.0  0.6078740930229716  0.6446669879337816  0.8192416873357049  1.0000
  C   C26       1.0  0.3921257978523372  0.35532989541437127  0.18075910517983834  1.0000
  C   C27       1.0  0.4105818712689242  0.5448582519315364  0.8181356598777398  1.0000
  C   C28       1.0  0.5894185899977274  0.4551426903479907  0.18186528392719484  1.0000
  C   C29       1.0  0.2854532811892412  0.23117124476008394  0.5138659642686677  1.0000
  C   C30       1.0  0.714549788249393  0.7688378118262662  0.48613476271984274  1.0000
  C   C31       1.0  0.2229765243593534  0.07316128288495348  0.4647489620188169  1.0000
  C   C32       1.0  0.777026484582372  0.9268477712564194  0.5352494434039272  1.0000
  C   C33       1.0  0.2914216788681118  0.8989444402617436  0.5674456971769218  1.0000
  C   C34       1.0  0.7085838997154853  0.10106190142469977  0.4325521489872629  1.0000
  C   C35       1.0  0.36711110524201734  0.056308840593501885  0.6159946772397549  1.0000
  C   C36       1.0  0.6328898054221883  0.9436961557274586  0.3840017747230392  1.0000
  C   C37       1.0  0.4623096966864254  0.05617483165588769  0.700298338358806  1.0000
  C   C38       1.0  0.5376892064456059  0.9438261105121342  0.29969964249268344  1.0000
  C   C39       1.0  0.28427615442473103  0.7103249255074361  0.5950987746358083  1.0000
  C   C40       1.0  0.7157232586017485  0.2896800731469894  0.4048970359393139  1.0000
  N   N1        1.0  0.33060851843689687  0.4463660482157222  0.7509168367618033  1.0000
  N   N2        1.0  0.6693867732975607  0.5536403177511672  0.24908406477737097  1.0000
  N   N3        1.0  0.6989333274880638  0.6265094551578656  0.753861143533115  1.0000
  N   N4        1.0  0.3010656361408693  0.3734914894551337  0.2461391588841408  1.0000
  N   N5        1.0  0.30404037710511034  0.6701861788998612  0.0187599198113375  1.0000
  N   N6        1.0  0.6959597190248702  0.32981205803665853  0.9812415035254461  1.0000
  N   N7        1.0  0.6833996210585982  0.8705452346231793  0.019895451649801988  1.0000
  N   N8        1.0  0.3166077043510003  0.12944080968465949  0.9801076249705505  1.0000
  N   N9        1.0  0.3633555821269569  0.2196945995208139  0.5879102120430489  1.0000
  N   N10       1.0  0.6366455489161428  0.7803117509997649  0.4120874511324289  1.0000
  N   N11       1.0  0.2269051108451947  0.9093763551187022  0.4910938592504338  1.0000
  N   N12       1.0  0.7730976928418515  0.09063134543429639  0.508903915351077  1.0000
  O   O1        1.0  0.6005722309414027  0.18730077186972238  0.7229443829161896  1.0000
  O   O2        1.0  0.39942728795465143  0.8127042310634207  0.2770554903990147  1.0000
  O   O3        1.0  0.39568903286243545  0.9324465997126977  0.7391048598711196  1.0000
  O   O4        1.0  0.6043081522529762  0.0675529905891707  0.2608912683800213  1.0000
  O   O5        1.0  0.7777936567299976  0.4132784946907718  0.5967473331601172  1.0000
  O   O6        1.0  0.2222056871598285  0.5867251558764864  0.4032530701167332  1.0000
  O   O7        1.0  0.11571671075063253  0.6344876715224287  0.6054839278072068  1.0000
  O   O8        1.0  0.8842770163647276  0.3655200393638935  0.3945065161195915  1.0000
  O   O9        1.0  0.45082669057662633  0.6472388471488912  0.6010197263943058  1.0000
  O   O10       1.0  0.549170965545031  0.35276345277470256  0.3989799850650684  1.0000
