data_image0
_chemical_formula_structural       Cd2H36C52N8O8
_chemical_formula_sum              "Cd2 H36 C52 N8 O8"
_cell_length_a       8.604477309001659
_cell_length_b       10.792510126469296
_cell_length_c       12.951876518517864
_cell_angle_alpha    114.11013564143268
_cell_angle_beta     90.00007017629206
_cell_angle_gamma    89.99996219817892

_space_group_name_H-M_alt    "P 1"
_space_group_IT_number       1

loop_
  _space_group_symop_operation_xyz
  'x, y, z'

loop_
  _atom_site_type_symbol
  _atom_site_label
  _atom_site_symmetry_multiplicity
  _atom_site_fract_x
  _atom_site_fract_y
  _atom_site_fract_z
  _atom_site_occupancy
  Cd  Cd1       1.0  0.4999994999695758  0.9999992771578052  0.9999996219465076  1.0000
  Cd  Cd2       1.0  4.660334699999998e-08  0.9999999893762638  0.49999967157841524  1.0000
  H   H1        1.0  0.9119801666075845  0.6641248322071149  0.6336973075593306  1.0000
  H   H2        1.0  0.4119791970912273  0.3358737031968816  0.8663000707346811  1.0000
  H   H3        1.0  0.08802181410423769  0.33587338846405157  0.366300616005482  1.0000
  H   H4        1.0  0.5880192970636601  0.6641245174745553  0.13369785282880303  1.0000
  H   H5        1.0  0.26324932535419515  0.9714065446235908  0.79664806105734  1.0000
  H   H6        1.0  0.7632509472160648  0.028593036629949612  0.7033534109746427  1.0000
  H   H7        1.0  0.7367491688020066  0.02859269438409481  0.2033517520893966  1.0000
  H   H8        1.0  0.2367510334976757  0.9714072191080306  0.296647519122189  1.0000
  H   H9        1.0  0.21017749248299816  0.86529941964821  0.06792526384865047  1.0000
  H   H10       1.0  0.7101759603318031  0.13470253136016203  0.4320762209370912  1.0000
  H   H11       1.0  0.7898233260435745  0.13470184800337393  0.9320744652930628  1.0000
  H   H12       1.0  0.2898236960105436  0.8652987395028828  0.5679250534731466  1.0000
  H   H13       1.0  0.9518573760007528  0.7605486356951378  0.9988800862059579  1.0000
  H   H14       1.0  0.4518581396853776  0.23945294702649994  0.5011222187021716  1.0000
  H   H15       1.0  0.0481434425280511  0.2394516216486125  0.0011216165249124394  1.0000
  H   H16       1.0  0.5481426788432202  0.7605493405670246  0.49888017265727325  1.0000
  H   H17       1.0  0.8462924013634491  0.7615239408281129  0.818491638411331  1.0000
  H   H18       1.0  0.34629233498866085  0.2384756245417564  0.6815083518625968  1.0000
  H   H19       1.0  0.1537084171641396  0.238474283054508  0.18150783042200666  1.0000
  H   H20       1.0  0.6537073213537994  0.7615246311964088  0.3184925782333537  1.0000
  H   H21       1.0  0.7297134239724555  0.5383542919108849  0.5707164521347963  1.0000
  H   H22       1.0  0.22971362854182334  0.46164630637388643  0.929283793293628  1.0000
  H   H23       1.0  0.27028623236929405  0.4616459622215886  0.42928370532666804  1.0000
  H   H24       1.0  0.7702871899855666  0.5383539477585018  0.07071636416828406  1.0000
  H   H25       1.0  0.5512538449259381  0.26087282105776677  0.2690790618283003  1.0000
  H   H26       1.0  0.05125578056528471  0.7391271207410884  0.23092006751603136  1.0000
  H   H27       1.0  0.4487434870445171  0.7391274330748916  0.7309210956322759  1.0000
  H   H28       1.0  0.9487462001470349  0.2608731317855303  0.7690793173118422  1.0000
  H   H29       1.0  0.6793927990057682  0.3755430696678063  0.15896242044684072  1.0000
  H   H30       1.0  0.17939386933317536  0.6244568525770051  0.3410368068981456  1.0000
  H   H31       1.0  0.3206056951496237  0.6244571828590753  0.8410369643796971  1.0000
  H   H32       1.0  0.8206069491934045  0.3755444150745861  0.6589629222435747  1.0000
  H   H33       1.0  0.8433539606654463  0.5841113020736304  0.2646920093907001  1.0000
  H   H34       1.0  0.3433550088986835  0.4158885967562613  0.23530811598666196  1.0000
  H   H35       1.0  0.15664453349064902  0.4158889520589356  0.7353081480703241  1.0000
  H   H36       1.0  0.6566446474437696  0.584111658981897  0.7646928141092816  1.0000
  C   C1        1.0  0.0062830433459737005  0.8601876706965758  0.6780015369671519  1.0000
  C   C2        1.0  0.5062836291690687  0.1398119481646205  0.8219989659015071  1.0000
  C   C3        1.0  0.993715450810228  0.13981156831110306  0.3219982761795777  1.0000
  C   C4        1.0  0.49371602717409496  0.860188309179222  0.17800273682891551  1.0000
  C   C5        1.0  0.9313734972000205  0.7417401418054939  0.601877884440171  1.0000
  C   C6        1.0  0.4313772989151944  0.25826042409983785  0.8981217425852748  1.0000
  C   C7        1.0  0.0686238347690207  0.2582601091157955  0.3981207277514471  1.0000
  C   C8        1.0  0.5686246817978359  0.741739830032465  0.10187841487708489  1.0000
  C   C9        1.0  0.8863793896391599  0.7085718879347526  0.48857828663260966  1.0000
  C   C10       1.0  0.38638245372507635  0.29142901624278755  0.011420670696800536  1.0000
  C   C11       1.0  0.1136179423298813  0.2914283629865367  0.5114203255590084  1.0000
  C   C12       1.0  0.6136195269872503  0.708571236283831  0.9885787141310729  1.0000
  C   C13       1.0  0.049953433560176605  0.8628068653210338  0.7907541833069802  1.0000
  C   C14       1.0  0.5499549766360518  0.13719274848163823  0.709247125595752  1.0000
  C   C15       1.0  0.9500450605961318  0.13719135856176484  0.20924528552546925  1.0000
  C   C16       1.0  0.4500458418928589  0.862806493737232  0.29075423282083096  1.0000
  C   C17       1.0  0.19093470666158652  0.923587036631567  0.8389906552381492  1.0000
  C   C18       1.0  0.6909350491071748  0.0764135691765446  0.6610103331667504  1.0000
  C   C19       1.0  0.8090661118659028  0.07641220237594132  0.16100915790946863  1.0000
  C   C20       1.0  0.30906576942021496  0.9235866849558437  0.3389898242951548  1.0000
  C   C21       1.0  0.16019622199682704  0.8647557831581666  0.9905140822273921  1.0000
  C   C22       1.0  0.6601962375918475  0.13524482734069215  0.5094868826685186  1.0000
  C   C23       1.0  0.8398045965306623  0.13524345584934142  0.009485730920232522  1.0000
  C   C24       1.0  0.33980458093614635  0.8647564435222678  0.49051439174215977  1.0000
  C   C25       1.0  0.016108433720738405  0.8062548142099647  0.9509792691403052  1.0000
  C   C26       1.0  0.5161084736570629  0.19374581667111818  0.5490208129224357  1.0000
  C   C27       1.0  0.9838923848060475  0.19374442319185195  0.049019771372833525  1.0000
  C   C28       1.0  0.4838911826845802  0.8062554525862428  0.4509796888533162  1.0000
  C   C29       1.0  0.9601215228008968  0.8048796734288929  0.8496767488698327  1.0000
  C   C30       1.0  0.4601214349236997  0.19511987617624277  0.6503241010953573  1.0000
  C   C31       1.0  0.03987813354176241  0.19511855205949769  0.15032349259753636  1.0000
  C   C32       1.0  0.5398782214188601  0.8048793644370352  0.3496764846862988  1.0000
  C   C33       1.0  0.8006112478319166  0.5779159378686601  0.42608219423166827  1.0000
  C   C34       1.0  0.3006108323382577  0.42208498100311703  0.07391747013521419  1.0000
  C   C35       1.0  0.19938957069465596  0.4220853297829309  0.573917534910052  1.0000
  C   C36       1.0  0.6993876618178375  0.5779152731294489  0.9260826873258097  1.0000
  C   C37       1.0  0.7245218704903847  0.5043503538488707  0.4789866510895067  1.0000
  C   C38       1.0  0.224522459309064  0.4956495615092464  0.02101261077012143  1.0000
  C   C39       1.0  0.2754766236651065  0.4956488835531305  0.5210123894227436  1.0000
  C   C40       1.0  0.775478359218326  0.5043506926231417  0.9789875466917908  1.0000
  C   C41       1.0  0.6235801463515216  0.3505989712944172  0.3118515489046275  1.0000
  C   C42       1.0  0.1235809152819769  0.6494009594674708  0.18814763575459642  1.0000
  C   C43       1.0  0.3764183478038704  0.6494012812324642  0.6881478359219174  1.0000
  C   C44       1.0  0.876419903245413  0.35059929466491735  0.8118525217073156  1.0000
  C   C45       1.0  0.6947639338187201  0.4152725329498708  0.25030020550750015  1.0000
  C   C46       1.0  0.19476370698156129  0.5847273869493962  0.24969903359286869  1.0000
  C   C47       1.0  0.30523456033667173  0.5847277195770106  0.7496991793190376  1.0000
  C   C48       1.0  0.8052359493601883  0.41527286718308437  0.7503011238685957  1.0000
  C   C49       1.0  0.7847798666633493  0.5296021450041266  0.308194437194402  1.0000
  C   C50       1.0  0.28478079001711615  0.4703987794947934  0.19180676033406743  1.0000
  C   C51       1.0  0.21521862749285253  0.4703970940035521  0.6918053759523275  1.0000
  C   C52       1.0  0.7152177041403007  0.5296024929740215  0.8081952867102019  1.0000
  N   N1        1.0  0.2459596371119162  0.9231498811371707  0.9356671022893367  1.0000
  N   N2        1.0  0.7459598016295459  0.07684970114921442  0.5643335838844123  1.0000
  N   N3        1.0  0.7540411814149691  0.0768483411397654  0.06433159390951462  1.0000
  N   N4        1.0  0.25404101689855446  0.9231505545888513  0.435667346211979  1.0000
  N   N5        1.0  0.638529425954367  0.3932065183628383  0.424276930881213  1.0000
  N   N6        1.0  0.1385300235488884  0.6067923949929084  0.0757219208969034  1.0000
  N   N7        1.0  0.36146906820112423  0.6067927190391631  0.5757221096310445  1.0000
  N   N8        1.0  0.8614707949778975  0.3932068424089082  0.9242771196162423  1.0000
  O   O1        1.0  0.0465120409766655  0.9648198969696016  0.6613882079625243  1.0000
  O   O2        1.0  0.5465104192791586  0.03518072927199262  0.8386118973523367  1.0000
  O   O3        1.0  0.9534887775500136  0.03518035555710241  0.33861117686490866  1.0000
  O   O4        1.0  0.4534880748769369  0.9648195248605731  0.16138826010868013  1.0000
  O   O5        1.0  0.9108851547096108  0.7796026131060361  0.431839162502243  1.0000
  O   O6        1.0  0.41088838161974195  0.2203982857262049  0.06815904093482322  1.0000
  O   O7        1.0  0.08911333944436708  0.2203976362094764  0.5681586770553366  1.0000
  O   O8        1.0  0.5891124369069374  0.779601966800499  0.9318403438926097  1.0000
