data_image0
_chemical_formula_structural       Zn4H48C48N24O16
_chemical_formula_sum              "Zn4 H48 C48 N24 O16"
_cell_length_a       9.52310366851889
_cell_length_b       18.57215809515717
_cell_length_c       18.643274648340128
_cell_angle_alpha    90.42945452268789
_cell_angle_beta     90.09195071551706
_cell_angle_gamma    89.90840595415763

_space_group_name_H-M_alt    "P 1"
_space_group_IT_number       1

loop_
  _space_group_symop_operation_xyz
  'x, y, z'

loop_
  _atom_site_type_symbol
  _atom_site_label
  _atom_site_symmetry_multiplicity
  _atom_site_fract_x
  _atom_site_fract_y
  _atom_site_fract_z
  _atom_site_occupancy
  Zn  Zn1       1.0  0.39400722686307427  0.9988529951949872  0.4937940859911406  1.0000
  Zn  Zn2       1.0  0.6651205826945629  0.9892672292831861  0.5024905266110977  1.0000
  Zn  Zn3       1.0  0.6060225589730522  0.49331656399247953  0.9991938009589559  1.0000
  Zn  Zn4       1.0  0.33487357112795735  0.502045590405082  0.9896951763127998  1.0000
  H   H1        1.0  0.8205389437236621  0.886725058946176  0.36171626277272395  1.0000
  H   H2        1.0  0.8821850360331001  0.8628743040066311  0.2791062597523677  1.0000
  H   H3        1.0  0.8455006258882564  0.7699142109156795  0.17784357652938348  1.0000
  H   H4        1.0  0.8976283751113883  0.7539783656284198  0.2610461559958565  1.0000
  H   H5        1.0  0.6661368892574375  0.5960674093140169  0.13078183388572023  1.0000
  H   H6        1.0  0.7625893406083719  0.6573735767163883  0.18847942511274596  1.0000
  H   H7        1.0  0.17060815591718642  0.6371642813009047  0.10062143351686359  1.0000
  H   H8        1.0  0.09399836235094482  0.7102735620404275  0.1426944989293801  1.0000
  H   H9        1.0  0.1325857238512498  0.8079112093869725  0.229041534668866  1.0000
  H   H10       1.0  0.09360400266755421  0.7238705849233114  0.251443388693076  1.0000
  H   H11       1.0  0.325419445007917  0.857104456396712  0.4012028981801236  1.0000
  H   H12       1.0  0.22885583918687766  0.7998756567006425  0.33991450655716443  1.0000
  H   H13       1.0  0.8292168123863918  0.0997083861553349  0.6377806246125955  1.0000
  H   H14       1.0  0.9059287069002483  0.1417348571935975  0.7107381824612914  1.0000
  H   H15       1.0  0.8669272478442025  0.22807097485797104  0.8086771243899731  1.0000
  H   H16       1.0  0.9061961744918892  0.250659213211577  0.7249957275783386  1.0000
  H   H17       1.0  0.6741351271787865  0.40077205895909174  0.8576748567288559  1.0000
  H   H18       1.0  0.7706797649903552  0.3393590218205489  0.8005744982462415  1.0000
  H   H19       1.0  0.17928030802941924  0.36070015477620376  0.887541753721983  1.0000
  H   H20       1.0  0.11849076240766722  0.277479874506156  0.8644748707582508  1.0000
  H   H21       1.0  0.15494020576021947  0.17590878593387058  0.7709056771840536  1.0000
  H   H22       1.0  0.10206019297297081  0.259462317933604  0.7558841351755132  1.0000
  H   H23       1.0  0.33339169228846544  0.1298395647503767  0.5972731689419816  1.0000
  H   H24       1.0  0.23696660452996102  0.1873046169146804  0.6587925866149787  1.0000
  H   H25       1.0  0.7555889476057303  0.1241893353911294  0.41340086359041806  1.0000
  H   H26       1.0  0.8455417821317114  0.19806505854328552  0.3839341249285936  1.0000
  H   H27       1.0  0.8560705329985511  0.2913881707612731  0.2905270091272953  1.0000
  H   H28       1.0  0.8957325071369767  0.20589904335714243  0.2750266860862496  1.0000
  H   H29       1.0  0.7347234173279347  0.3459097371051811  0.10823915715459259  1.0000
  H   H30       1.0  0.7995460692687858  0.2824145151377521  0.17275442121382403  1.0000
  H   H31       1.0  0.24469485634087115  0.41241784076948557  0.12357944097473708  1.0000
  H   H32       1.0  0.15465267571880054  0.3832534732609645  0.1973203907535179  1.0000
  H   H33       1.0  0.14416405826637665  0.2899696518003693  0.29092080816963767  1.0000
  H   H34       1.0  0.1050480693318647  0.27398505340794094  0.20576631545998939  1.0000
  H   H35       1.0  0.2661768169513223  0.10751329375718649  0.3462817859035496  1.0000
  H   H36       1.0  0.20141925769975444  0.1717978595450091  0.28254104626572735  1.0000
  H   H37       1.0  0.204015553578337  0.9035252071598519  0.6300296447233008  1.0000
  H   H38       1.0  0.1163787135168377  0.8711746290976803  0.7038671633428564  1.0000
  H   H39       1.0  0.1343398605675432  0.792368522757627  0.8054836297112542  1.0000
  H   H40       1.0  0.1004550775632254  0.7637153264805576  0.7230498595556227  1.0000
  H   H41       1.0  0.2986347543832224  0.6114818599206586  0.8642912044370943  1.0000
  H   H42       1.0  0.2161349564851704  0.6770340025599779  0.8059529201266784  1.0000
  H   H43       1.0  0.7955860025229741  0.6303149093730338  0.904412718639854  1.0000
  H   H44       1.0  0.88256489064036  0.7047577574659343  0.8726119303666521  1.0000
  H   H45       1.0  0.8649207637738315  0.8063157832021657  0.792782714100859  1.0000
  H   H46       1.0  0.8995367342349427  0.7232627390548956  0.7653790071958821  1.0000
  H   H47       1.0  0.7014097717631742  0.8639938517312158  0.612169952510392  1.0000
  H   H48       1.0  0.7839347713862709  0.8059533656634911  0.6779564063465456  1.0000
  C   C1        1.0  0.45497913794994826  0.9031359084848701  0.5987352939290956  1.0000
  C   C2        1.0  0.5759637446655291  0.8919954740681748  0.4032812950193331  1.0000
  C   C3        1.0  0.5033712243269336  0.09122959600443886  0.39732946222815707  1.0000
  C   C4        1.0  0.583461854423625  0.09358930399382359  0.5959620856406003  1.0000
  C   C5        1.0  0.49719406619085055  0.3964718306881493  0.09120161791079077  1.0000
  C   C6        1.0  0.4164460592333087  0.5953415420163067  0.09419204315187098  1.0000
  C   C7        1.0  0.5448134007217079  0.5985930113321132  0.9037785786501971  1.0000
  C   C8        1.0  0.4236421543365766  0.4026176780906923  0.892641390717429  1.0000
  C   C9        1.0  0.5517015998004383  0.6726426517397143  0.18150582041404553  1.0000
  C   C10       1.0  0.2951283423523279  0.6871516116002068  0.17394691123411116  1.0000
  C   C11       1.0  0.3001057569628785  0.7369281072165491  0.23036517006809723  1.0000
  C   C12       1.0  0.4307767925235737  0.7599108404851479  0.2610979264203905  1.0000
  C   C13       1.0  0.43887775462759765  0.8079514910700636  0.3232396159307029  1.0000
  C   C14       1.0  0.6948247351540433  0.8177900945133062  0.3068249609549056  1.0000
  C   C15       1.0  0.6891744181483831  0.7644185061175648  0.25400801262301786  1.0000
  C   C16       1.0  0.5587590787566584  0.7331328348633975  0.23157240043554583  1.0000
  C   C17       1.0  0.42061922300288773  0.6513460168824351  0.14982549552919974  1.0000
  C   C18       1.0  0.5704207525902305  0.8387186378487498  0.3450768132357922  1.0000
  C   C19       1.0  0.5607370877503327  0.3224273957942572  0.80879137023701  1.0000
  C   C20       1.0  0.3049200147338738  0.30565080964424135  0.8188274927174033  1.0000
  C   C21       1.0  0.31058088165049474  0.25273031011516184  0.7655787491187807  1.0000
  C   C22       1.0  0.44093636445864354  0.2304404869106094  0.7341861522694515  1.0000
  C   C23       1.0  0.4479713862585442  0.1804440170624062  0.6737233525390847  1.0000
  C   C24       1.0  0.7046207458906582  0.17303421842734681  0.6879507528302824  1.0000
  C   C25       1.0  0.6995955313677983  0.22941155871586016  0.7378313863225756  1.0000
  C   C26       1.0  0.5689011152816335  0.2601177564734769  0.7608511686846808  1.0000
  C   C27       1.0  0.42921898255669794  0.34419956674119584  0.8395464901052064  1.0000
  C   C28       1.0  0.5791364718911894  0.14895511069304485  0.6521944761886613  1.0000
  C   C29       1.0  0.590738318971468  0.3024059907473244  0.17524271217759238  1.0000
  C   C30       1.0  0.337506909753614  0.33019186493553576  0.1762589872515932  1.0000
  C   C31       1.0  0.31539381423258567  0.2745771156555321  0.2248464263401431  1.0000
  C   C32       1.0  0.43025339230477044  0.23484696056276272  0.2543022724429918  1.0000
  C   C33       1.0  0.4100432955364255  0.17477027580764568  0.3028572423429593  1.0000
  C   C34       1.0  0.6630510095972327  0.1763540284402154  0.3309437501344519  1.0000
  C   C35       1.0  0.6852775505994162  0.22477677610380914  0.27524977220422636  1.0000
  C   C36       1.0  0.5704757040741981  0.25397854219133364  0.2353391161805405  1.0000
  C   C37       1.0  0.475840096501372  0.34279671194121153  0.14728486610818686  1.0000
  C   C38       1.0  0.5247945016211305  0.14719026235329835  0.3435140979553565  1.0000
  C   C39       1.0  0.42752354142919563  0.6838717053427031  0.8179374142503164  1.0000
  C   C40       1.0  0.6846504738320719  0.6888270383137539  0.8323260600873111  1.0000
  C   C41       1.0  0.6913789963652661  0.7411721125070513  0.7791756028958545  1.0000
  C   C42       1.0  0.5670664185712299  0.7685467723066992  0.7450763966265084  1.0000
  C   C43       1.0  0.5724191187438025  0.817694013081777  0.6843880204681625  1.0000
  C   C44       1.0  0.3151284909755248  0.8315370368966409  0.6887174141414076  1.0000
  C   C45       1.0  0.3084430084901868  0.778409004165823  0.7410826955085668  1.0000
  C   C46       1.0  0.4328405607655342  0.7445942706723442  0.7687413210345895  1.0000
  C   C47       1.0  0.5527492864867797  0.6566926298298481  0.851258557797358  1.0000
  C   C48       1.0  0.4471010099979935  0.8507078184096173  0.6568813287640508  1.0000
  N   N1        1.0  0.825961957723216  0.8478981034790178  0.3227870425809343  1.0000
  N   N2        1.0  0.8219567737709286  0.7424495201619976  0.22373150620986584  1.0000
  N   N3        1.0  0.6715081283749454  0.6362668387136381  0.1678871431642577  1.0000
  N   N4        1.0  0.16502288425768094  0.6696556947361287  0.144860051848724  1.0000
  N   N5        1.0  0.16714408215504764  0.7635862539805346  0.2563113572538426  1.0000
  N   N6        1.0  0.32029252317897067  0.8202498336954491  0.36084893596942885  1.0000
  N   N7        1.0  0.8347191696415949  0.14395447829082286  0.6703633861294519  1.0000
  N   N8        1.0  0.832485326653007  0.25541232869140634  0.7644855457483928  1.0000
  N   N9        1.0  0.6792162068727875  0.3603160295977474  0.8209091427738568  1.0000
  N   N10       1.0  0.17379844186734061  0.3214531087300969  0.8490237294905538  1.0000
  N   N11       1.0  0.17781743548879092  0.22222885710701945  0.743832925320504  1.0000
  N   N12       1.0  0.3280104138781327  0.16673961774245777  0.637629272788061  1.0000
  N   N13       1.0  0.7798611830670839  0.156740537038658  0.3716045628763992  1.0000
  N   N14       1.0  0.82819436090778  0.2464889742977191  0.2616568017116023  1.0000
  N   N15       1.0  0.7194571647653305  0.30640025271635807  0.1448836043644945  1.0000
  N   N16       1.0  0.2205476360940466  0.3706779638469015  0.15630201476523098  1.0000
  N   N17       1.0  0.1724392117900493  0.2608425910689149  0.2463569218182116  1.0000
  N   N18       1.0  0.28151134792019405  0.14408119061206998  0.3067361769974396  1.0000
  N   N19       1.0  0.19028802445897952  0.8627279730471854  0.6656372306888798  1.0000
  N   N20       1.0  0.16909780527225848  0.7591806942076715  0.7650695903770383  1.0000
  N   N21       1.0  0.3017625590434392  0.6528604117122256  0.829105010829501  1.0000
  N   N22       1.0  0.8094720779195157  0.6660554929395629  0.8637807081054302  1.0000
  N   N23       1.0  0.8307568445727541  0.7652994722805956  0.7601084152856072  1.0000
  N   N24       1.0  0.6983659187881771  0.8291230777038548  0.6537724433251028  1.0000
  O   O1        1.0  0.341435307290567  0.9326355789039981  0.5717948455603121  1.0000
  O   O2        1.0  0.5760318990313422  0.9207254677008622  0.5737775489216261  1.0000
  O   O3        1.0  0.6965016546892642  0.9142199334928307  0.4291309071149669  1.0000
  O   O4        1.0  0.4604959450032027  0.9173279930781885  0.4290292272005586  1.0000
  O   O5        1.0  0.6119788841225002  0.0628616899366889  0.4269652412633106  1.0000
  O   O6        1.0  0.3774670628213812  0.0699712087166873  0.4158108537666151  1.0000
  O   O7        1.0  0.4685957076151652  0.07437432635533979  0.5648498988947848  1.0000
  O   O8        1.0  0.7022173672252522  0.06297837417976382  0.5768816944355207  1.0000
  O   O9        1.0  0.6230876464469759  0.4151318725650057  0.07008990947803538  1.0000
  O   O10       1.0  0.38856438253507264  0.4258084535933762  0.062544995774843  1.0000
  O   O11       1.0  0.2977203139700322  0.5763040834613237  0.06358431211722149  1.0000
  O   O12       1.0  0.5314085470193248  0.5644182708825412  0.0747073394555997  1.0000
  O   O13       1.0  0.423727042563698  0.5737882369940763  0.9215856288712629  1.0000
  O   O14       1.0  0.658377173408347  0.5715586879895086  0.9331572327439233  1.0000
  O   O15       1.0  0.5391030727781754  0.42842553219522017  0.9179166938188743  1.0000
  O   O16       1.0  0.3031138310059944  0.4286323931316716  0.9147150194022725  1.0000
