data_image0
_chemical_formula_structural       Zn2H4C28Br6N2O8
_chemical_formula_sum              "Zn2 H4 C28 Br6 N2 O8"
_cell_length_a       14.001657027285136
_cell_length_b       14.849540648924576
_cell_length_c       16.21313104906706
_cell_angle_alpha    89.0617258055237
_cell_angle_beta     90.47537529947034
_cell_angle_gamma    97.18665594710862

_space_group_name_H-M_alt    "P 1"
_space_group_IT_number       1

loop_
  _space_group_symop_operation_xyz
  'x, y, z'

loop_
  _atom_site_type_symbol
  _atom_site_label
  _atom_site_symmetry_multiplicity
  _atom_site_fract_x
  _atom_site_fract_y
  _atom_site_fract_z
  _atom_site_occupancy
  Zn  Zn1       1.0  0.4997405502818425  0.4050273958247885  0.5015092871938764  1.0000
  Zn  Zn2       1.0  0.5002558414326544  0.5949662405231707  0.498483908304692  1.0000
  H   H1        1.0  0.9756784425203409  0.3957820692262501  0.5000254037007466  1.0000
  H   H2        1.0  0.024322623560614383  0.6042468836947634  0.49996504021892474  1.0000
  H   H3        1.0  0.4953947878755187  0.9165126079230675  0.3673139350417359  1.0000
  H   H4        1.0  0.5046044902620324  0.0834646465535087  0.6326917460747481  1.0000
  C   C1        1.0  0.4996430355221549  0.4993431437191447  0.3391602822503046  1.0000
  C   C2        1.0  0.5003526624369954  0.5006450127823356  0.6608397423150266  1.0000
  C   C3        1.0  0.4996722553337849  0.49929483223302645  0.24983044717767208  1.0000
  C   C4        1.0  0.5003171915630206  0.500700131217414  0.7501670303905783  1.0000
  C   C5        1.0  0.5014750218389423  0.0477124172260304  0.42391181350448204  1.0000
  C   C6        1.0  0.49853630042969865  0.9522641704690145  0.576092064939921  1.0000
  C   C7        1.0  0.5039828910720345  0.0940444414222483  0.4994952551665365  1.0000
  C   C8        1.0  0.49602174838385343  0.905940967362767  0.5005091416394833  1.0000
  C   C9        1.0  0.5025958674125094  0.0463190218895164  0.5751843465422442  1.0000
  C   C10       1.0  0.497413486600145  0.9536643767398872  0.42481638302431435  1.0000
  C   C11       1.0  0.5069516477483449  0.1899156022883446  0.5004299797905176  1.0000
  C   C12       1.0  0.49306157017791463  0.8100806757559554  0.4995731208243157  1.0000
  C   C13       1.0  0.312954301584938  0.47128485181196583  0.4997790790976282  1.0000
  C   C14       1.0  0.6870433608329805  0.5287500810535519  0.5002291893095432  1.0000
  C   C15       1.0  0.7910008715389552  0.537444524534493  0.5001758731460484  1.0000
  C   C16       1.0  0.20898827650899685  0.4625748230911456  0.4998287974044899  1.0000
  C   C17       1.0  0.9786448793803335  0.5389002826392615  0.5000298686319982  1.0000
  C   C18       1.0  0.021356467540265094  0.4611097615551003  0.4999471675934828  1.0000
  C   C19       1.0  0.12160437707611751  0.4612381898316898  0.49989893376155703  1.0000
  C   C20       1.0  0.8783850745214323  0.5387885756141131  0.5001124595259087  1.0000
  C   C21       1.0  0.49951870758926015  0.4178789064404427  0.9577722675637335  1.0000
  C   C22       1.0  0.5004507139529509  0.5821052249142509  0.04222153148084121  1.0000
  C   C23       1.0  0.5000605743934372  0.5004741152425184  0.9122231844367905  1.0000
  C   C24       1.0  0.49992486083853294  0.4995174365976356  0.08777677538115823  1.0000
  C   C25       1.0  0.5005335821862573  0.5824915724365879  0.956128171331436  1.0000
  C   C26       1.0  0.4994841692348829  0.4175067818972095  0.0438693762099973  1.0000
  C   C27       1.0  0.5002279667504724  0.5008937597543976  0.8252842769801776  1.0000
  C   C28       1.0  0.49976031065212123  0.4990978186383188  0.17471199171883714  1.0000
  Br  Br1       1.0  0.4987178587814115  0.3082153985114005  0.1051353617762487  1.0000
  Br  Br2       1.0  0.5012935288648706  0.6917782405843697  0.8948572692639447  1.0000
  Br  Br3       1.0  0.4989057007345537  0.3094512520037824  0.8987135189813459  1.0000
  Br  Br4       1.0  0.5011126610550676  0.6905410062243361  0.10128223218563191  1.0000
  Br  Br5       1.0  0.5036848790231048  0.11256325508922771  0.323316996284028  1.0000
  Br  Br6       1.0  0.49631378810734367  0.8874092118023782  0.6766936578851174  1.0000
  N   N1        1.0  0.49139739929632514  0.7319108972456122  0.4968558614698964  1.0000
  N   N2        1.0  0.5086080166631392  0.2680806836473906  0.5031398502552237  1.0000
  O   O1        1.0  0.4984383469461094  0.4222803957433854  0.3749520837327367  1.0000
  O   O2        1.0  0.5015635117317814  0.5777166027651078  0.6250454198525405  1.0000
  O   O3        1.0  0.5008446474179423  0.5764321831031864  0.372645711486321  1.0000
  O   O4        1.0  0.4991509928696304  0.4235661200231249  0.6273591609119862  1.0000
  O   O5        1.0  0.3524103152432829  0.39843672054447404  0.5007647052155948  1.0000
  O   O6        1.0  0.6475830594806665  0.6015982172965053  0.499242931372919  1.0000
  O   O7        1.0  0.3552662537324451  0.5525374296855218  0.49875640351184825  1.0000
  O   O8        1.0  0.6447413386145231  0.4475022269663569  0.5012555601712806  1.0000
