data_image0
_chemical_formula_structural       Cd2H16C20N28
_chemical_formula_sum              "Cd2 H16 C20 N28"
_cell_length_a       8.234882413099493
_cell_length_b       8.501284570844122
_cell_length_c       12.07720785920923
_cell_angle_alpha    82.61159659126542
_cell_angle_beta     70.47671628863704
_cell_angle_gamma    79.98140315674611

_space_group_name_H-M_alt    "P 1"
_space_group_IT_number       1

loop_
  _space_group_symop_operation_xyz
  'x, y, z'

loop_
  _atom_site_type_symbol
  _atom_site_label
  _atom_site_symmetry_multiplicity
  _atom_site_fract_x
  _atom_site_fract_y
  _atom_site_fract_z
  _atom_site_occupancy
  Cd  Cd1       1.0  0.03918278562453276  0.791569557041946  0.47804240780658347  1.0000
  Cd  Cd2       1.0  0.9608158500037478  0.2084318609646942  0.5219565748520337  1.0000
  H   H1        1.0  0.16978126369389915  0.8261334919409721  0.1940096115758081  1.0000
  H   H2        1.0  0.8302214209181003  0.17386671854875863  0.8059893793132317  1.0000
  H   H3        1.0  0.43949410670357036  0.8488323241629345  0.022499299301181  1.0000
  H   H4        1.0  0.5605089378936655  0.151165492890442  0.9775006576481072  1.0000
  H   H5        1.0  0.7237456078903648  0.8037319708856288  0.27188162341742117  1.0000
  H   H6        1.0  0.2762559696257654  0.1962670481344588  0.7281185600320439  1.0000
  H   H7        1.0  0.4393045756347576  0.788938409564267  0.432385076856569  1.0000
  H   H8        1.0  0.5606966457589734  0.21106300536562367  0.5676149674282414  1.0000
  H   H9        1.0  0.9022290201709566  0.7006555999984415  0.7619032526236964  1.0000
  H   H10       1.0  0.09776980510699931  0.2993446274736229  0.2380982803040367  1.0000
  H   H11       1.0  0.6488056252138819  0.597531502136377  0.9178598797484695  1.0000
  H   H12       1.0  0.35119172525732983  0.40246992235552176  0.08214022588824574  1.0000
  H   H13       1.0  0.38214834629001615  0.6619404793318112  0.6571367025885875  1.0000
  H   H14       1.0  0.6178521164045918  0.33805734327175685  0.3428630196301085  1.0000
  H   H15       1.0  0.6457652428712208  0.7661075394129072  0.5141041052930291  1.0000
  H   H16       1.0  0.3542346895026114  0.23389387952880017  0.48589623507427854  1.0000
  C   C1        1.0  0.294366679703991  0.8242287722743741  0.20746253887084976  1.0000
  C   C2        1.0  0.7056348978121392  0.17577024674571362  0.7925376445786154  1.0000
  C   C3        1.0  0.4445074684821577  0.836005267504497  0.1121290434114996  1.0000
  C   C4        1.0  0.5554939271099499  0.16399494699705036  0.8878702435600443  1.0000
  C   C5        1.0  0.6027915286062253  0.8293587386596714  0.13362900082267962  1.0000
  C   C6        1.0  0.3972096927875058  0.1706426762702122  0.8663710434621308  1.0000
  C   C7        1.0  0.6036287338785229  0.81132804068492  0.2507734257563499  1.0000
  C   C8        1.0  0.39637266171358493  0.18867217381662738  0.7492258612151872  1.0000
  C   C9        1.0  0.4464196174365115  0.802041606990315  0.33999683185047747  1.0000
  C   C10       1.0  0.5535828929771186  0.19795980392775187  0.6600029163518214  1.0000
  C   C11       1.0  0.7840512634611799  0.6923034551302578  0.742622950963934  1.0000
  C   C12       1.0  0.2159473837555765  0.30769797029670093  0.2573785123814715  1.0000
  C   C13       1.0  0.6434780949913306  0.6356134855048766  0.8294191722323986  1.0000
  C   C14       1.0  0.3565220154437014  0.3643867354819221  0.17058123771723635  1.0000
  C   C15       1.0  0.4949908800319777  0.6254125020598805  0.8001974004320115  1.0000
  C   C16       1.0  0.5050108678197063  0.3745853140584289  0.19980119880859348  1.0000
  C   C17       1.0  0.4930556558461421  0.6718194508988518  0.6848173948660443  1.0000
  C   C18       1.0  0.5069462739295645  0.328177169737998  0.31518210085248194  1.0000
  C   C19       1.0  0.6398529828627135  0.7277171291074823  0.6048411028897006  1.0000
  C   C20       1.0  0.3601473056335251  0.27228189392442914  0.3951593766422619  1.0000
  N   N1        1.0  0.120884492616149  0.9699808042819669  0.5800701389352696  1.0000
  N   N2        1.0  0.8791141468749617  0.030020616198108002  0.4199296706189414  1.0000
  N   N3        1.0  0.12476939107910567  0.9394335151608147  0.6796327703003798  1.0000
  N   N4        1.0  0.875229240686352  0.0605679003723836  0.32036538546264376  1.0000
  N   N5        1.0  0.13236722942937007  0.9098805914832371  0.7750933575945139  1.0000
  N   N6        1.0  0.8676326990816393  0.0901208249850285  0.22490615587719984  1.0000
  N   N7        1.0  0.1908080790363229  0.5777944619990407  0.5707916387124212  1.0000
  N   N8        1.0  0.8091905604547877  0.4222069584810343  0.42920817084179663  1.0000
  N   N9        1.0  0.1212613023362508  0.46208270692102366  0.6080141127463321  1.0000
  N   N10       1.0  0.8787386261747587  0.5379187095472349  0.3919854007253817  1.0000
  N   N11       1.0  0.0543797034655711  0.34543077957709306  0.6470039831645734  1.0000
  N   N12       1.0  0.9456202250454314  0.6545706368911722  0.3529955303071403  1.0000
  N   N13       1.0  0.29419426799250203  0.8081278346375811  0.31987436412907744  1.0000
  N   N14       1.0  0.7058095275782037  0.19187356979523432  0.6801242610951304  1.0000
  N   N15       1.0  0.7517156424954692  0.8391993646483016  0.034809289337083285  1.0000
  N   N16       1.0  0.24828576082228443  0.16080085480012937  0.9651916514256484  1.0000
  N   N17       1.0  0.8958095596635051  0.8275219118132355  0.04869979066749144  1.0000
  N   N18       1.0  0.10419166173022629  0.17247950311664792  0.9513002536173119  1.0000
  N   N19       1.0  0.0373169809837037  0.8169648976746657  0.046058787181536276  1.0000
  N   N20       1.0  0.962684062348828  0.18303771521011916  0.9539411875209395  1.0000
  N   N21       1.0  0.7836071323001619  0.7377344670986548  0.6317089090058872  1.0000
  N   N22       1.0  0.21639426329194575  0.26226574740289277  0.3682903779656498  1.0000
  N   N23       1.0  0.3562071765678568  0.5670674821103746  0.8905038955409167  1.0000
  N   N24       1.0  0.6437903519645545  0.43293274442662283  0.10949627967813305  1.0000
  N   N25       1.0  0.2201513709193748  0.5568008494261321  0.8717866610720363  1.0000
  N   N26       1.0  0.7798472685717356  0.44320057105394994  0.1282131484821747  1.0000
  N   N27       1.0  0.08684010940559969  0.537618804400431  0.8698136307951997  1.0000
  N   N28       1.0  0.9131587042838804  0.46238141565130764  0.13018542144574496  1.0000
