data_image0
_chemical_formula_structural       Cu2P2H18C22N4O12
_chemical_formula_sum              "Cu2 P2 H18 C22 N4 O12"
_cell_length_a       8.16786635122246
_cell_length_b       8.729870677427353
_cell_length_c       9.444120113949024
_cell_angle_alpha    103.43115168212275
_cell_angle_beta     105.59591191571646
_cell_angle_gamma    103.98851204203321

_space_group_name_H-M_alt    "P 1"
_space_group_IT_number       1

loop_
  _space_group_symop_operation_xyz
  'x, y, z'

loop_
  _atom_site_type_symbol
  _atom_site_label
  _atom_site_symmetry_multiplicity
  _atom_site_fract_x
  _atom_site_fract_y
  _atom_site_fract_z
  _atom_site_occupancy
  Cu  Cu1       1.0  0.604785170933532  0.7502328849397273  0.7482748914286076  1.0000
  Cu  Cu2       1.0  0.39521553892233635  0.2497675057218913  0.25172529391772247  1.0000
  P   P1        1.0  0.7134895386097568  0.46019086933685577  0.5806378161090818  1.0000
  P   P2        1.0  0.28651286206068255  0.5398070466672991  0.4193622128146614  1.0000
  H   H1        1.0  0.7577910218383438  0.5215564857207724  0.3796906957713232  1.0000
  H   H2        1.0  0.24220841423156972  0.4784438972173817  0.6203091884452829  1.0000
  H   H3        1.0  0.9578666079734007  0.434239050702395  0.7277798505664987  1.0000
  H   H4        1.0  0.04213409290149883  0.565761325342315  0.2722213883352324  1.0000
  H   H5        1.0  0.8726603550983044  0.6735937568153788  0.9853440347815617  1.0000
  H   H6        1.0  0.12733737880697762  0.3264053733471144  0.014655168964303316  1.0000
  H   H7        1.0  0.07075624316448166  0.8220737442936821  0.2639912091547813  1.0000
  H   H8        1.0  0.9292444666913939  0.1779266463679363  0.7360089761915488  1.0000
  H   H9        1.0  0.06402855213382001  0.1095803476056076  0.3919139383369127  1.0000
  H   H10       1.0  0.9359666431805209  0.8904187817268648  0.6080836095940966  1.0000
  H   H11       1.0  0.8665777011705559  0.22940656565554457  0.24385221165469764  1.0000
  H   H12       1.0  0.13341749414378515  0.7705925636769281  0.7561453362763116  1.0000
  H   H13       1.0  0.499878216329222  0.3999730001569048  0.8643732575324703  1.0000
  H   H14       1.0  0.5001233299529559  0.6000261385590661  0.13562790315796752  1.0000
  H   H15       1.0  0.33526115519419625  0.1877074900318263  0.6049135900256244  1.0000
  H   H16       1.0  0.6647412478453347  0.812294138788552  0.39508832934684784  1.0000
  H   H17       1.0  0.37799350818396965  0.9037406179587746  0.5602158877761666  1.0000
  H   H18       1.0  0.6220042167403367  0.09625849758680971  0.4397843695250998  1.0000
  C   C1        1.0  0.8754344211679669  0.796712085578058  0.04753062820812215  1.0000
  C   C2        1.0  0.1245650059209709  0.20328828274318061  0.9524703095638852  1.0000
  C   C3        1.0  0.9849160036045745  0.8804581954314442  0.20191842863937373  1.0000
  C   C4        1.0  0.015085152591929314  0.119543469516195  0.7980800289371498  1.0000
  C   C5        1.0  0.9810163933760095  0.037745386134624  0.271996479102377  1.0000
  C   C6        1.0  0.018981777888925088  0.9622550036969811  0.7280020504290972  1.0000
  C   C7        1.0  0.8696088193575878  0.1074906627551897  0.18717661917681028  1.0000
  C   C8        1.0  0.13038764974271547  0.8925084743007546  0.8128212298839228  1.0000
  C   C9        1.0  0.7662087504801037  0.0198940861696002  0.03179880916355427  1.0000
  C   C10       1.0  0.23379069457078575  0.9801063113854624  0.9682000214976438  1.0000
  C   C11       1.0  0.6492506904330639  0.080321510250684  0.9247148494088362  1.0000
  C   C12       1.0  0.35075086483009  0.9196776430822027  0.07528525772620041  1.0000
  C   C13       1.0  0.6310942735174621  0.23944858474416006  0.9576557235719886  1.0000
  C   C14       1.0  0.368904734173782  0.7605505531417979  0.042343781303600427  1.0000
  C   C15       1.0  0.5145689604972078  0.27675756489837505  0.8420256569357673  1.0000
  C   C16       1.0  0.48543132097999125  0.723241580711047  0.15797414906953822  1.0000
  C   C17       1.0  0.42154708789342277  0.15814428734259414  0.6971156727824377  1.0000
  C   C18       1.0  0.5784519108168455  0.8418548359264476  0.3028848856485594  1.0000
  C   C19       1.0  0.4461952341563205  0.0030158802042024066  0.670780519778084  1.0000
  C   C20       1.0  0.5538029191466621  0.9969844803935785  0.32922011686419944  1.0000
  C   C21       1.0  0.7378688226428805  0.3783718785448045  0.10797660883046226  1.0000
  C   C22       1.0  0.2621289022814181  0.6216272370007798  0.892023648470804  1.0000
  N   N1        1.0  0.7702120438140484  0.8652094071201047  0.9660756088395741  1.0000
  N   N2        1.0  0.22978868400378624  0.134791012775338  0.03392246939593951  1.0000
  N   N3        1.0  0.5563571555329928  0.9665271354078084  0.7816362068669773  1.0000
  N   N4        1.0  0.44364228053692045  0.03347324753034539  0.21836367734962175  1.0000
  O   O1        1.0  0.7050272070431947  0.5692193817856008  0.7290128622043139  1.0000
  O   O2        1.0  0.2949747855796191  0.43078103121639805  0.2709865707163316  1.0000
  O   O3        1.0  0.537712663669396  0.32701225905829295  0.47094472060092574  1.0000
  O   O4        1.0  0.4622880461864796  0.6729881316033257  0.5290554647453972  1.0000
  O   O5        1.0  0.7975857449739437  0.5790947738069008  0.49615777357733737  1.0000
  O   O6        1.0  0.20241453650324817  0.42090437180252144  0.5038420324279754  1.0000
  O   O7        1.0  0.8466066291938505  0.36168439978277434  0.6311132384614025  1.0000
  O   O8        1.0  0.1533957804575651  0.638313530838289  0.3688857369069395  1.0000
  O   O9        1.0  0.6580333422905228  0.4094926825065457  0.2046434640964847  1.0000
  O   O10       1.0  0.34196438263377626  0.5905064330390387  0.7953567932047887  1.0000
  O   O11       1.0  0.895887476000084  0.45480954043632954  0.12108828460620906  1.0000
  O   O12       1.0  0.10410896615727686  0.5451895527688747  0.8789127251207488  1.0000
