data_image0
_chemical_formula_structural       Zn2H6C16Br6N4O8
_chemical_formula_sum              "Zn2 H6 C16 Br6 N4 O8"
_cell_length_a       10.544197192091358
_cell_length_b       11.218578527458886
_cell_length_c       13.35652591968053
_cell_angle_alpha    84.14860337636124
_cell_angle_beta     73.62004079209193
_cell_angle_gamma    87.44462227453616

_space_group_name_H-M_alt    "P 1"
_space_group_IT_number       1

loop_
  _space_group_symop_operation_xyz
  'x, y, z'

loop_
  _atom_site_type_symbol
  _atom_site_label
  _atom_site_symmetry_multiplicity
  _atom_site_fract_x
  _atom_site_fract_y
  _atom_site_fract_z
  _atom_site_occupancy
  Zn  Zn1       1.0  0.6416457238771329  0.5097102440867474  0.49364320646230914  1.0000
  Zn  Zn2       1.0  0.35835399314419186  0.4902790100863044  0.5063618505537661  1.0000
  H   H1        1.0  0.6189164113774976  0.10059871271835873  0.5843443349398499  1.0000
  H   H2        1.0  0.3810882271464919  0.8993916033584243  0.4156581125220243  1.0000
  H   H3        1.0  0.7557594114489277  0.5389229247221721  0.9094137264299675  1.0000
  H   H4        1.0  0.6407129621351898  0.5389889305729483  0.8397502726396696  1.0000
  H   H5        1.0  0.2442314235845586  0.4610941012038694  0.09058989742275969  1.0000
  H   H6        1.0  0.35927766021215746  0.46103331738412123  0.1602554380968542  1.0000
  C   C1        1.0  0.4508605868136826  0.726200715502124  0.4729081245975948  1.0000
  C   C2        1.0  0.9278065057957929  0.5047779330342266  0.5162093011960779  1.0000
  C   C3        1.0  0.5961461526660656  0.4908342231451287  0.09566905963836099  1.0000
  C   C4        1.0  0.4038491683100318  0.509167550409785  0.9043357005853921  1.0000
  C   C5        1.0  0.4441852685804192  0.859297318805716  0.46266212863754674  1.0000
  C   C6        1.0  0.5558254213379354  0.140690591739066  0.5373361031447461  1.0000
  C   C7        1.0  0.5040894391032751  0.9344862996939229  0.5069419258628403  1.0000
  C   C8        1.0  0.49593223613584303  0.06549922612084909  0.4930517691005395  1.0000
  C   C9        1.0  0.5491450975500809  0.2737877762369436  0.5270949187833126  1.0000
  C   C10       1.0  0.5740861624074183  0.48355156266848814  0.2995138492301238  1.0000
  C   C11       1.0  0.4259077422187686  0.5164350701635172  0.7004903237487954  1.0000
  C   C12       1.0  0.40456808229548347  0.5168634141787153  0.8121445467811413  1.0000
  C   C13       1.0  0.5954247764909296  0.4831250429909916  0.18785903027874443  1.0000
  C   C14       1.0  0.4328962026830894  0.4986730998896292  0.0009806186756975055  1.0000
  C   C15       1.0  0.5670989384982335  0.5013341396438022  0.9990224623906628  1.0000
  C   C16       1.0  0.072196399135052  0.4952340378803299  0.4837896573386828  1.0000
  Br  Br1       1.0  0.8778185856307841  0.6943090013090938  0.3727295473885378  1.0000
  Br  Br2       1.0  0.12216690848227067  0.305674284596563  0.627243590994489  1.0000
  Br  Br3       1.0  0.39787674722354877  0.12938597544225425  0.39818649275012774  1.0000
  Br  Br4       1.0  0.6021588206331143  0.87060018433413  0.6017974151658976  1.0000
  Br  Br5       1.0  0.8378093093468165  0.42857137217774277  0.6513655079413994  1.0000
  Br  Br6       1.0  0.16219197741403948  0.5714795932063267  0.34865173845062714  1.0000
  N   N1        1.0  0.1589049624982195  0.43862119928578386  0.5252462665027409  1.0000
  N   N2        1.0  0.8410955262908502  0.5613777967700387  0.474746236410489  1.0000
  N   N3        1.0  0.6670021170573719  0.5113338073040481  0.9061665330674913  1.0000
  N   N4        1.0  0.3329929342265601  0.4886761652186423  0.09383570842017261  1.0000
  O   O1        1.0  0.5628227959351476  0.6762861594042492  0.466327640674848  1.0000
  O   O2        1.0  0.4371830770000783  0.32370033118800734  0.5336649441611954  1.0000
  O   O3        1.0  0.34247646039089824  0.6729772090137587  0.4842052207270058  1.0000
  O   O4        1.0  0.6575229642722177  0.3270155430356283  0.5158147565030475  1.0000
  O   O5        1.0  0.6727513266867788  0.4910381134098571  0.335023828214034  1.0000
  O   O6        1.0  0.32724400968182715  0.5089359582853917  0.6649812861657551  1.0000
  O   O7        1.0  0.45174057024381387  0.4775805584266806  0.3503416371566886  1.0000
  O   O8        1.0  0.5482518704814012  0.5224195302753287  0.6496615656312061  1.0000
