data_image0
_chemical_formula_structural       Cu4H28C34N20O8
_chemical_formula_sum              "Cu4 H28 C34 N20 O8"
_cell_length_a       9.473474736600432
_cell_length_b       9.329414796643443
_cell_length_c       14.534496685870979
_cell_angle_alpha    108.70080346889996
_cell_angle_beta     96.61685304535696
_cell_angle_gamma    89.9920827323415

_space_group_name_H-M_alt    "P 1"
_space_group_IT_number       1

loop_
  _space_group_symop_operation_xyz
  'x, y, z'

loop_
  _atom_site_type_symbol
  _atom_site_label
  _atom_site_symmetry_multiplicity
  _atom_site_fract_x
  _atom_site_fract_y
  _atom_site_fract_z
  _atom_site_occupancy
  Cu  Cu1       1.0  0.874765013685156  0.020757151127916998  0.3829520199917269  1.0000
  Cu  Cu2       1.0  0.6252530359943833  0.6376109981450069  0.6168510138884429  1.0000
  Cu  Cu3       1.0  0.1251079971650952  0.9792252738606277  0.6168244567693363  1.0000
  Cu  Cu4       1.0  0.37473105554114744  0.36243394451426514  0.3831446515665462  1.0000
  H   H1        1.0  0.12988003559193834  0.5265425329031217  0.2545794939607334  1.0000
  H   H2        1.0  0.3701135296250939  0.2716330918187779  0.7452275718990293  1.0000
  H   H3        1.0  0.8700749027089998  0.4735379584550399  0.7454707018030788  1.0000
  H   H4        1.0  0.6298621495972014  0.728350780304929  0.2547650816960214  1.0000
  H   H5        1.0  0.008197497805269892  0.7219677259195618  0.37459084941193044  1.0000
  H   H6        1.0  0.4921269191107952  0.3470503534594798  0.6253044496485671  1.0000
  H   H7        1.0  0.991749866906879  0.2781255112076124  0.625417447847866  1.0000
  H   H8        1.0  0.507859219608612  0.6528315511526727  0.37465523629072817  1.0000
  H   H9        1.0  0.059214597093614395  0.7938018501418753  0.05994704382931811  1.0000
  H   H10       1.0  0.4404106279142895  0.7334796957625257  0.9396929079139869  1.0000
  H   H11       1.0  0.9407986308266629  0.20622785505131697  0.9400615035892061  1.0000
  H   H12       1.0  0.5596640798306395  0.2665293047410272  0.06024918989373871  1.0000
  H   H13       1.0  0.9342599005932472  0.9756632369051412  0.18705194396719088  1.0000
  H   H14       1.0  0.565456654835387  0.7882836857188023  0.8126021176401181  1.0000
  H   H15       1.0  0.06566287613632228  0.0243042092891628  0.8128727771092841  1.0000
  H   H16       1.0  0.43450844083032797  0.21167404169980836  0.1872518761638275  1.0000
  H   H17       1.0  0.100752967135719  0.43142222585840523  0.031445734465371813  1.0000
  H   H18       1.0  0.3990688368764452  0.3998816889779349  0.9684423136122933  1.0000
  H   H19       1.0  0.8992386972784701  0.5686062965369203  0.9685745685679308  1.0000
  H   H20       1.0  0.600938298352105  0.6001522121723113  0.031551617687846124  1.0000
  H   H21       1.0  0.2583254915461596  0.47174380600878135  0.1120114384504092  1.0000
  H   H22       1.0  0.24155483718625703  0.35946863220380715  0.8878302696918183  1.0000
  H   H23       1.0  0.7416728010216646  0.5282688359447363  0.887999134860543  1.0000
  H   H24       1.0  0.758457487432402  0.6405652994242529  0.1121618643881561  1.0000
  H   H25       1.0  0.3282523801278003  0.6709232884903996  0.04170292866500349  1.0000
  H   H26       1.0  0.17142165944001417  0.6289421492110066  0.9578848083936506  1.0000
  H   H27       1.0  0.6717503786435515  0.32909958591374516  0.9583092304083536  1.0000
  H   H28       1.0  0.8285718159607072  0.37108518274749963  0.042130527997230174  1.0000
  C   C1        1.0  0.0887293211243048  0.6244469053264083  0.23600372878539844  1.0000
  C   C2        1.0  0.4112260817130747  0.3881178341177574  0.7637853992577845  1.0000
  C   C3        1.0  0.9112584105929216  0.3756392755885756  0.7640265415819201  1.0000
  C   C4        1.0  0.5887893320822215  0.6118495001613338  0.23620250936662043  1.0000
  C   C5        1.0  0.019105630259176096  0.7327000943381988  0.30333212129016124  1.0000
  C   C6        1.0  0.4809190308396722  0.4290255048702391  0.6964744826864404  1.0000
  C   C7        1.0  0.9808457546165954  0.26738413749524886  0.6966745763364699  1.0000
  C   C8        1.0  0.5190763214309726  0.5708811407975742  0.3034740969262373  1.0000
  C   C9        1.0  0.048945210295812606  0.7709159415238175  0.12782511127566923  1.0000
  C   C10       1.0  0.450746923927163  0.6427649384118935  0.8718388900771927  1.0000
  C   C11       1.0  0.9510567539005095  0.22910107727171433  0.8721748184994951  1.0000
  C   C12       1.0  0.5492915947359478  0.3572312245533809  0.12810293952937712  1.0000
  C   C13       1.0  0.10548747290000897  0.642144581140762  0.1456932380735552  1.0000
  C   C14       1.0  0.39428629927552816  0.4961274002382722  0.85402338508068  1.0000
  C   C15       1.0  0.8945190892919326  0.35789312655153077  0.8543262142116319  1.0000
  C   C16       1.0  0.605741557034726  0.5038759659368066  0.1459517095625955  1.0000
  C   C17       1.0  0.9787450708955845  0.8737936754776428  0.19802258702002726  1.0000
  C   C18       1.0  0.5209922123860196  0.6754448380315735  0.8016603490138721  1.0000
  C   C19       1.0  0.021183446466189103  0.1262172761589326  0.801935921937691  1.0000
  C   C20       1.0  0.4789934743138957  0.324509374889203  0.1982387380089108  1.0000
  C   C21       1.0  0.1793681322787819  0.5237624400012916  0.07216821429027927  1.0000
  C   C22       1.0  0.3204215426281039  0.4513774452873064  0.9276129000701799  1.0000
  C   C23       1.0  0.8206368325310862  0.4762604853708581  0.927845443611588  1.0000
  C   C24       1.0  0.6795938467687037  0.5486564900861097  0.07237732403398676  1.0000
  C   C25       1.0  0.24985449155422404  0.5794505531315295  0.9998344790530993  1.0000
  C   C26       1.0  0.7501477500253346  0.42057104351444247  0.00016913544002513105  1.0000
  C   C27       1.0  0.1338526767923724  0.20694442989913137  0.39882696911416826  1.0000
  C   C28       1.0  0.3662979094337686  0.8083435135219474  0.6010820467057699  1.0000
  C   C29       1.0  0.8662763757604284  0.7928867016733037  0.6012344366132396  1.0000
  C   C30       1.0  0.6337571069926895  0.19175567568041876  0.39893701550529675  1.0000
  C   C31       1.0  0.0873456573546889  0.25975107123645796  0.3137317841531484  1.0000
  C   C32       1.0  0.4124409510136076  0.9462166351703937  0.6862773543357577  1.0000
  C   C33       1.0  0.9125262177772981  0.7401198916493427  0.6863948272603437  1.0000
  C   C34       1.0  0.5873032394832832  0.0540280186745079  0.3137523627768104  1.0000
  N   N1        1.0  0.9647567581547137  0.8552020724269409  0.2847019574367308  1.0000
  N   N2        1.0  0.5351300873640099  0.570198180684059  0.7150514603136529  1.0000
  N   N3        1.0  0.035121029587749306  0.14484458047674306  0.7152680199497043  1.0000
  N   N4        1.0  0.4648137366270221  0.4297084844046637  0.28486697622700774  1.0000
  N   N5        1.0  0.06692915233647058  0.12096681216416974  0.4393387444419972  1.0000
  N   N6        1.0  0.4333921672645787  0.6820011195934866  0.560766086758747  1.0000
  N   N7        1.0  0.9332574040798177  0.878927585977088  0.5608222375908484  1.0000
  N   N8        1.0  0.5668957661024975  0.318272161120518  0.4394476418108226  1.0000
  N   N9        1.0  0.1611223570223004  0.10535841856366089  0.512266255173536  1.0000
  N   N10       1.0  0.3391570326937909  0.593083620262064  0.4878540508924588  1.0000
  N   N11       1.0  0.8390356700693786  0.8946352941774335  0.4877823425005232  1.0000
  N   N12       1.0  0.6612440724036831  0.4068209433117713  0.5122254805038226  1.0000
  N   N13       1.0  0.2817126385742341  0.17954839915920928  0.5163146892104464  1.0000
  N   N14       1.0  0.2185625298856948  0.6629832936961079  0.48373711038927075  1.0000
  N   N15       1.0  0.7185638800956581  0.8204693575730387  0.48367241409258815  1.0000
  N   N16       1.0  0.7818451395613053  0.3366353906746439  0.5161767285217779  1.0000
  N   N17       1.0  0.2654895897524199  0.24334679264356396  0.4456662271425884  1.0000
  N   N18       1.0  0.2346642658602462  0.7976648208445807  0.5542459084483013  1.0000
  N   N19       1.0  0.7347286007777073  0.7564794238328216  0.554309188903062  1.0000
  N   N20       1.0  0.7654790979674431  0.2021621789013039  0.4456267302217398  1.0000
  O   O1        1.0  0.1890074828832127  0.33414536460788463  0.293686198867654  1.0000
  O   O2        1.0  0.3105203551911444  0.0404184504344229  0.7061604380868687  1.0000
  O   O3        1.0  0.8106965185336391  0.6657643660433691  0.706312993849167  1.0000
  O   O4        1.0  0.6891017566458401  0.9597720408164532  0.2935506784112293  1.0000
  O   O5        1.0  0.9652891657150774  0.23109355557244973  0.2695863687790947  1.0000
  O   O6        1.0  0.5343016845505417  0.961877922584463  0.7306802911947017  1.0000
  O   O7        1.0  0.034475392079635  0.7687551751134123  0.7307018161406447  1.0000
  O   O8        1.0  0.4652454359342215  0.03851227293390019  0.2696212997578797  1.0000
