data_image0
_chemical_formula_structural       Cu6H20C24I6N12
_chemical_formula_sum              "Cu6 H20 C24 I6 N12"
_cell_length_a       7.404554572608923
_cell_length_b       7.64098489770074
_cell_length_c       15.941811430858191
_cell_angle_alpha    79.28782918871754
_cell_angle_beta     88.82201155953271
_cell_angle_gamma    89.22816044299563

_space_group_name_H-M_alt    "P 1"
_space_group_IT_number       1

loop_
  _space_group_symop_operation_xyz
  'x, y, z'

loop_
  _atom_site_type_symbol
  _atom_site_label
  _atom_site_symmetry_multiplicity
  _atom_site_fract_x
  _atom_site_fract_y
  _atom_site_fract_z
  _atom_site_occupancy
  Cu  Cu1       1.0  0.18675040443033453  0.42329560690290435  0.8735742068211607  1.0000
  Cu  Cu2       1.0  0.8132580865497161  0.5767057540423577  0.1264255341673888  1.0000
  Cu  Cu3       1.0  0.16836351199778926  0.27189885654442486  0.6730766215307753  1.0000
  Cu  Cu4       1.0  0.831643616119031  0.7281024948644087  0.32692375489155273  1.0000
  Cu  Cu5       1.0  0.2633926160425872  0.9830579540769828  0.767924640241695  1.0000
  Cu  Cu6       1.0  0.7366037831859485  0.01693942752430639  0.2320742520728842  1.0000
  H   H1        1.0  0.6931111108723228  0.8801534590317386  0.668255975181637  1.0000
  H   H2        1.0  0.30689196500002686  0.11984789169738258  0.3317444229856505  1.0000
  H   H3        1.0  0.5478739045360399  0.7571008628201027  0.7362431576005264  1.0000
  H   H4        1.0  0.45213190293814887  0.24289514184308555  0.2637589390570981  1.0000
  H   H5        1.0  0.8657784828606624  0.7314439657663883  0.516379458796017  1.0000
  H   H6        1.0  0.13421924288588366  0.26855339744177087  0.4836206826411527  1.0000
  H   H7        1.0  0.5866686953309068  0.15855693410088625  0.49999758356147334  1.0000
  H   H8        1.0  0.41333035399596707  0.84144309328353  0.5000023223193395  1.0000
  H   H9        1.0  0.6906266209835223  0.21125521732517433  0.6435063632633486  1.0000
  H   H10       1.0  0.309375117724592  0.7887448012025329  0.3564941563062831  1.0000
  H   H11       1.0  0.8380403348862513  0.9884588247921752  0.7772763113877658  1.0000
  H   H12       1.0  0.16195326922738928  0.011546538895181894  0.2227225386848133  1.0000
  H   H13       1.0  0.7923730545577643  0.14049599314896713  0.9025691475350541  1.0000
  H   H14       1.0  0.207592253233031  0.8595013646214653  0.09743116786181359  1.0000
  H   H15       1.0  0.7820412921837415  0.9581803833492444  0.04915275696989599  1.0000
  H   H16       1.0  0.2179267685013428  0.04181432954435139  0.950846515867454  1.0000
  H   H17       1.0  0.8447017389315619  0.48809162487885516  0.9561856822138426  1.0000
  H   H18       1.0  0.15531621793181216  0.5119110882469541  0.043812637511535996  1.0000
  H   H19       1.0  0.6307817383213034  0.3980718146329492  0.3727961084613156  1.0000
  H   H20       1.0  0.36921729595280794  0.6019308860110042  0.6272029409260044  1.0000
  C   C1        1.0  0.8445678346143168  0.5095486634212776  0.6728059639901787  1.0000
  C   C2        1.0  0.1554366162363365  0.49045270615412306  0.3271931705578837  1.0000
  C   C3        1.0  0.8718981208681669  0.62024276158931  0.7902240764769033  1.0000
  C   C4        1.0  0.12810899366473188  0.37975992179436696  0.2097761857914051  1.0000
  C   C5        1.0  0.7833164294054882  0.47589048611801826  0.5906134204712146  1.0000
  C   C6        1.0  0.21668532141769964  0.5241095417195395  0.4093864709129562  1.0000
  C   C7        1.0  0.8039173356486345  0.602670115474069  0.5158083674080558  1.0000
  C   C8        1.0  0.1960843244936612  0.3973352123333098  0.4841929519164196  1.0000
  C   C9        1.0  0.6747080306553954  0.4158097721120341  0.43545268305745566  1.0000
  C   C10       1.0  0.32529104437046635  0.5841889326073896  0.5645467087919158  1.0000
  C   C11       1.0  0.65000559099051  0.2825815636058592  0.5069583579371582  1.0000
  C   C12       1.0  0.34999477567699705  0.7174157535061736  0.49304490993064587  1.0000
  C   C13       1.0  0.7075485680612845  0.31099918106361446  0.5856661529332287  1.0000
  C   C14       1.0  0.29244771772506795  0.6890021406030938  0.4143361660320366  1.0000
  C   C15       1.0  0.8443749015621336  0.7248391660249566  0.8572905096356394  1.0000
  C   C16       1.0  0.15562947072270822  0.2751675128301087  0.1427094246672667  1.0000
  C   C17       1.0  0.8290224721702159  0.9111283689377031  0.8418373727570271  1.0000
  C   C18       1.0  0.17098196509651592  0.08887433261253358  0.1581616476370158  1.0000
  C   C19       1.0  0.8062673765557308  0.9961442615443941  0.9114495142333396  1.0000
  C   C20       1.0  0.19372078822007668  0.003861073307113798  0.08855124938889251  1.0000
  C   C21       1.0  0.8010373426007077  0.8953311046793501  0.9934839230047744  1.0000
  C   C22       1.0  0.19894553850004124  0.10466492406167298  0.006516412317942898  1.0000
  C   C23       1.0  0.8373038552754652  0.6331559354212714  0.9418151424795411  1.0000
  C   C24       1.0  0.1627046221206641  0.3668467574988341  0.05818448435498879  1.0000
  I   I1        1.0  0.432395070572305  0.2690491278179294  0.7849056425008101  1.0000
  I   I2        1.0  0.567610811061165  0.730945591419676  0.2150934273835503  1.0000
  I   I3        1.0  0.34589598124404836  0.727662304829927  0.8855448863245884  1.0000
  I   I4        1.0  0.6541084317925369  0.27234037810060824  0.11445539044036222  1.0000
  I   I5        1.0  0.0946679614314263  0.9653073138778154  0.6316784035468713  1.0000
  I   I6        1.0  0.9053310471436975  0.034696709431131  0.36832115987188974  1.0000
  N   N1        1.0  0.9898806422980968  0.48602005306380375  0.7928790589181034  1.0000
  N   N2        1.0  0.010123797906331299  0.5139799659170451  0.2071214461548863  1.0000
  N   N3        1.0  0.9736963016601123  0.4175772004445192  0.7190610969163559  1.0000
  N   N4        1.0  0.026310850686854795  0.5824241695840228  0.2809380231350573  1.0000
  N   N5        1.0  0.7788818732779744  0.637728799862394  0.7152867498113835  1.0000
  N   N6        1.0  0.22112389197561552  0.36227254201001796  0.2847142620447158  1.0000
  N   N7        1.0  0.6384594701830011  0.7558335964920173  0.6862075871024089  1.0000
  N   N8        1.0  0.3615409434759441  0.24416509914412637  0.3137924256840989  1.0000
  N   N9        1.0  0.8171542552611017  0.7155796925622937  0.009012235062741077  1.0000
  N   N10       1.0  0.18284205181770832  0.2844243302935111  0.9909873428526623  1.0000
  N   N11       1.0  0.7531890593824714  0.5725091817080212  0.4391595575634  1.0000
  N   N12       1.0  0.2468180716720454  0.4274894871314244  0.560842303537875  1.0000
