data_image0
_chemical_formula_structural       Zn2H24C32S6N8O8
_chemical_formula_sum              "Zn2 H24 C32 S6 N8 O8"
_cell_length_a       8.784207098389105
_cell_length_b       10.201340432764642
_cell_length_c       11.351953062385675
_cell_angle_alpha    64.93900373915095
_cell_angle_beta     77.74630622452526
_cell_angle_gamma    74.14374946927994

_space_group_name_H-M_alt    "P 1"
_space_group_IT_number       1

loop_
  _space_group_symop_operation_xyz
  'x, y, z'

loop_
  _atom_site_type_symbol
  _atom_site_label
  _atom_site_symmetry_multiplicity
  _atom_site_fract_x
  _atom_site_fract_y
  _atom_site_fract_z
  _atom_site_occupancy
  Zn  Zn1       1.0  0.14211197737313336  0.8060144012776148  0.588770998769853  1.0000
  Zn  Zn2       1.0  0.8578832315152454  0.19398666689892252  0.4112288848033359  1.0000
  H   H1        1.0  0.47511755505668424  0.13011696579098947  0.3945400479414047  1.0000
  H   H2        1.0  0.5248802262240062  0.869882988363223  0.6054607206525374  1.0000
  H   H3        1.0  0.3503116495638352  0.24151949800287295  0.47421400631733235  1.0000
  H   H4        1.0  0.6496861313429675  0.7584804441140561  0.5257850051362141  1.0000
  H   H5        1.0  0.5549030670392767  0.4080008054336019  0.7039804541296281  1.0000
  H   H6        1.0  0.44509934928225897  0.5920046081041405  0.29601216014475557  1.0000
  H   H7        1.0  0.4845696245967871  0.3753105828421253  0.5866889888550662  1.0000
  H   H8        1.0  0.5154271987620335  0.6246937655377066  0.4133058407413515  1.0000
  H   H9        1.0  0.26430317014244764  0.9503595845410968  0.3094140561888495  1.0000
  H   H10       1.0  0.7357016397686279  0.0496348043114381  0.6905876948730808  1.0000
  H   H11       1.0  0.26559228882097574  0.9503601884397455  0.09736083426643209  1.0000
  H   H12       1.0  0.7344139268161739  0.04963308735245419  0.9026411132890929  1.0000
  H   H13       1.0  0.9700466354221433  0.6197842763723784  0.2814800293644097  1.0000
  H   H14       1.0  0.029949261265002677  0.3802189909643019  0.7185180125222672  1.0000
  H   H15       1.0  0.9796565660975252  0.6391283315579557  0.4907634986710647  1.0000
  H   H16       1.0  0.020341215183165694  0.36087162259625666  0.5092372699228704  1.0000
  H   H17       1.0  0.9515258043443923  0.6405305724338604  0.08896382860751133  1.0000
  H   H18       1.0  0.04847502800912909  0.3594660615572565  0.9110394766506432  1.0000
  H   H19       1.0  0.9693483859094625  0.6550446882584636  0.8611562981700375  1.0000
  H   H20       1.0  0.030653164745252974  0.344948645549465  0.1388508024086121  1.0000
  H   H21       1.0  0.2977518529066003  0.923780453384445  0.7229482710875886  1.0000
  H   H22       1.0  0.7022489786991386  0.0762161565321051  0.2770515198897954  1.0000
  H   H23       1.0  0.29937654638870004  0.9200748528790541  0.9402760749530615  1.0000
  H   H24       1.0  0.7006263789288312  0.07992284915594888  0.059722949401603415  1.0000
  C   C1        1.0  0.22504937896697194  0.11669695513727156  0.42851452323495925  1.0000
  C   C2        1.0  0.7749479240070938  0.8833052171949872  0.5714863508558922  1.0000
  C   C3        1.0  0.357278394435717  0.20226998298347346  0.3962827092508334  1.0000
  C   C4        1.0  0.6427189377321554  0.7977266478749739  0.6037176518556678  1.0000
  C   C5        1.0  0.3680577340960696  0.2946433842933587  0.1342026941226777  1.0000
  C   C6        1.0  0.6319423799562571  0.7053565498809533  0.8657968158149815  1.0000
  C   C7        1.0  0.3908667101658522  0.24173585486452956  0.943263003279057  1.0000
  C   C8        1.0  0.6091382794827213  0.7582684747440848  0.05673488886704096  1.0000
  C   C9        1.0  0.4479091332162071  0.3945381699099215  0.6783656690553386  1.0000
  C   C10       1.0  0.5520911899543748  0.6054661695652965  0.3216303475523433  1.0000
  C   C11       1.0  0.31949541593947106  0.5357373959188648  0.6544314591314304  1.0000
  C   C12       1.0  0.6805070013167905  0.464268047712075  0.345565547993921  1.0000
  C   C13       1.0  0.19835877802660923  0.8795987786370814  0.3004317286250854  1.0000
  C   C14       1.0  0.8016434600529863  0.1203967422936998  0.699571773126664  1.0000
  C   C15       1.0  0.19854574330710764  0.8776622881338838  0.17909538633628602  1.0000
  C   C16       1.0  0.801457870930868  0.12233764917309736  0.8209070677530264  1.0000
  C   C17       1.0  0.11778821114607041  0.7841416620825328  0.1666278352008987  1.0000
  C   C18       1.0  0.8822095705085075  0.21585830410895565  0.8333746905334253  1.0000
  C   C19       1.0  0.03652127466701666  0.6958080622397773  0.2817098387906683  1.0000
  C   C20       1.0  0.9634776730929603  0.3041918849338002  0.718290739760228  1.0000
  C   C21       1.0  0.04070519333781415  0.7058584924474617  0.39951384748595603  1.0000
  C   C22       1.0  0.9592904940441399  0.2941403635696672  0.6004868091605077  1.0000
  C   C23       1.0  0.1221870316003333  0.7820183577920828  0.0362133645672672  1.0000
  C   C24       1.0  0.8778093439542828  0.21798270942246487  0.9637872075330733  1.0000
  C   C25       1.0  0.030389039942839674  0.7050778776357731  0.011202109342846725  1.0000
  C   C26       1.0  0.9696089803976947  0.29492096442009347  0.9887981672175314  1.0000
  C   C27       1.0  0.03944244734314851  0.7121378513818825  0.8846274296116192  1.0000
  C   C28       1.0  0.9605579063298535  0.2878609887500049  0.11537422400306241  1.0000
  C   C29       1.0  0.22340004157923937  0.8618551675953511  0.8068327803756291  1.0000
  C   C30       1.0  0.7766021963134122  0.13814034731679206  0.19316984280592922  1.0000
  C   C31       1.0  0.22133788220052952  0.8603687611881554  0.9296697324847543  1.0000
  C   C32       1.0  0.778661304806242  0.1396300799057215  0.07033123260277564  1.0000
  S   S1        1.0  0.3446136385734063  0.3696462093952276  0.24957700717268963  1.0000
  S   S2        1.0  0.6553864754789203  0.6303537247790841  0.7504225027649698  1.0000
  S   S3        1.0  0.36567886059606275  0.4058600962245577  0.9677136540722984  1.0000
  S   S4        1.0  0.634325680500524  0.5941409281442132  0.03228646629694506  1.0000
  S   S5        1.0  0.39122891825289235  0.22618254634795673  0.7969318249257001  1.0000
  S   S6        1.0  0.6087744266097558  0.7738240084193465  0.20306636276036022  1.0000
  N   N1        1.0  0.38610633257439986  0.1526324631786764  0.16137695520676237  1.0000
  N   N2        1.0  0.6138914485193466  0.8473674849568906  0.8386229348169822  1.0000
  N   N3        1.0  0.3999046135884683  0.12342520867458967  0.05273367561706271  1.0000
  N   N4        1.0  0.6000957097690501  0.8765791368192665  0.9472632195608102  1.0000
  N   N5        1.0  0.12038319408766535  0.795890133030518  0.40973604301708383  1.0000
  N   N6        1.0  0.8796164714126816  0.2041064959039502  0.5902656951437281  1.0000
  N   N7        1.0  0.1334690088112608  0.7899006979764707  0.783274668557759  1.0000
  N   N8        1.0  0.8665308959358669  0.21009482487828982  0.2167274561396937  1.0000
  O   O1        1.0  0.25354445939741765  0.9856957455273729  0.5152173645463877  1.0000
  O   O2        1.0  0.746450988737749  0.014304216569463799  0.48478290556343495  1.0000
  O   O3        1.0  0.1019798434292554  0.1801336555975155  0.3703162834377878  1.0000
  O   O4        1.0  0.8980183865903654  0.8198696098151783  0.6296831355031928  1.0000
  O   O5        1.0  0.17511217389847641  0.531410871672797  0.6953364483662341  1.0000
  O   O6        1.0  0.8248865044861801  0.46859569296110226  0.30465986378140303  1.0000
  O   O7        1.0  0.3702015849448159  0.6560309153332041  0.5892576956853902  1.0000
  O   O8        1.0  0.629800593064651  0.3439756343774434  0.4107389249033205  1.0000
