data_image0
_chemical_formula_structural       Hg2H40C52N12Cl4
_chemical_formula_sum              "Hg2 H40 C52 N12 Cl4"
_cell_length_a       6.96403757
_cell_length_b       9.049387796634054
_cell_length_c       21.274
_cell_angle_alpha    91.80657441917047
_cell_angle_beta     90.0
_cell_angle_gamma    112.63038198600474

_space_group_name_H-M_alt    "P 1"
_space_group_IT_number       1

loop_
  _space_group_symop_operation_xyz
  'x, y, z'

loop_
  _atom_site_type_symbol
  _atom_site_label
  _atom_site_symmetry_multiplicity
  _atom_site_fract_x
  _atom_site_fract_y
  _atom_site_fract_z
  _atom_site_occupancy
  Hg  Hg1       1.0  0.4177687804949457  0.9999714166729773  0.749973105460981  1.0000
  Hg  Hg2       1.0  0.5822344556766056  3.23439727055e-05  0.2500258168319363  1.0000
  H   H1        1.0  0.2529202592538766  0.8851886471558004  0.5862274103785126  1.0000
  H   H2        1.0  0.36820643874655457  0.1151337615173063  0.913771084435851  1.0000
  H   H3        1.0  0.7470814180125132  0.1148091238653066  0.4137723717077648  1.0000
  H   H4        1.0  0.6317928426368199  0.8848592178041415  0.0862262831066332  1.0000
  H   H5        1.0  0.9947808237815607  0.6512542759559992  0.707747660400976  1.0000
  H   H6        1.0  0.34405962909388427  0.3489950592972875  0.7924406977760015  1.0000
  H   H7        1.0  0.0052188185654742005  0.3487422971401983  0.2922511655063431  1.0000
  H   H8        1.0  0.6559515087479895  0.6510158888978879  0.2075634915333353  1.0000
  H   H9        1.0  0.668998516704427  0.5641651346266201  0.6450436408102433  1.0000
  H   H10       1.0  0.1053221319674122  0.4359644081351561  0.8551534522017121  1.0000
  H   H11       1.0  0.33099932873034993  0.4358278446948347  0.3549560770189686  1.0000
  H   H12       1.0  0.8946851740428488  0.5640417483603599  0.1448497327358638  1.0000
  H   H13       1.0  0.1534070510666155  0.126402641193863  0.6645925027684356  1.0000
  H   H14       1.0  0.027484641222599693  0.873758047615702  0.8354461285311671  1.0000
  H   H15       1.0  0.8465848125666611  0.8735927339774179  0.3354081873040116  1.0000
  H   H16       1.0  0.9725160840154103  0.1262493068047235  0.1645509617251619  1.0000
  H   H17       1.0  0.3519783195141529  0.5920851706233705  0.4765480685337238  1.0000
  H   H18       1.0  0.7601737196223937  0.4081737480292347  0.0234646167096102  1.0000
  H   H19       1.0  0.6480110331855897  0.4079137983226531  0.5234512595594722  1.0000
  H   H20       1.0  0.239819103945301  0.5918264188417055  0.9765375477919349  1.0000
  H   H21       1.0  0.34747199928289524  0.6067453757346328  0.6800778396757465  1.0000
  H   H22       1.0  0.7407798030172827  0.3929529140576946  0.81994424955532  1.0000
  H   H23       1.0  0.6525290790127372  0.3932511973615576  0.3199214562889168  1.0000
  H   H24       1.0  0.2592257060807128  0.6070496486630788  0.1800584171321091  1.0000
  H   H25       1.0  0.2073293352845411  0.0896706695214675  0.5184206912957166  1.0000
  H   H26       1.0  0.1177009848766133  0.910747573144846  0.9815245620077206  1.0000
  H   H27       1.0  0.7926717430110914  0.9103259035747229  0.4815795447836422  1.0000
  H   H28       1.0  0.8822974595289139  0.0892466041015183  0.018473291656377497  1.0000
  H   H29       1.0  0.04202538737931149  0.3460864976033733  0.6736214925521864  1.0000
  H   H30       1.0  0.6953931764668866  0.6533889781547444  0.8262584717505773  1.0000
  H   H31       1.0  0.9579754529092313  0.6539124713426574  0.3263787756557051  1.0000
  H   H32       1.0  0.30461640246982574  0.3466159804158551  0.17374234683599346  1.0000
  H   H33       1.0  0.05574793960669673  0.3269927723812387  0.4792411610445413  1.0000
  H   H34       1.0  0.7282910308920734  0.6730301550630884  0.020638623710503595  1.0000
  H   H35       1.0  0.9442434480123938  0.6730073944897015  0.5207595932849642  1.0000
  H   H36       1.0  0.2717095713893727  0.3269712097327684  0.9793626167406159  1.0000
  H   H37       1.0  0.8345665674669223  0.0664728535401267  0.6024759694695447  1.0000
  H   H38       1.0  0.7684221089343455  0.933511740306912  0.897532566999395  1.0000
  H   H39       1.0  0.16542015134270827  0.9335237195560637  0.39752755701124437  1.0000
  H   H40       1.0  0.23157885431076153  0.0664932182636875  0.1024649611857456  1.0000
  C   C1        1.0  0.3590739739928425  0.934828259788631  0.547818154316161  1.0000
  C   C2        1.0  0.4244781660343052  0.0653324290209341  0.9521786418795557  1.0000
  C   C3        1.0  0.6409260293178534  0.0651719070823091  0.45218212995600027  1.0000
  C   C4        1.0  0.5755214763127229  0.9346641440752634  0.04781924391306799  1.0000
  C   C5        1.0  0.37761256264461446  0.6180633703327061  0.5783601967974406  1.0000
  C   C6        1.0  0.7596657849835753  0.3819056504904381  0.9216791546209392  1.0000
  C   C7        1.0  0.6223893526288649  0.3819320048385748  0.4216386130456158  1.0000
  C   C8        1.0  0.2403327823785162  0.6180945163805021  0.0783225398232616  1.0000
  C   C9        1.0  0.52458800822442  0.8859050062550438  0.5379282831444243  1.0000
  C   C10       1.0  0.6388517877113672  0.1141011502404723  0.9621345990762221  1.0000
  C   C11       1.0  0.4754128320641158  0.1140939626909798  0.46207104494877876  1.0000
  C   C12       1.0  0.3611470176578209  0.8858966207806418  0.037864712952711  1.0000
  C   C13       1.0  0.9528737942340725  0.738816597626851  0.683119490075704  1.0000
  C   C14       1.0  0.21453063560866073  0.2613704455308437  0.8170252575408341  1.0000
  C   C15       1.0  0.047126086120051994  0.2611775796195133  0.3168797737604264  1.0000
  C   C16       1.0  0.785477031365261  0.7386393047394151  0.1829765654174977  1.0000
  C   C17       1.0  0.7697377255984179  0.6907857981550336  0.6480093784531533  1.0000
  C   C18       1.0  0.0793847185158398  0.3093473383814924  0.8521459276477188  1.0000
  C   C19       1.0  0.2302592828585119  0.3092083790913378  0.3519898853829773  1.0000
  C   C20       1.0  0.9206203145679765  0.6906600160389401  0.14785680329678286  1.0000
  C   C21       1.0  0.7204190117809475  0.807438528464715  0.6167143418271905  1.0000
  C   C22       1.0  0.913344125477025  0.1926335139011357  0.8833959596054725  1.0000
  C   C23       1.0  0.2795771596981353  0.1925568467065659  0.3832868183026008  1.0000
  C   C24       1.0  0.08665827371668655  0.8073714446694638  0.1166043889237542  1.0000
  C   C25       1.0  0.0402447222982332  0.003243980670149  0.659566393826708  1.0000
  C   C26       1.0  0.03742403497060551  0.996899937190605  0.8405016261860182  1.0000
  C   C27       1.0  0.9597483392765584  0.996753790350958  0.34043432837426474  1.0000
  C   C28       1.0  0.9625775272452588  0.003106219304911  0.1594959180633921  1.0000
  C   C29       1.0  0.29113030472597506  0.5391201184261547  0.5212749563836283  1.0000
  C   C30       1.0  0.752053389236778  0.4609698928134165  0.9787204219630112  1.0000
  C   C31       1.0  0.7088619198709623  0.4608788505198689  0.478724841766919  1.0000
  C   C32       1.0  0.24794398018380553  0.5390278782076905  0.021280300237961593  1.0000
  C   C33       1.0  0.2892421000510197  0.5472935601220357  0.6345414680169696  1.0000
  C   C34       1.0  0.7419319749590585  0.4524646259160505  0.8654659125349794  1.0000
  C   C35       1.0  0.7107544323917241  0.4527054088239879  0.3654578600762335  1.0000
  C   C36       1.0  0.2580714992195894  0.5475367388798063  0.13453485785879588  1.0000
  C   C37       1.0  0.33397433919780184  0.0491316924688192  0.5101150034792568  1.0000
  C   C38       1.0  0.2848538099536242  0.9510565486137921  0.9898365666319363  1.0000
  C   C39       1.0  0.6660271000614912  0.950868474402121  0.4898848107355604  1.0000
  C   C40       1.0  0.7151431985033058  0.0489376286325722  0.0101612870321546  1.0000
  C   C41       1.0  0.11961476534347781  0.401440212081333  0.6307720819941665  1.0000
  C   C42       1.0  0.7176535075965449  0.5981550561682951  0.8691395724054729  1.0000
  C   C43       1.0  0.8803877489007592  0.5985563610148574  0.3692276840278481  1.0000
  C   C44       1.0  0.28235116452361103  0.4018487044773948  0.13086123011683526  1.0000
  C   C45       1.0  0.12419601462237038  0.3920388973474545  0.5230827869168309  1.0000
  C   C46       1.0  0.7318289395403073  0.6079217380012806  0.9768281263959508  1.0000
  C   C47       1.0  0.875797046952421  0.6079588736736525  0.47691699516944647  1.0000
  C   C48       1.0  0.2681759705869382  0.392079626794569  0.02317358411252  1.0000
  C   C49       1.0  0.8603561963952232  0.9683078653164685  0.6243952560714803  1.0000
  C   C50       1.0  0.8924153738950553  0.0317725625237841  0.8756752029365485  1.0000
  C   C51       1.0  0.1396371031866579  0.0316875098548124  0.3756063741156552  1.0000
  C   C52       1.0  0.10758415340144721  0.9682323960468153  0.12432279530594312  1.0000
  N   N1        1.0  0.0894141266074228  0.8918419221343895  0.6883844135845649  1.0000
  N   N2        1.0  0.19803945006721344  0.10835350649771407  0.8117219017793857  1.0000
  N   N3        1.0  0.9105846787617652  0.1081558488867174  0.3116148984443683  1.0000
  N   N4        1.0  0.8019667809581037  0.8916562437725446  0.18827757089221106  1.0000
  N   N5        1.0  0.5460457103883769  0.7687826893786323  0.5781697348087816  1.0000
  N   N6        1.0  0.7775808714345019  0.2312570090145059  0.9219274413403085  1.0000
  N   N7        1.0  0.4539539319586582  0.2312138837175581  0.4218300312132328  1.0000
  N   N8        1.0  0.22241685894974955  0.7687443557813509  0.0780728589961157  1.0000
  N   N9        1.0  0.037321280176023194  0.3226982115605281  0.5764008311546149  1.0000
  N   N10       1.0  0.7140484957011071  0.6770204429553601  0.9234748732767173  1.0000
  N   N11       1.0  0.9626740543252125  0.6772983615356694  0.4235998749820951  1.0000
  N   N12       1.0  0.2859578503747429  0.3229809218404965  0.07652542705970689  1.0000
  Cl  Cl1       1.0  0.6186876331029582  0.2479716553552009  0.7019555721382744  1.0000
  Cl  Cl2       1.0  0.3706220701251938  0.7519889799935342  0.7980150384575708  1.0000
  Cl  Cl3       1.0  0.3813172770242872  0.7520297094406487  0.29804331802611017  1.0000
  Cl  Cl4       1.0  0.6293811660463576  0.24801478065214866  0.2019834137779952  1.0000
