data_image0
_chemical_formula_structural       Ag4P4H56C62N8O12
_chemical_formula_sum              "Ag4 P4 H56 C62 N8 O12"
_cell_length_a       9.615239681480075
_cell_length_b       13.717512281943776
_cell_length_c       14.033275091312388
_cell_angle_alpha    115.85572856139383
_cell_angle_beta     100.97055760390555
_cell_angle_gamma    95.52694607584446

_space_group_name_H-M_alt    "P 1"
_space_group_IT_number       1

loop_
  _space_group_symop_operation_xyz
  'x, y, z'

loop_
  _atom_site_type_symbol
  _atom_site_label
  _atom_site_symmetry_multiplicity
  _atom_site_fract_x
  _atom_site_fract_y
  _atom_site_fract_z
  _atom_site_occupancy
  Ag  Ag1       1.0  0.6789843818974574  0.3101746655088534  0.2189759849348647  1.0000
  Ag  Ag2       1.0  0.32101494623196913  0.6898286999722035  0.781024302087211  1.0000
  Ag  Ag3       1.0  0.819397665087628  0.6636033549755141  0.4832935120785252  1.0000
  Ag  Ag4       1.0  0.18060346267684932  0.33639504602203374  0.5167077730604249  1.0000
  P   P1        1.0  0.43471845153907657  0.24894714889374822  0.19335685461561522  1.0000
  P   P2        1.0  0.5652792055071743  0.7510578834227462  0.8066446234604854  1.0000
  P   P3        1.0  0.6831433046256238  0.7972713749071473  0.4827869727701072  1.0000
  P   P4        1.0  0.31685722699356217  0.2027286787802254  0.5172135041895842  1.0000
  H   H1        1.0  0.3778336295113717  0.38609556374324694  0.3564560629150222  1.0000
  H   H2        1.0  0.6221658383690992  0.6139044976756978  0.6435449868570444  1.0000
  H   H3        1.0  0.26987103195427414  0.2545734818120948  0.30891441876837433  1.0000
  H   H4        1.0  0.7301278285817289  0.7454282387107087  0.6910872492453352  1.0000
  H   H5        1.0  0.13750631474250244  0.2989158377563115  0.19501088264971142  1.0000
  H   H6        1.0  0.8624938813787679  0.7010908561254894  0.8049952009145757  1.0000
  H   H7        1.0  0.45686881750616243  0.2946090240982642  0.014722697190670474  1.0000
  H   H8        1.0  0.5431278635036206  0.7053885612937876  0.9852762206151766  1.0000
  H   H9        1.0  0.6011157963437838  0.07983170802723552  0.16883777450500048  1.0000
  H   H10       1.0  0.3988824624473466  0.9201716683924133  0.8311637985399118  1.0000
  H   H11       1.0  0.14896484028211893  0.0929773454874905  0.0896986712988195  1.0000
  H   H12       1.0  0.8510340594509668  0.9070243525861769  0.9102980042416889  1.0000
  H   H13       1.0  0.5205729248468174  0.14457608730158006  0.4348933374918715  1.0000
  H   H14       1.0  0.479426548633235  0.8554239709103371  0.5651069990697338  1.0000
  H   H15       1.0  0.35881856673346846  0.11681881613622379  0.335215813086549  1.0000
  H   H16       1.0  0.6411785706705686  0.883180420628122  0.6647831501485727  1.0000
  H   H17       1.0  0.974743469845599  0.3562257773082179  0.08017418651882478  1.0000
  H   H18       1.0  0.025254552349025558  0.643776778235811  0.9198284336271314  1.0000
  H   H19       1.0  0.2856909429990608  0.3432382778699792  0.8930387881824018  1.0000
  H   H20       1.0  0.7143031709377894  0.6567576619918543  0.10695909018755168  1.0000
  H   H21       1.0  0.5335720402875737  0.8766392947560746  0.09961634021635042  1.0000
  H   H22       1.0  0.4664279007858952  0.12336240841410272  0.9003826153536139  1.0000
  H   H23       1.0  0.0832844050200308  0.8891574101424523  0.013783088050409752  1.0000
  H   H24       1.0  0.9167123952335458  0.1108442873592566  0.9862111670625636  1.0000
  H   H25       1.0  0.9750321169974967  0.5536718302116554  0.6259477602874456  1.0000
  H   H26       1.0  0.024969467161241717  0.4463282221581863  0.374053570280779  1.0000
  H   H27       1.0  0.5826594656153361  0.4639079042181821  0.397533078373776  1.0000
  H   H28       1.0  0.4173412746024354  0.5360929863799058  0.6024699175371495  1.0000
  H   H29       1.0  0.6749446978198321  0.26766245658375  0.5660838010752585  1.0000
  H   H30       1.0  0.32505644114381477  0.7323359379997569  0.43391605764277585  1.0000
  H   H31       1.0  0.04838838655680895  0.3776202666225076  0.9272392366189168  1.0000
  H   H32       1.0  0.9516072307142593  0.6223773265011162  0.07276025399930573  1.0000
  H   H33       1.0  0.27420822360970487  0.7809655217100158  0.018686055994734798  1.0000
  H   H34       1.0  0.7257911269180537  0.21903783094295903  0.9813113781855023  1.0000
  H   H35       1.0  0.9081581354974091  0.3971735361492321  0.6670067600029554  1.0000
  H   H36       1.0  0.09184217632402182  0.6028256870414667  0.3329926244264031  1.0000
  H   H37       1.0  0.6192333021656465  0.5978086340546582  0.28004001050528154  1.0000
  H   H38       1.0  0.380765940317488  0.4021906000746255  0.7199606599469206  1.0000
  H   H39       1.0  0.4519337999867261  0.8978054952201049  0.40421406490589373  1.0000
  H   H40       1.0  0.5480693099045624  0.10219619758343872  0.5957860250687688  1.0000
  H   H41       1.0  0.6996225291168799  0.9349089940364411  0.36714019518900914  1.0000
  H   H42       1.0  0.3003741742912354  0.06508857852752932  0.6328558697750067  1.0000
  H   H43       1.0  0.871704808944294  0.965115485876197  0.6890446847632602  1.0000
  H   H44       1.0  0.12829557172468498  0.034887878287328505  0.3109564558673483  1.0000
  H   H45       1.0  0.43123278958527317  0.5238622635838724  0.10313516397596352  1.0000
  H   H46       1.0  0.5687638746257591  0.4761353314292408  0.8968658934612536  1.0000
  H   H47       1.0  0.2652665986814498  0.8232744570262938  0.22946308740962  1.0000
  H   H48       1.0  0.7347361348622883  0.1767297189637489  0.7705372869161026  1.0000
  H   H49       1.0  0.8425665066069853  0.12238945530623369  0.4280585955064566  1.0000
  H   H50       1.0  0.15743254407631474  0.877608932291274  0.5719374163631273  1.0000
  H   H51       1.0  0.009607744915747712  0.152534782663416  0.7489296969264315  1.0000
  H   H52       1.0  0.9903926637511447  0.8474685654650145  0.25106787765188443  1.0000
  H   H53       1.0  0.2539809068296464  0.6353685518276395  0.07741140908220258  1.0000
  H   H54       1.0  0.7460185554512435  0.36463151279831857  0.9225903539003184  1.0000
  H   H55       1.0  0.9974305795552778  0.23095263404534458  0.6189816031091554  1.0000
  H   H56       1.0  0.0025691697183561316  0.7690482225930566  0.38101269387819064  1.0000
  C   C1        1.0  0.3804537275247952  0.2979176980608856  0.3251916448686388  1.0000
  C   C2        1.0  0.619546809693972  0.7020823524194667  0.6748081188805841  1.0000
  C   C3        1.0  0.30845037182929497  0.2912433030347472  0.11203974253779589  1.0000
  C   C4        1.0  0.6915506850316858  0.7087625429977535  0.887962536052413  1.0000
  C   C5        1.0  0.37970777028433383  0.09946974892466189  0.1343919053626479  1.0000
  C   C6        1.0  0.6202928357819815  0.9005344425285242  0.865609614587825  1.0000
  C   C7        1.0  0.17257822640184628  0.30970316863241726  0.13034082795019236  1.0000
  C   C8        1.0  0.8274230390577272  0.6903035143107984  0.869663969591258  1.0000
  C   C9        1.0  0.3491855464823034  0.3045232633663275  0.02669788515314764  1.0000
  C   C10       1.0  0.6508150371856729  0.6954809409149405  0.9733064876391637  1.0000
  C   C11       1.0  0.4874593826701739  0.037973456188424806  0.13686929497639258  1.0000
  C   C12       1.0  0.5125388985192815  0.9620299074031422  0.8631294252266811  1.0000
  C   C13       1.0  0.23357172932423959  0.04571815105465761  0.0907703673295472  1.0000
  C   C14       1.0  0.7664308180192521  0.9542851751965954  0.9092246352030954  1.0000
  C   C15       1.0  0.4284111564943557  0.1800091038660057  0.41475223126278854  1.0000
  C   C16       1.0  0.5715883113861153  0.819990957552939  0.5852488185092781  1.0000
  C   C17       1.0  0.6063479416048948  0.35005553855489085  0.46793236919986475  1.0000
  C   C18       1.0  0.3936532662063002  0.6499469970014504  0.53206924571942  1.0000
  C   C19       1.0  0.0793328902106296  0.34099393704955355  0.06440186344026702  1.0000
  C   C20       1.0  0.9206693813392802  0.6590085907752226  0.9355991786666351  1.0000
  C   C21       1.0  0.2543049114937617  0.33321596507222045  0.9593952449381292  1.0000
  C   C22       1.0  0.7456875537582378  0.6667816287969685  0.04060097164401822  1.0000
  C   C23       1.0  0.44930970482799637  0.9238427294706001  0.09698332587801431  1.0000
  C   C24       1.0  0.5506870338301582  0.07615900330831951  0.9030187745499987  1.0000
  C   C25       1.0  0.196343611903032  0.9314507902165801  0.04942855915953007  1.0000
  C   C26       1.0  0.8036555076278091  0.06855173835376152  0.9505692089113039  1.0000
  C   C27       1.0  0.8708800493978616  0.4968107553621622  0.5847117784921069  1.0000
  C   C28       1.0  0.12912259290001069  0.5031892924831284  0.41528969247420383  1.0000
  C   C29       1.0  0.6514807711315242  0.4435427714190041  0.454427994901252  1.0000
  C   C30       1.0  0.3485210496237131  0.5564581018264578  0.5455722885659213  1.0000
  C   C31       1.0  0.5497807414666483  0.7525693648205163  0.3534818949295585  1.0000
  C   C32       1.0  0.4502221894765128  0.24743565449428218  0.6465224247683211  1.0000
  C   C33       1.0  0.7716590752759558  0.9384278019386088  0.5248660627221541  1.0000
  C   C34       1.0  0.2283439657677917  0.06156974989210081  0.4751322710512582  1.0000
  C   C35       1.0  0.7020869006028647  0.3354400517694955  0.5480910690220996  1.0000
  C   C36       1.0  0.2979153653474569  0.664562479262301  0.45191068629526404  1.0000
  C   C37       1.0  0.1196406320301904  0.3523458942084474  0.9787428950405686  1.0000
  C   C38       1.0  0.8803547598435413  0.6476508716255154  0.02125621625778959  1.0000
  C   C39       1.0  0.3040408230101477  0.8704511047199475  0.05234970993834048  1.0000
  C   C40       1.0  0.6959591180633211  0.1295505984502228  0.9476492456316236  1.0000
  C   C41       1.0  0.8334738687388352  0.40875839103908623  0.605763179461782  1.0000
  C   C42       1.0  0.16652386481049322  0.5912391930354346  0.3942365919526055  1.0000
  C   C43       1.0  0.5422365043908357  0.6473861501677833  0.2678670328316032  1.0000
  C   C44       1.0  0.4577600032704083  0.35261475852850316  0.7321354014870068  1.0000
  C   C45       1.0  0.4492062983826415  0.8160014228551233  0.3385491367386423  1.0000
  C   C46       1.0  0.5507987079891591  0.18399943040265046  0.6614501415018524  1.0000
  C   C47       1.0  0.7653912357636231  0.9830171587487229  0.45142735632233416  1.0000
  C   C48       1.0  0.23461098373748965  0.0169812184821581  0.5485697899519408  1.0000
  C   C49       1.0  0.8605611664181936  0.0003286414730254986  0.6323809379252125  1.0000
  C   C50       1.0  0.13944211122205263  0.9996697312333039  0.36761634874714844  1.0000
  C   C51       1.0  0.43642138175878387  0.6058294184689076  0.16894120046299588  1.0000
  C   C52       1.0  0.5635761784420055  0.3941714889098549  0.8310620874641473  1.0000
  C   C53       1.0  0.34311639315430403  0.7738312173362446  0.2398648531419384  1.0000
  C   C54       1.0  0.6568818247871988  0.22616800207547533  0.7601313976494309  1.0000
  C   C55       1.0  0.8460024329260705  0.0880612843347848  0.4852941029758  1.0000
  C   C56       1.0  0.15400107011151215  0.9119379156611982  0.5147035630164253  1.0000
  C   C57       1.0  0.9402750150360859  0.10526428136473949  0.6656044448019998  1.0000
  C   C58       1.0  0.05972667716727633  0.8947398895288  0.3343936494942667  1.0000
  C   C59       1.0  0.33624872894412755  0.6686720033593827  0.1549945943392643  1.0000
  C   C60       1.0  0.6637481774629846  0.33132640932232243  0.8450047027864541  1.0000
  C   C61       1.0  0.9332417379532815  0.14932317337934362  0.5923185974049474  1.0000
  C   C62       1.0  0.06676304862077136  0.8506768493817489  0.40767958830522855  1.0000
  N   N1        1.0  0.8211605249716243  0.5058538969740737  0.2085134002214986  1.0000
  N   N2        1.0  0.1788368322301608  0.49414617028695323  0.7914866555439488  1.0000
  N   N3        1.0  0.9525975617561644  0.2256173255570318  0.28489218612682526  1.0000
  N   N4        1.0  0.04740592448266776  0.774381884060013  0.7151076194967774  1.0000
  N   N5        1.0  0.4758967120255235  0.277974311927693  0.4050617445642644  1.0000
  N   N6        1.0  0.5241066064643435  0.7220282177865729  0.5949408643616325  1.0000
  N   N7        1.0  0.779554893256396  0.513866337752873  0.510971235337479  1.0000
  N   N8        1.0  0.22044286829085286  0.48613123028655286  0.48902497002461603  1.0000
  O   O1        1.0  0.8134560456714652  0.49697704788259506  0.2958280425463899  1.0000
  O   O2        1.0  0.18654598928193883  0.5030246590665614  0.7041740466615636  1.0000
  O   O3        1.0  0.7623449377991705  0.4229316744868683  0.11618528889456312  1.0000
  O   O4        1.0  0.23765218840570412  0.5770675686915183  0.8838151007614742  1.0000
  O   O5        1.0  0.8757316083576041  0.22999699559563422  0.20204850150310694  1.0000
  O   O6        1.0  0.12426975600337911  0.7700022262775337  0.7979517365347919  1.0000
  O   O7        1.0  0.07230168742070477  0.724090834123757  0.6216102717366496  1.0000
  O   O8        1.0  0.9276946284406975  0.27590922804076  0.3783875039993418  1.0000
  O   O9        1.0  0.8849766241766021  0.5945702432688266  0.21799686875353805  1.0000
  O   O10       1.0  0.11502433023933632  0.40543148103295573  0.7820079328981677  1.0000
  O   O11       1.0  0.0530110590667121  0.1725853656355412  0.2715421085692498  1.0000
  O   O12       1.0  0.9469907784872759  0.8274154979888594  0.7284560352665466  1.0000
