data_image0
_chemical_formula_structural       Zn8H24C80Cl16O34
_chemical_formula_sum              "Zn8 H24 C80 Cl16 O34"
_cell_length_a       23.80642306051908
_cell_length_b       23.807916756708593
_cell_length_c       23.80631676581222
_cell_angle_alpha    66.51327858596404
_cell_angle_beta     72.50398325961358
_cell_angle_gamma    107.50451783063328

_space_group_name_H-M_alt    "P 1"
_space_group_IT_number       1

loop_
  _space_group_symop_operation_xyz
  'x, y, z'

loop_
  _atom_site_type_symbol
  _atom_site_label
  _atom_site_symmetry_multiplicity
  _atom_site_fract_x
  _atom_site_fract_y
  _atom_site_fract_z
  _atom_site_occupancy
  Zn  Zn1       1.0  0.05747810117702539  0.9577586954305983  0.48477498410298414  1.0000
  Zn  Zn2       1.0  0.05747501689278068  0.09971776007274971  0.4577610971369452  1.0000
  Zn  Zn3       1.0  0.9425183262848047  0.9847732636114014  0.4577519442896905  1.0000
  Zn  Zn4       1.0  0.9425354084977613  0.9577555583360816  0.5997204577635246  1.0000
  Zn  Zn5       1.0  0.9425240495553737  0.5422428685593699  0.015225701388168245  1.0000
  Zn  Zn6       1.0  0.05748422072364427  0.5152297440032996  0.04224720852890582  1.0000
  Zn  Zn7       1.0  0.9425243996091054  0.40028218417945277  0.04224385075013275  1.0000
  Zn  Zn8       1.0  0.057463703428488964  0.5422394444013463  0.9002803014764569  1.0000
  H   H1        1.0  0.923329126987916  0.6521593116374691  0.11217704179355074  1.0000
  H   H2        1.0  0.0766668218276719  0.6121684509496885  0.15219650415104993  1.0000
  H   H3        1.0  0.9233288807750808  0.8878282220563135  0.3478093267766199  1.0000
  H   H4        1.0  0.07661776055503101  0.8477769424495564  0.3878901719167588  1.0000
  H   H5        1.0  0.07668173811651958  0.46446882777515  0.7711779137389456  1.0000
  H   H6        1.0  0.9233420476759093  0.2711442638837767  0.9645054551832287  1.0000
  H   H7        1.0  0.07661824092519957  0.22884434961233782  0.5355077170702955  1.0000
  H   H8        1.0  0.9233288523771391  0.0355042661075231  0.7288451606236566  1.0000
  H   H9        1.0  0.7356509525432386  0.46448897351097435  0.112148560390942  1.0000
  H   H10       1.0  0.7356479149542708  0.27114929436056207  0.1521993433580349  1.0000
  H   H11       1.0  0.26435370242427325  0.22885286610960517  0.3477973404061244  1.0000
  H   H12       1.0  0.2643512174064711  0.03552691834875791  0.3877820172619551  1.0000
  H   H13       1.0  0.26435894860803416  0.6121306316807845  0.964486413592468  1.0000
  H   H14       1.0  0.26434317339693075  0.6521909676097765  0.7711383682837506  1.0000
  H   H15       1.0  0.7356599877484555  0.8478060022090688  0.7288587093093639  1.0000
  H   H16       1.0  0.7356403542465627  0.8878023949981966  0.5355246104740988  1.0000
  H   H17       1.0  0.9194184001199658  0.8372447747984141  0.7433345641364041  1.0000
  H   H18       1.0  0.0805841452356048  0.6627557509467863  0.7566659080009615  1.0000
  H   H19       1.0  0.9194153760447604  0.662751033677651  0.9178282825606134  1.0000
  H   H20       1.0  0.0805867291539924  0.8372490513355613  0.5821724972156378  1.0000
  H   H21       1.0  0.9194133459439014  0.08217701889849838  0.3372325820797786  1.0000
  H   H22       1.0  0.08058675277988661  0.4178230912843262  0.16276915390156443  1.0000
  H   H23       1.0  0.9194194510994294  0.2566738427885511  0.16273797129495896  1.0000
  H   H24       1.0  0.08058201200449128  0.2433265906218693  0.3372619649507485  1.0000
  C   C1        1.0  0.18216434153784888  0.0910929573460066  0.40890795964033094  1.0000
  C   C2        1.0  0.9999949725596906  0.13965199676408  0.36034684894104174  1.0000
  C   C3        1.0  0.9999852366278218  0.9089121664444307  0.4089298899587631  1.0000
  C   C4        1.0  0.8178397530386974  0.908906990052685  0.5910983366509871  1.0000
  C   C5        1.0  5.953203938520298e-06  0.8603468775751961  0.6396557877908793  1.0000
  C   C6        1.0  0.9999885313034226  0.09107779003658584  0.5910864630842384  1.0000
  C   C7        1.0  2.4766334190159224e-06  0.5910728397556609  0.09108760138828852  1.0000
  C   C8        1.0  4.8841337373323785e-06  0.36034839292937443  0.1396552690839671  1.0000
  C   C9        1.0  0.8178369462050625  0.4089115096119329  0.09107530609583137  1.0000
  C   C10       1.0  0.9999960037563013  0.40890318995237607  0.9089319826403327  1.0000
  C   C11       1.0  0.999995953874155  0.6396524879802783  0.8603444972100647  1.0000
  C   C12       1.0  0.18216285639201849  0.5910763645382316  0.9089026322149467  1.0000
  C   C13       1.0  3.7589681551380563e-06  0.8042333616875437  0.6957672826315717  1.0000
  C   C14       1.0  0.9999985882609647  0.6957664438150386  0.8042331151010204  1.0000
  C   C15       1.0  0.9561157195320363  0.7768835899983771  0.767000234057548  1.0000
  C   C16       1.0  0.043886825817743315  0.7231169349619504  0.7330006584503509  1.0000
  C   C17       1.0  0.9561140630684547  0.7231141200458994  0.8207687549291833  1.0000
  C   C18       1.0  0.04388780010572897  0.7768862452628227  0.6792319865202003  1.0000
  C   C19       1.0  0.9999976069638589  0.19576595495347254  0.3042342057204054  1.0000
  C   C20       1.0  2.2497295617940614e-06  0.3042344347399819  0.19576791230460341  1.0000
  C   C21       1.0  0.9561143691727666  0.17923520033156146  0.27687626231350754  1.0000
  C   C22       1.0  0.04388528939420407  0.3207644691192754  0.22312578130672034  1.0000
  C   C23       1.0  0.956115387353087  0.23300350930943411  0.22310797467596888  1.0000
  C   C24       1.0  0.043884711370694156  0.2669966008733907  0.2768937613053737  1.0000
  C   C25       1.0  6.410433355190751e-07  0.6285264213896936  0.1285440330534585  1.0000
  C   C26       1.0  0.9567020939171653  0.6572130397484556  0.1347163698501035  1.0000
  C   C27       1.0  0.9567860366602118  0.692036171372223  0.16963544377410505  1.0000
  C   C28       1.0  0.9999909347651934  0.6994016401652629  0.1994347100897259  1.0000
  C   C29       1.0  0.043202102322865546  0.6696198189435092  0.1920684778369336  1.0000
  C   C30       1.0  0.043290249893786374  0.6347017343379165  0.1572436042606641  1.0000
  C   C31       1.0  0.9999811565727939  0.7346479666161015  0.2346962513481686  1.0000
  C   C32       1.0  0.9999755665101872  0.7653002236230364  0.2653576883311717  1.0000
  C   C33       1.0  0.999974437272009  0.8005536502119173  0.3006096033649612  1.0000
  C   C34       1.0  0.956779492617976  0.8303580133311146  0.3079549658587266  1.0000
  C   C35       1.0  0.9566928197631763  0.865279143268033  0.34277776588944425  1.0000
  C   C36       1.0  0.999973867455651  0.8714453550019814  0.37148689116547456  1.0000
  C   C37       1.0  0.04325443325276945  0.8427339211838213  0.36533864706573405  1.0000
  C   C38       1.0  0.04317240541738675  0.8079142803326247  0.3304146697341183  1.0000
  C   C39       1.0  7.963869372017741e-06  0.3714487734942509  0.8714784015629603  1.0000
  C   C40       1.0  0.043306294187488  0.4085612310797799  0.799498649956469  1.0000
  C   C41       1.0  0.04322037022912884  0.37355769643422576  0.7647597473860446  1.0000
  C   C42       1.0  5.013676243849e-06  0.3005639983799782  0.800598583567414  1.0000
  C   C43       1.0  0.9568001789034141  0.2647276162545041  0.87359009642622  1.0000
  C   C44       1.0  0.9567164756260665  0.2994654546540332  0.9085960827610721  1.0000
  C   C45       1.0  0.9999961287910893  0.26531413735256865  0.7653389200600671  1.0000
  C   C46       1.0  0.9999839608023889  0.23466343585463523  0.7346826381312755  1.0000
  C   C47       1.0  0.9999795675007873  0.19941547279150026  0.6994205573499954  1.0000
  C   C48       1.0  0.043173378332539945  0.23525702842508173  0.6264248526525478  1.0000
  C   C49       1.0  0.04325441934535231  0.20052227406097242  0.5914180243516398  1.0000
  C   C50       1.0  0.9999757595742906  0.12853454488735844  0.6285382103844058  1.0000
  C   C51       1.0  0.9566919957580564  0.09141470886765284  0.7005236416294169  1.0000
  C   C52       1.0  0.9567808904665398  0.12641860496364646  0.7352615052786292  1.0000
  C   C53       1.0  0.7429277003337517  0.37145786912790874  0.12853309071274324  1.0000
  C   C54       1.0  0.708062633202644  0.40857914211839835  0.1346941530358736  1.0000
  C   C55       1.0  0.638321057012895  0.37357439278211757  0.16961288427114612  1.0000
  C   C56       1.0  0.6011640863616705  0.30058021562069115  0.19940929272615907  1.0000
  C   C57       1.0  0.6383182893031858  0.2647371381255893  0.19206005351978928  1.0000
  C   C58       1.0  0.7080622324554607  0.29947302483601834  0.15723894540531802  1.0000
  C   C59       1.0  0.5306543440358382  0.2653273741302017  0.23465301137636635  1.0000
  C   C60       1.0  0.4693460864308817  0.2346810020430681  0.26529451611786936  1.0000
  C   C61       1.0  0.3988386112343817  0.19943407429636298  0.3005431847701204  1.0000
  C   C62       1.0  0.36168471523250634  0.23527010093206255  0.30791739366290477  1.0000
  C   C63       1.0  0.2919404196965231  0.2005317692739013  0.3427404187425581  1.0000
  C   C64       1.0  0.25707286154955966  0.1285474677569525  0.371434506333209  1.0000
  C   C65       1.0  0.2919375778486851  0.09143424694886453  0.365248090031038  1.0000
  C   C66       1.0  0.3616814865631639  0.12643820460973393  0.3303243494033552  1.0000
  C   C67       1.0  0.2570724972364926  0.628520985266526  0.8714525099368945  1.0000
  C   C68       1.0  0.29194270908642017  0.6346772813820037  0.9085756373424232  1.0000
  C   C69       1.0  0.36168520122919995  0.6695984981440192  0.8735725962645873  1.0000
  C   C70       1.0  0.3988367494860511  0.6993997989634693  0.8005764950599004  1.0000
  C   C71       1.0  0.3616764857974529  0.6920488297234896  0.7647313191970612  1.0000
  C   C72       1.0  0.2919322259876793  0.6572260958002262  0.7994643441539679  1.0000
  C   C73       1.0  0.46934602922528507  0.7346474914546449  0.7653252986626029  1.0000
  C   C74       1.0  0.5306540673396256  0.765298866232378  0.7346839743106628  1.0000
  C   C75       1.0  0.6011637883707265  0.8005574400746056  0.6994354660084385  1.0000
  C   C76       1.0  0.6383234826808177  0.8079318789057411  0.7352723362432415  1.0000
  C   C77       1.0  0.708068908767423  0.8427542189534876  0.7005357556638078  1.0000
  C   C78       1.0  0.7429295605200608  0.8714487595905993  0.6285494076081408  1.0000
  C   C79       1.0  0.7080567930759826  0.8652669124376686  0.5914350938986319  1.0000
  C   C80       1.0  0.6383152251333823  0.8303455750317495  0.6264383243618498  1.0000
  Cl  Cl1       1.0  0.09656653412132228  0.6770077442328244  0.2270939904904595  1.0000
  Cl  Cl2       1.0  0.9034207213869435  0.7270492536763056  0.17701610309728735  1.0000
  Cl  Cl3       1.0  0.09651714221467954  0.772872723511334  0.3230674795327886  1.0000
  Cl  Cl4       1.0  0.9034320953449964  0.8229902923314826  0.272909996852846  1.0000
  Cl  Cl5       1.0  0.9034337146613254  0.17634712906082936  0.9195687250943225  1.0000
  Cl  Cl6       1.0  0.09658296395947018  0.4195303190576354  0.6763824623184432  1.0000
  Cl  Cl7       1.0  0.9034335454021089  0.08043876198791367  0.8236454617843095  1.0000
  Cl  Cl8       1.0  0.09652014842510671  0.3236413268346822  0.5804439261247226  1.0000
  Cl  Cl9       1.0  0.595914653017573  0.17635327373230347  0.22709567016203638  1.0000
  Cl  Cl10      1.0  0.59591908486167  0.41955566903276054  0.1769797347348857  1.0000
  Cl  Cl11      1.0  0.4040847142003158  0.08046501170043997  0.322936689109767  1.0000
  Cl  Cl12      1.0  0.4040867223190289  0.32364916467874133  0.2729022363868552  1.0000
  Cl  Cl13      1.0  0.40407468435621025  0.7270877621663558  0.6763448008788445  1.0000
  Cl  Cl14      1.0  0.4040925885328121  0.6769574259545692  0.9195593713541046  1.0000
  Cl  Cl15      1.0  0.5959054578049601  0.8229570908917692  0.580461900138822  1.0000
  Cl  Cl16      1.0  0.5959297094054959  0.7729125230759308  0.8236556296587452  1.0000
  O   O1        1.0  5.935731693001664e-07  9.22540166900067e-07  0.4999994115768658  1.0000
  O   O2        1.0  0.15308460830751608  0.02542650856602083  0.43428733240193657  1.0000
  O   O3        1.0  0.04019193436027987  0.15598059109884588  0.384213878092396  1.0000
  O   O4        1.0  0.9596930261944862  0.9342873726324399  0.4126287929926989  1.0000
  O   O5        1.0  0.15308640342129107  0.1276757332701024  0.4126290568083135  1.0000
  O   O6        1.0  0.04028730706940555  0.9126304413177027  0.4342946855939689  1.0000
  O   O7        1.0  0.959795138349044  0.0755954158704313  0.38420510915345585  1.0000
  O   O8        1.0  0.8469135369922183  0.9342820231900076  0.5254265709193365  1.0000
  O   O9        1.0  0.9598122240349549  0.8842094949973996  0.6559873328023972  1.0000
  O   O10       1.0  0.846921814432555  0.9126205754019876  0.6276791409209111  1.0000
  O   O11       1.0  0.04020240057780436  0.8842105290706426  0.5755971614507729  1.0000
  O   O12       1.0  0.04028757130078725  0.12766619701764628  0.5254208852876872  1.0000
  O   O13       1.0  0.9597088830135192  0.02541424473667325  0.6276712033333497  1.0000
  O   O14       1.0  8.278575974367341e-07  0.5000000039138897  8.71646982125902e-07  1.0000
  O   O15       1.0  0.9597051601726037  0.5873614210743766  0.06571571054639248  1.0000
  O   O16       1.0  0.040204916476618224  0.4244056948505132  0.11579666290579382  1.0000
  O   O17       1.0  0.8469142019550446  0.37232854813532157  0.08736793009683204  1.0000
  O   O18       1.0  0.04030296231938019  0.5657080179701809  0.08737788092498287  1.0000
  O   O19       1.0  0.8469161952936443  0.474578506424919  0.06570258260897106  1.0000
  O   O20       1.0  0.9598088465391044  0.3440196787355915  0.11578800894745464  1.0000
  O   O21       1.0  0.959698067004233  0.37232060585753163  0.9745941862163008  1.0000
  O   O22       1.0  0.040188164452039994  0.6157878289043665  0.8440133803399023  1.0000
  O   O23       1.0  0.040284192825751644  0.4745705971584755  0.872342824952547  1.0000
  O   O24       1.0  0.9597999466513158  0.6157892764319399  0.924403236281812  1.0000
  O   O25       1.0  0.15308799523187128  0.5657101836562646  0.9745707882545319  1.0000
  O   O26       1.0  0.1530790794909008  0.5873704681150542  0.8723197125986529  1.0000
  O   O27       1.0  0.9130141921995117  0.7998702563169928  0.7871108789149872  1.0000
  O   O28       1.0  0.08698879331287655  0.7001307101601952  0.7128892855834935  1.0000
  O   O29       1.0  0.9130122804874146  0.700124008178406  0.8868571622879247  1.0000
  O   O30       1.0  0.08699026486815592  0.7998765175668011  0.6131433098494412  1.0000
  O   O31       1.0  0.9130125431533854  0.11314933825136814  0.29985627473155324  1.0000
  O   O32       1.0  0.08698779760076279  0.38685049242082664  0.20014507920613062  1.0000
  O   O33       1.0  0.9130162593734921  0.21289634642516825  0.20010998583673978  1.0000
  O   O34       1.0  0.08698544575500482  0.2871038066897498  0.2998899887358349  1.0000
