data_image0
_chemical_formula_structural       Ag2H28C16N6O10
_chemical_formula_sum              "Ag2 H28 C16 N6 O10"
_cell_length_a       5.294040599247238
_cell_length_b       7.788596062781957
_cell_length_c       15.11602701357531
_cell_angle_alpha    85.72031464871753
_cell_angle_beta     79.62342656873406
_cell_angle_gamma    70.16538118721084

_space_group_name_H-M_alt    "P 1"
_space_group_IT_number       1

loop_
  _space_group_symop_operation_xyz
  'x, y, z'

loop_
  _atom_site_type_symbol
  _atom_site_label
  _atom_site_symmetry_multiplicity
  _atom_site_fract_x
  _atom_site_fract_y
  _atom_site_fract_z
  _atom_site_occupancy
  Ag  Ag1       1.0  0.6798356796090418  0.6560797567342432  0.2466155819474452  1.0000
  Ag  Ag2       1.0  0.3200558492152794  0.34395207009928447  0.7534090841178552  1.0000
  H   H1        1.0  0.941580969064276  0.3798034188797672  0.952331397580103  1.0000
  H   H2        1.0  0.6765320240655369  0.3810686298142442  0.5463952584899303  1.0000
  H   H3        1.0  0.05840035065297396  0.6202681990444531  0.04768128558428231  1.0000
  H   H4        1.0  0.3234758045898404  0.6188967358863593  0.45360218554895226  1.0000
  H   H5        1.0  0.3883700444174849  0.39774622816368327  0.1581303759702308  1.0000
  H   H6        1.0  0.20923212421381268  0.40041931233888317  0.33773116724051994  1.0000
  H   H7        1.0  0.6116392435171603  0.6022527754200272  0.8419009231219192  1.0000
  H   H8        1.0  0.7907665034490278  0.5995719064676666  0.6622719179690435  1.0000
  H   H9        1.0  0.6538696865184619  0.23104683801211934  0.2049033468685053  1.0000
  H   H10       1.0  0.10587391278055235  0.23275693681604545  0.29555644312441126  1.0000
  H   H11       1.0  0.3462300242617146  0.7689417202017169  0.7950970984013849  1.0000
  H   H12       1.0  0.8941145550544575  0.7672482547098411  0.7044242882648248  1.0000
  H   H13       1.0  0.7049785586718401  0.009163476040654902  0.09745575386705238  1.0000
  H   H14       1.0  0.2817695959062759  0.012703295076853704  0.4047678587421614  1.0000
  H   H15       1.0  0.29502864975532345  0.9908604938925765  0.9025483724154099  1.0000
  H   H16       1.0  0.7181648621981793  0.9872718714639177  0.5952111456472763  1.0000
  H   H17       1.0  0.3683122499995051  0.13971820908359692  0.0842224708968828  1.0000
  H   H18       1.0  0.48653464321834144  0.1447107728233945  0.4161833712747409  1.0000
  H   H19       1.0  0.6317486177607774  0.8603015921427469  0.9157878523067212  1.0000
  H   H20       1.0  0.5134856719423339  0.8552194903440622  0.5837873729081977  1.0000
  H   H21       1.0  0.8169346473154204  0.0851465625762202  0.9427316305650849  1.0000
  H   H22       1.0  0.09365937371199348  0.08634987594277992  0.5584407871633273  1.0000
  H   H23       1.0  0.18310970846785324  0.914890974733609  0.05727908690284519  1.0000
  H   H24       1.0  0.9063787848794861  0.9136361663182698  0.44154357005012207  1.0000
  H   H25       1.0  0.5190736228075536  0.27880466773116547  0.9464586822627439  1.0000
  H   H26       1.0  0.20017305874566188  0.2795243081272576  0.5528828547713687  1.0000
  H   H27       1.0  0.4809715580448923  0.7212041789331849  0.05355360490667489  1.0000
  H   H28       1.0  0.7998861495288593  0.7204468310692321  0.4470941266756867  1.0000
  C   C1        1.0  0.7820775226618081  0.3724744036941559  0.08670163562943858  1.0000
  C   C2        1.0  0.8413526265984358  0.37670594774804306  0.4118000260611296  1.0000
  C   C3        1.0  0.2179641086308521  0.62756440976802  0.9133151563386406  1.0000
  C   C4        1.0  0.15863894616411753  0.6232922166703361  0.5881946479343299  1.0000
  C   C5        1.0  0.5853455284650266  0.2884141371098822  0.1414660905331218  1.0000
  C   C6        1.0  0.12000755300307009  0.291680516346844  0.35740606031014005  1.0000
  C   C7        1.0  0.4146686964268868  0.7115837946413279  0.8585451015660226  1.0000
  C   C8        1.0  0.8800402127116839  0.7082822992470527  0.6425798214084891  1.0000
  C   C9        1.0  0.5741996782946969  0.14519826698957422  0.07919751691576948  1.0000
  C   C10       1.0  0.2756929735402665  0.1489050538435492  0.42141689966342  1.0000
  C   C11       1.0  0.4258602294025876  0.8548203594045277  0.9207996708775141  1.0000
  C   C12       1.0  0.7243017228197169  0.8510563238303137  0.5785728609491513  1.0000
  C   C13       1.0  0.6838164096538079  0.20217863433057914  0.9838673798911302  1.0000
  C   C14       1.0  0.11054542483781656  0.2040421808684698  0.5161797349157808  1.0000
  C   C15       1.0  0.31624598158106915  0.7978576160437074  0.016138333854485196  1.0000
  C   C16       1.0  0.8894412180573779  0.7959505337140841  0.4838140921531249  1.0000
  N   N1        1.0  0.08325132790735525  0.846919843398176  0.25187549672264004  1.0000
  N   N2        1.0  0.9166877027215248  0.15306470669550987  0.7481154918260485  1.0000
  N   N3        1.0  0.8355127333690858  0.3182914102981301  0.001220208068758688  1.0000
  N   N4        1.0  0.8433430285987383  0.321462299317659  0.4978378966044161  1.0000
  N   N5        1.0  0.16446803690598683  0.6817649429322686  0.9988095572111816  1.0000
  N   N6        1.0  0.15667013967188104  0.6785236846937724  0.502149939772991  1.0000
  O   O1        1.0  0.8803703903113698  0.48087324559243433  0.11482423259439399  1.0000
  O   O2        1.0  0.6354507675885299  0.4872140799594007  0.3828851705293986  1.0000
  O   O3        1.0  0.11954170541702781  0.5192107367781631  0.8851815864955767  1.0000
  O   O4        1.0  0.36452055609403533  0.5127512139297536  0.6171164407837608  1.0000
  O   O5        1.0  0.2745750166618706  0.9129093904823904  0.24809415109833569  1.0000
  O   O6        1.0  0.837934980591612  0.9475120507685235  0.26690871233015656  1.0000
  O   O7        1.0  0.7253559955309825  0.08709999409541781  0.7518786244816056  1.0000
  O   O8        1.0  0.1619758313750381  0.05242636473663251  0.7330623449978759  1.0000
  O   O9        1.0  0.1439134476970381  0.6753757186754895  0.2404420316470137  1.0000
  O   O10       1.0  0.8560498513325356  0.32459167302955194  0.7596029927308834  1.0000
