data_image0
_chemical_formula_structural       K2P2H24Pt2C4N4Cl4O8
_chemical_formula_sum              "K2 P2 H24 Pt2 C4 N4 Cl4 O8"
_cell_length_a       7.94200604302018
_cell_length_b       8.675946684358008
_cell_length_c       8.776734751223643
_cell_angle_alpha    84.04119584700915
_cell_angle_beta     67.84126475341935
_cell_angle_gamma    85.69155007577524

_space_group_name_H-M_alt    "P 1"
_space_group_IT_number       1

loop_
  _space_group_symop_operation_xyz
  'x, y, z'

loop_
  _atom_site_type_symbol
  _atom_site_label
  _atom_site_symmetry_multiplicity
  _atom_site_fract_x
  _atom_site_fract_y
  _atom_site_fract_z
  _atom_site_occupancy
  K   K1        1.0  0.5723587152948327  0.7837066856447237  0.4323454826871185  1.0000
  K   K2        1.0  0.4276453838946069  0.2162843774843495  0.5676427984188023  1.0000
  P   P1        1.0  0.8070502845030846  0.2130082295987989  0.7453566140523192  1.0000
  P   P2        1.0  0.1929317989797426  0.7869886391747796  0.25463847680240553  1.0000
  H   H1        1.0  0.7745304739144602  0.45358864078204403  0.5962224701447382  1.0000
  H   H2        1.0  0.22546894535645384  0.5464139898665579  0.40377535039178264  1.0000
  H   H3        1.0  0.5925258152816186  0.4342582744816283  0.7924169282575021  1.0000
  H   H4        1.0  0.4074708849367711  0.5657443570278529  0.2075818042464164  1.0000
  H   H5        1.0  0.5802815515339362  0.18830887964455906  0.02345951366751105  1.0000
  H   H6        1.0  0.41972064879265514  0.8116925943025278  0.9765363491671337  1.0000
  H   H7        1.0  0.7507756800761812  0.035500305250827986  0.9862210135133367  1.0000
  H   H8        1.0  0.24922389716657292  0.9644988461432575  0.013777098617452974  1.0000
  H   H9        1.0  0.9737496048216842  0.4991718806562487  0.7405377173631392  1.0000
  H   H10       1.0  0.026247253368545397  0.500827271598702  0.2594613067350622  1.0000
  H   H11       1.0  0.8041579207240874  0.6310963433283729  0.7685944664091976  1.0000
  H   H12       1.0  0.19583884742538527  0.3689039530346605  0.23140903222112288  1.0000
  H   H13       1.0  0.8675917960020174  0.9735577834358721  0.31932095246713743  1.0000
  H   H14       1.0  0.13241311061330668  0.026442502522840493  0.6806820961260553  1.0000
  H   H15       1.0  0.9647299677585793  0.2298492225964566  0.9826900083785332  1.0000
  H   H16       1.0  0.03527097493837772  0.7701487490613984  0.017313459629406204  1.0000
  H   H17       1.0  0.7988717996414607  0.19803446574031364  0.1640012047100187  1.0000
  H   H18       1.0  0.20112645204057605  0.8019635185109875  0.835999746467678  1.0000
  H   H19       1.0  0.8600091119302891  0.7995907538398936  0.5338841550495913  1.0000
  H   H20       1.0  0.13998489385524954  0.2004107070463732  0.46611901541749023  1.0000
  H   H21       1.0  0.7429495140531232  0.9070944852966746  0.673290688036701  1.0000
  H   H22       1.0  0.2570404751567708  0.09290582104025448  0.3267128046470305  1.0000
  H   H23       1.0  0.7792451333834479  0.09781996744677458  0.44653358271321497  1.0000
  H   H24       1.0  0.22075706945316403  0.902179143977875  0.5534750467756879  1.0000
  Pt  Pt1       1.0  0.7787197970147873  0.48370161530488076  0.047396133174828575  1.0000
  Pt  Pt2       1.0  0.22128127903433648  0.5162940485825301  0.9526041004316494  1.0000
  C   C1        1.0  0.7406255062073869  0.4178609296114074  0.7283072116097385  1.0000
  C   C2        1.0  0.2593753592126191  0.5821393732820325  0.2716926332043599  1.0000
  C   C3        1.0  0.7271187044324282  0.16166679664456748  0.967268951398317  1.0000
  C   C4        1.0  0.27288612490593783  0.8383358205497303  0.03273047400103477  1.0000
  N   N1        1.0  0.8345396899578504  0.5152069146871197  0.797981241802759  1.0000
  N   N2        1.0  0.16545980659002174  0.4847933847258973  0.20202020192760267  1.0000
  N   N3        1.0  0.8259520158831394  0.24671273086852347  0.04374064016614912  1.0000
  N   N4        1.0  0.17404763863657285  0.7532840892899769  0.9562610951584887  1.0000
  Cl  Cl1       1.0  0.7297512944807565  0.7514631267907317  0.052395378624091014  1.0000
  Cl  Cl2       1.0  0.2702565545800084  0.24853370642858139  0.94759904906811  1.0000
  Cl  Cl3       1.0  0.7190521845075326  0.45267781921619127  0.3298002928872916  1.0000
  Cl  Cl4       1.0  0.28094747001217973  0.547319000942309  0.6702014424373459  1.0000
  O   O1        1.0  0.7110435643772917  0.12002904681367708  0.6665746520353933  1.0000
  O   O2        1.0  0.28897054890614277  0.8799770153352424  0.33343043334416217  1.0000
  O   O3        1.0  0.015123947593913606  0.20006045068122094  0.6789098020679489  1.0000
  O   O4        1.0  0.9848928541944277  0.7999479613966967  0.3210850334875984  1.0000
  O   O5        1.0  0.7590785365578087  0.7984539688546803  0.6437389241801769  1.0000
  O   O6        1.0  0.2409156271995698  0.2015440127770702  0.35626453788118784  1.0000
  O   O7        1.0  0.7738915714495818  0.06042506719649049  0.345617664967911  1.0000
  O   O8        1.0  0.22610926593281988  0.9395752239643896  0.6543856086438422  1.0000
