data_image0
_chemical_formula_structural       Cu2H14C16I2N6
_chemical_formula_sum              "Cu2 H14 C16 I2 N6"
_cell_length_a       8.032793150403513
_cell_length_b       8.096404798855538
_cell_length_c       8.682923139451075
_cell_angle_alpha    114.28074878349763
_cell_angle_beta     101.11515994697204
_cell_angle_gamma    109.39190590928567

_space_group_name_H-M_alt    "P 1"
_space_group_IT_number       1

loop_
  _space_group_symop_operation_xyz
  'x, y, z'

loop_
  _atom_site_type_symbol
  _atom_site_label
  _atom_site_symmetry_multiplicity
  _atom_site_fract_x
  _atom_site_fract_y
  _atom_site_fract_z
  _atom_site_occupancy
  Cu  Cu1       1.0  0.7235922327033678  0.5945679633920307  0.9608280725792612  1.0000
  Cu  Cu2       1.0  0.2764057319560181  0.40542928833038866  0.039173393618085625  1.0000
  H   H1        1.0  0.21253663672781195  0.2977426333596612  0.4833042676056537  1.0000
  H   H2        1.0  0.7874601606445497  0.7022577261249907  0.5166935821764228  1.0000
  H   H3        1.0  0.2458106883851201  0.08825372432611545  0.6168609578343974  1.0000
  H   H4        1.0  0.7541867089006047  0.9117450970569435  0.3831375575151911  1.0000
  H   H5        1.0  0.4078039993162579  0.8990821625271366  0.6922958902857062  1.0000
  H   H6        1.0  0.5921946896287196  0.10091969464671996  0.3077051948181406  1.0000
  H   H7        1.0  0.4143153754184042  0.6094256852829574  0.43964958195035564  1.0000
  H   H8        1.0  0.5856870914301525  0.39057615072111673  0.5603544978871043  1.0000
  H   H9        1.0  0.7134193921348813  0.9969448315864897  0.01029516340523179  1.0000
  H   H10       1.0  0.28657540556247335  0.0030479024354548  0.9896993550759632  1.0000
  H   H11       1.0  0.9846111571695108  0.3744037807053076  0.31005136819737805  1.0000
  H   H12       1.0  0.01537981381472528  0.6255889271478596  0.6899435834705728  1.0000
  H   H13       1.0  0.11134328594251032  0.6803972188859362  0.046873712020229226  1.0000
  H   H14       1.0  0.8886643968975112  0.3196077737548465  0.9531256485439883  1.0000
  C   C1        1.0  0.24845979179927027  0.9592178916004033  0.5085373146861232  1.0000
  C   C2        1.0  0.7515395295987589  0.04078245903090051  0.49146215070498295  1.0000
  C   C3        1.0  0.3400398778050901  0.8557866035869711  0.5511489918216415  1.0000
  C   C4        1.0  0.6599607515220499  0.14421679861465012  0.44885190068360004  1.0000
  C   C5        1.0  0.34353454670571204  0.6934940719077506  0.4111633031818301  1.0000
  C   C6        1.0  0.6564686606982946  0.306512385327281  0.588839252922007  1.0000
  C   C7        1.0  0.052056038485162166  0.9855366071270242  0.2660000489527051  1.0000
  C   C8        1.0  0.9479420563329911  0.014460770831576002  0.7339922761236436  1.0000
  C   C9        1.0  0.841871110906425  0.03628371270632161  0.11494475259672052  1.0000
  C   C10       1.0  0.15812683224146465  0.9637105066883936  0.8850543803308283  1.0000
  C   C11       1.0  0.9748389960738849  0.22394223382862324  0.2632496800620246  1.0000
  C   C12       1.0  0.025155823134973478  0.7760535325210329  0.7367471716889755  1.0000
  C   C13       1.0  0.1577087574530723  0.8918912147187045  0.32371754562213795  1.0000
  C   C14       1.0  0.8422957311268818  0.10811224521074791  0.6762806284161017  1.0000
  C   C15       1.0  0.17177498979076944  0.7299515542800564  0.19111033849623743  1.0000
  C   C16       1.0  0.8282320065450011  0.2700518810165208  0.808890593791162  1.0000
  I   I1        1.0  0.37160751795615016  0.5641017059621874  0.8190488616208145  1.0000
  I   I2        1.0  0.628392398113583  0.43589409001933904  0.18094779342788322  1.0000
  N   N1        1.0  0.8896222344424277  0.8883705225309841  0.11778731429991764  1.0000
  N   N2        1.0  0.1103815513634316  0.1116313642747429  0.8822135741016198  1.0000
  N   N3        1.0  0.10514869277989904  0.1894303703511327  0.35619646726335935  1.0000
  N   N4        1.0  0.894848758557018  0.810571514918678  0.6438020960757812  1.0000
  N   N5        1.0  0.26333391367742126  0.632134355419744  0.23257181105442032  1.0000
  N   N6        1.0  0.7366711637876904  0.3678705671767801  0.7674316471013823  1.0000
