data_image0
_chemical_formula_structural       Zn6H16C100I16N4O32
_chemical_formula_sum              "Zn6 H16 C100 I16 N4 O32"
_cell_length_a       23.61931781230599
_cell_length_b       23.61927816409888
_cell_length_c       32.62521606197039
_cell_angle_alpha    111.22551460943944
_cell_angle_beta     111.22526336528962
_cell_angle_gamma    90.0056174716994

_space_group_name_H-M_alt    "P 1"
_space_group_IT_number       1

loop_
  _space_group_symop_operation_xyz
  'x, y, z'

loop_
  _atom_site_type_symbol
  _atom_site_label
  _atom_site_symmetry_multiplicity
  _atom_site_fract_x
  _atom_site_fract_y
  _atom_site_fract_z
  _atom_site_occupancy
  Zn  Zn1       1.0  0.023297473158564192  0.023311921539317392  0.04658640551936339  1.0000
  Zn  Zn2       1.0  0.4999884838970131  0.9449384280745718  0.9999960318517082  1.0000
  Zn  Zn3       1.0  0.055062976523927894  0.5000114291526926  3.7846393042069365e-06  1.0000
  Zn  Zn4       1.0  0.5000015388855773  0.05506523593285811  1.2389417420828374e-06  1.0000
  Zn  Zn5       1.0  0.9766884341683096  0.9767013989209942  0.9534136438531603  1.0000
  Zn  Zn6       1.0  0.944935512880349  0.49999796428419796  1.4969113951639807e-07  1.0000
  H   H1        1.0  0.8758379888899485  0.17308993498983946  0.534240687444786  1.0000
  H   H2        1.0  0.3611607755909174  0.875859110275847  0.5342479562147345  1.0000
  H   H3        1.0  0.6583863822029484  0.361145900433634  0.5342245298002338  1.0000
  H   H4        1.0  0.17306098696301572  0.6583624529210254  0.534220589081805  1.0000
  H   H5        1.0  0.12413797074139399  0.6388410611631131  0.46575155944369573  1.0000
  H   H6        1.0  0.6388556996540088  0.34161493256718956  0.4657761418864296  1.0000
  H   H7        1.0  0.3416415666342445  0.8269333786525196  0.46577868877717776  1.0000
  H   H8        1.0  0.8269107271279594  0.12416231542513151  0.46575849288357324  1.0000
  H   H9        1.0  0.9212926685763849  0.22109687817156493  0.6224884338492486  1.0000
  H   H10       1.0  0.40146180655073466  0.9212760269987044  0.6225001308536874  1.0000
  H   H11       1.0  0.7012042030771609  0.40143546963429344  0.6224708188464447  1.0000
  H   H12       1.0  0.22106040387498646  0.7011880566559726  0.6224808385079542  1.0000
  H   H13       1.0  0.0787213090773448  0.5985393093298085  0.377499396180049  1.0000
  H   H14       1.0  0.5985671368410976  0.2987972280275741  0.37752996803561695  1.0000
  H   H15       1.0  0.29881774984706766  0.7789311083684964  0.37751874916313705  1.0000
  H   H16       1.0  0.7789040596120459  0.0787074081802075  0.3775113052818995  1.0000
  C   C1        1.0  0.10931045168232588  0.9999954317760287  0.999955844116954  1.0000
  C   C2        1.0  0.3438143566453461  0.854076937759906  0.5524978185694991  1.0000
  C   C3        1.0  0.36953434256876244  0.9400002689461645  0.8286722404224989  1.0000
  C   C4        1.0  0.11131676028138317  0.5408384724123536  0.1713074722790111  1.0000
  C   C5        1.0  0.5408157344709252  0.06001808522519531  0.1713016940736765  1.0000
  C   C6        1.0  0.06000340826414426  0.6304651773815166  0.17132765100510744  1.0000
  C   C7        1.0  0.6304468261753727  0.11136954266509493  0.1713327570040448  1.0000
  C   C8        1.0  0.8886330347323579  0.36955322387225925  0.8286669679504612  1.0000
  C   C9        1.0  0.45915943557655914  0.8886844152523495  0.828692149507553  1.0000
  C   C10       1.0  0.9399841719027718  0.4591850750612991  0.8286993639329197  1.0000
  C   C11       1.0  0.6984102039147331  0.34379721877337494  0.5524862947191664  1.0000
  C   C12       1.0  0.9267868573636946  0.4268819179837705  0.8536955626313443  1.0000
  C   C13       1.0  0.4268391056556878  0.9268370782936158  0.8536940986936158  1.0000
  C   C14       1.0  0.07316648051734378  0.5731605748967965  0.14630633830424242  1.0000
  C   C15       1.0  0.5731184566620514  0.07321617855543389  0.14630513255771396  1.0000
  C   C16       1.0  0.20867126477213552  0.6984003914081427  0.552477802703386  1.0000
  C   C17       1.0  0.8769164787924737  0.37693989368330705  0.7538256316213038  1.0000
  C   C18       1.0  0.3769388196523806  0.8769130292512417  0.7538236242688257  1.0000
  C   C19       1.0  0.12308861660320491  0.6230599523333779  0.2461761769333251  1.0000
  C   C20       1.0  0.6230623046272541  0.12308460107218622  0.24617465753647141  1.0000
  C   C21       1.0  0.9999769993131268  0.8299594151228931  3.613235766411118e-05  1.0000
  C   C22       1.0  0.14592115702980377  0.65618665128126  0.4475019111227994  1.0000
  C   C23       1.0  0.17004028224432208  2.278510748246492e-05  0.9999636279327715  1.0000
  C   C24       1.0  2.7354820239958236e-05  0.17006362087095536  0.9999861260117199  1.0000
  C   C25       1.0  0.8299401684675587  0.99996924144601  1.3434072769798271e-05  1.0000
  C   C26       1.0  0.9999871618882709  0.7781100204432007  8.998399493921726e-06  1.0000
  C   C27       1.0  0.2218899151014708  1.3447977373478703e-05  0.999991191206142  1.0000
  C   C28       1.0  1.2347681170617367e-05  0.22190147306357488  0.9999978032884653  1.0000
  C   C29       1.0  0.6562047059987179  0.3015916223107312  0.4475143781247013  1.0000
  C   C30       1.0  0.7780949188126273  0.9999857964031591  1.7908555775708924e-06  1.0000
  C   C31       1.0  0.9999935051292609  0.7211551470745263  0.9999988976835893  1.0000
  C   C32       1.0  0.27884356532580773  7.25552293089008e-06  1.8836479825076824e-06  1.0000
  C   C33       1.0  9.03877978654484e-06  0.2788506901629617  0.999998044881181  1.0000
  C   C34       1.0  0.7211449313528889  0.9999899551102231  1.6927582109607718e-06  1.0000
  C   C35       1.0  0.3016026939116116  0.7913236044652905  0.44752163477526347  1.0000
  C   C36       1.0  0.9999954234791275  0.6693296817823151  0.9999961933504194  1.0000
  C   C37       1.0  0.33067145900872674  2.8499578660903573e-06  4.85304635589519e-06  1.0000
  C   C38       1.0  1.7495096763034523e-05  0.3306770565828714  0.9999964176248993  1.0000
  C   C39       1.0  0.669326232240131  0.9999815166093169  3.8095489288321825e-06  1.0000
  C   C40       1.0  0.7913131312557979  0.14593880963262512  0.4475063967418151  1.0000
  C   C41       1.0  0.9538209376412323  0.4538935445143082  0.9077563983155413  1.0000
  C   C42       1.0  0.453853266432155  0.9538191046309664  0.907755667157133  1.0000
  C   C43       1.0  0.046184053568026684  0.5461456393360251  0.09224438307445844  1.0000
  C   C44       1.0  0.5461050511065366  0.04618280851409649  0.09224386303899478  1.0000
  C   C45       1.0  0.9999938521374576  0.6086061148503105  7.2771014031343575e-06  1.0000
  C   C46       1.0  0.8540614315131307  0.20868804668010202  0.5524937554574834  1.0000
  C   C47       1.0  0.3913947116884626  4.986379174510145e-06  0.999995369778233  1.0000
  C   C48       1.0  5.029955623586758e-06  0.3914070179124706  7.374906161019716e-07  1.0000
  C   C49       1.0  0.6085935570862802  0.9999917933335143  0.9999996791683898  1.0000
  C   C50       1.0  0.8016681629934295  0.2270533664014494  0.5260548453882945  1.0000
  C   C51       1.0  0.298994852592287  0.8016855770316053  0.5260579073815279  1.0000
  C   C52       1.0  0.7243684423125812  0.29898252715838675  0.5260542704524767  1.0000
  C   C53       1.0  0.22705074021194338  0.7243674613353618  0.5260486710355678  1.0000
  C   C54       1.0  0.1983128478089994  0.7010048597989923  0.4739412597634071  1.0000
  C   C55       1.0  0.7010190897900942  0.27563263382703707  0.4739461419717088  1.0000
  C   C56       1.0  0.2756333994961225  0.7729467980515708  0.4739511319756248  1.0000
  C   C57       1.0  0.7729474873770458  0.19833234812112724  0.4739450507699843  1.0000
  C   C58       1.0  0.7754854886282063  0.2754872366860894  0.5509970955038739  1.0000
  C   C59       1.0  0.27550019365253325  0.7754924219056608  0.5509924881583501  1.0000
  C   C60       1.0  0.22450796301264114  0.7244987819538478  0.4490068441028541  1.0000
  C   C61       1.0  0.7245138356000211  0.22451513036124737  0.4490030861169385  1.0000
  C   C62       1.0  0.9999986833188002  0.10933134909348753  0.9999736786136494  1.0000
  C   C63       1.0  0.8801761000373958  0.23536467855766569  0.6022885983919435  1.0000
  C   C64       1.0  0.36696967503281286  0.880165742558823  0.6022938652029737  1.0000
  C   C65       1.0  0.7221115343774969  0.36694548753317247  0.6022814715807812  1.0000
  C   C66       1.0  0.2353467360484131  0.7220905369609056  0.6022764923877517  1.0000
  C   C67       1.0  0.1198325514959819  0.6330308598004564  0.3977055011080282  1.0000
  C   C68       1.0  0.8906691704514031  0.9999989603722457  2.6315418473783713e-05  1.0000
  C   C69       1.0  0.6330570424512274  0.27789054914963174  0.3977195046039768  1.0000
  C   C70       1.0  0.27791378209803946  0.7646466339515641  0.39772289443832415  1.0000
  C   C71       1.0  0.7646374712356874  0.11982431142903487  0.3977117281492326  1.0000
  C   C72       1.0  2.1056480007846137e-06  0.8906888279295158  4.3174292699243766e-05  1.0000
  C   C73       1.0  0.8538689474432033  0.2806575712082164  0.6272529184431332  1.0000
  C   C74       1.0  0.34665412652659455  0.853839355980412  0.6272539536338897  1.0000
  C   C75       1.0  0.7734002723000158  0.34663333426324516  0.6272510167756025  1.0000
  C   C76       1.0  0.2806593551351779  0.7733683562105398  0.6272427815819483  1.0000
  C   C77       1.0  0.14616057760056822  0.6533451297604317  0.37274566984367397  1.0000
  C   C78       1.0  0.6533692618585007  0.22660069759055554  0.3727493620442956  1.0000
  C   C79       1.0  0.22663468716937987  0.7193356117786891  0.372756926748508  1.0000
  C   C80       1.0  0.7193447179008318  0.14613223993887203  0.37274721822699053  1.0000
  C   C81       1.0  0.8010314917497182  0.3010379240533894  0.6020690381388077  1.0000
  C   C82       1.0  0.30105737065829885  0.801015257328892  0.6020622897772724  1.0000
  C   C83       1.0  0.1989860183684157  0.6989402923057355  0.39793694352501763  1.0000
  C   C84       1.0  0.6989645480511442  0.19897036534744222  0.3979310705847965  1.0000
  C   C85       1.0  0.8821009463031261  0.3073255042092242  0.6798709845325348  1.0000
  C   C86       1.0  0.37261433387442355  0.882063085927619  0.679870596865534  1.0000
  C   C87       1.0  0.79781537131484  0.37261243035074193  0.6798689577423573  1.0000
  C   C88       1.0  0.3073186902877863  0.7977767254035227  0.6798653469239752  1.0000
  C   C89       1.0  0.11793572495702156  0.6273842071173946  0.3201287711345628  1.0000
  C   C90       1.0  0.6273888617324559  0.2021867344859061  0.3201298508290122  1.0000
  C   C91       1.0  0.20222540753544382  0.6926769143765696  0.3201337890197848  1.0000
  C   C92       1.0  0.6926783516529297  0.11789966201610723  0.3201282907134625  1.0000
  C   C93       1.0  0.8621698784357007  0.3453152699294009  0.7785682052744106  1.0000
  C   C94       1.0  0.43330835408293195  0.8621956234069333  0.7785970939944988  1.0000
  C   C95       1.0  0.9164027018394804  0.4333204206949758  0.778603484783545  1.0000
  C   C96       1.0  0.34531890093828804  0.9164000929428865  0.7785723218100812  1.0000
  C   C97       1.0  0.13780529141730105  0.5666893055495237  0.22140218407484005  1.0000
  C   C98       1.0  0.5666822027042357  0.08359825755332649  0.22139753243905597  1.0000
  C   C99       1.0  0.0836028426295953  0.6546796866023215  0.2214277896288195  1.0000
  C   C100      1.0  0.6546865950987453  0.13783156472177183  0.22143168677474281  1.0000
  I   I1        1.0  0.7997890152882903  0.26337263415404516  0.7389785915721772  1.0000
  I   I2        1.0  0.4756657063013276  0.7997713528394712  0.7390488326483079  1.0000
  I   I3        1.0  0.9392688026478311  0.47567391845093715  0.7390469341378463  1.0000
  I   I4        1.0  0.26341690946479435  0.9392454999172911  0.7389918757071356  1.0000
  I   I5        1.0  0.20022907165427734  0.5243315296859378  0.2609501602929498  1.0000
  I   I6        1.0  0.5243332855488632  0.060728651678694213  0.2609551267324903  1.0000
  I   I7        1.0  0.06075694890220967  0.7365819216662218  0.26100873231725796  1.0000
  I   I8        1.0  0.7366284022643017  0.20021267560488806  0.2610217639408389  1.0000
  I   I9        1.0  0.8747450172912608  0.3200977642407707  0.8672120101574379  1.0000
  I   I10       1.0  0.5471273528776593  0.874768029192694  0.8672760670610272  1.0000
  I   I11       1.0  0.9925221510794414  0.5471364464563209  0.8672756359386609  1.0000
  I   I12       1.0  0.32009302066164463  0.9924406920593326  0.8672202996874318  1.0000
  I   I13       1.0  0.12523092297014665  0.4528689458454807  0.13272272698787896  1.0000
  I   I14       1.0  0.4528655805232518  0.00747885613996153  0.13272492237350525  1.0000
  I   I15       1.0  0.007563691628405373  0.6799073546025411  0.13278054381419932  1.0000
  I   I16       1.0  0.6799017378179073  0.12525821435311707  0.13278784340286617  1.0000
  N   N1        1.0  0.8513853877522806  0.3513968831583724  0.7027262731119137  1.0000
  N   N2        1.0  0.35140564018821846  0.8513470776441139  0.7027235515565096  1.0000
  N   N3        1.0  0.148654227610649  0.6485920199920514  0.29727610275529054  1.0000
  N   N4        1.0  0.6486069658806386  0.1486161760039053  0.2972747416071542  1.0000
  O   O1        1.0  0.1057062157422024  0.021828254437402  0.0408115268118081  1.0000
  O   O2        1.0  0.0189700545111364  0.10571959126362881  0.04082529653853581  1.0000
  O   O3        1.0  0.9351295664598568  0.018992777529625488  0.04088208117580184  1.0000
  O   O4        1.0  0.021852988776402113  0.9351561959214649  0.04089786504334116  1.0000
  O   O5        1.0  0.8942803630856985  0.9810270970147387  0.9591743778520934  1.0000
  O   O6        1.0  0.981006644889561  0.06486955258991857  0.9591186873599468  1.0000
  O   O7        1.0  0.0648436613608465  0.9781433662928974  0.9591011651120736  1.0000
  O   O8        1.0  0.9781684893423941  0.894291817739507  0.9591874861130733  1.0000
  O   O9        1.0  0.9168511746156299  0.4739607218393402  0.9281297588460048  1.0000
  O   O10       1.0  0.4541344003316608  0.9168220505902269  0.9280970128511825  1.0000
  O   O11       1.0  0.01115716828775927  0.4541661747279875  0.9281190262091668  1.0000
  O   O12       1.0  0.4739437954037625  0.011165290808563082  0.9281468148569231  1.0000
  O   O13       1.0  0.08318169381917784  0.5458644047478814  0.07190310195380797  1.0000
  O   O14       1.0  0.5458319680944967  0.9888462303436827  0.07188077163564102  1.0000
  O   O15       1.0  0.9888387893949114  0.5260554065306735  0.07185385416929077  1.0000
  O   O16       1.0  0.5260374337686642  0.08315385116593892  0.07187145632486389  1.0000
  O   O17       1.0  0.9551290911056398  0.5878005302416722  0.006197877204812067  1.0000
  O   O18       1.0  0.41839544246838767  0.9551448808414729  0.006177850015013925  1.0000
  O   O19       1.0  0.05104516034814569  0.4184107961255634  0.006168458016517806  1.0000
  O   O20       1.0  0.5877900538289467  0.05104367520590364  0.00616614206332147  1.0000
  O   O21       1.0  0.0448550318515257  0.5816047501588386  0.9938244883011861  1.0000
  O   O22       1.0  0.581589488127669  0.9489511515963471  0.9938305945531737  1.0000
  O   O23       1.0  0.9489527894688478  0.41220981691677144  0.9938352415391732  1.0000
  O   O24       1.0  0.4121994210095534  0.04487020709404985  0.993804615529285  1.0000
  O   O25       1.0  0.9291748536449662  0.293116113713623  0.7035154497334873  1.0000
  O   O26       1.0  0.41046332916646816  0.9291540880210931  0.703519810642497  1.0000
  O   O27       1.0  0.7744039000832004  0.41047836029317597  0.703514175855112  1.0000
  O   O28       1.0  0.29309508183584376  0.7743584998392662  0.703501787719098  1.0000
  O   O29       1.0  0.07084558417136567  0.5895379376742014  0.2964804336662182  1.0000
  O   O30       1.0  0.5895257751511095  0.22559560404258153  0.296487208636556  1.0000
  O   O31       1.0  0.225644460290404  0.7069010704176649  0.2964984986931753  1.0000
  O   O32       1.0  0.7068884147902921  0.0708289136294979  0.2964851723163093  1.0000
