data_image0
_chemical_formula_structural       Mn3Ga9P12H78C24N18O48
_chemical_formula_sum              "Mn3 Ga9 P12 H78 C24 N18 O48"
_cell_length_a       13.47493191716724
_cell_length_b       14.06072205034227
_cell_length_c       14.061926192839595
_cell_angle_alpha    110.30111925634083
_cell_angle_beta     108.62113519619359
_cell_angle_gamma    108.63490834377048

_space_group_name_H-M_alt    "P 1"
_space_group_IT_number       1

loop_
  _space_group_symop_operation_xyz
  'x, y, z'

loop_
  _atom_site_type_symbol
  _atom_site_label
  _atom_site_symmetry_multiplicity
  _atom_site_fract_x
  _atom_site_fract_y
  _atom_site_fract_z
  _atom_site_occupancy
  Mn  Mn1       1.0  0.47184763918266276  0.6115622346153486  0.46910289159006174  1.0000
  Mn  Mn2       1.0  0.002700467715044409  0.5309344724406627  0.14251677788249142  1.0000
  Mn  Mn3       1.0  0.8602284755071424  0.8575281480561897  0.3883843243781655  1.0000
  Ga  Ga1       1.0  0.2668672851124255  0.45670677689145817  0.5797691047088448  1.0000
  Ga  Ga2       1.0  0.5265479479304177  0.3734544770421592  0.537943959846544  1.0000
  Ga  Ga3       1.0  0.6870578190307697  0.42017654726011927  0.8769211420167408  1.0000
  Ga  Ga4       1.0  0.9886799414547484  0.4621332009769857  0.8355737413823476  1.0000
  Ga  Ga5       1.0  0.8101556036026096  0.12311713405818371  0.5432334426124257  1.0000
  Ga  Ga6       1.0  0.15308378919954893  0.1643856127157903  0.6265714562197502  1.0000
  Ga  Ga7       1.0  0.7274793465320285  0.5424497499037101  0.4186777612273573  1.0000
  Ga  Ga8       1.0  0.3088317066804933  0.5813450129643413  0.12388907113187743  1.0000
  Ga  Ga9       1.0  0.18508045879480028  0.8763252346357783  0.4576021990851657  1.0000
  P   P1        1.0  0.5562836922723733  0.6151550949146337  0.6738216245338791  1.0000
  P   P2        1.0  0.5862390952994545  0.659359665699341  0.3138658604875673  1.0000
  P   P3        1.0  0.8824399666811613  0.32615576147745867  0.9413154854269051  1.0000
  P   P4        1.0  0.2723303102884813  0.6861514684871038  0.34555569272905734  1.0000
  P   P5        1.0  0.941196148392436  0.05879161314015849  0.3849265079664195  1.0000
  P   P6        1.0  0.9268108766019552  0.6546002681309486  0.3406321231190572  1.0000
  P   P7        1.0  0.4486960337135031  0.3766357913329512  0.33098872203429147  1.0000
  P   P8        1.0  0.40727606984894044  0.3375285034226038  0.6879941341136728  1.0000
  P   P9        1.0  0.11780470732136186  0.6690545796263477  0.04579022719946121  1.0000
  P   P10       1.0  0.7193527893686779  0.312112603283026  0.6496054895645572  1.0000
  P   P11       1.0  0.07201232812595042  0.9543057432128705  0.623336858842869  1.0000
  P   P12       1.0  0.0698299822215276  0.3505022973743478  0.6625651118559546  1.0000
  H   H1        1.0  0.28651340552031  0.6002798739141396  0.765040611255074  1.0000
  H   H2        1.0  0.41697738062412526  0.6565968205991125  0.7635998343224628  1.0000
  H   H3        1.0  0.23433865099973164  0.5542470392617886  0.4517374835349273  1.0000
  H   H4        1.0  0.26326367164063674  0.29945263939706723  0.4105088547601524  1.0000
  H   H5        1.0  0.1465747243476159  0.24307022198789238  0.43052646705699976  1.0000
  H   H6        1.0  0.349611531731213  0.726956951048791  0.6487034737035486  1.0000
  H   H7        1.0  0.2719933656143354  0.7478427187010935  0.7294104542950066  1.0000
  H   H8        1.0  0.1307818632933362  0.6454800689575463  0.5147268918031216  1.0000
  H   H9        1.0  0.09468906957960142  0.5536918909302457  0.5739842842460448  1.0000
  H   H10       1.0  0.013777581793590316  0.3660953679884215  0.40427991885358955  1.0000
  H   H11       1.0  0.029107801066345397  0.4213125739553261  0.30894566701334714  1.0000
  H   H12       1.0  0.043750442935042586  0.2365873545971481  0.2599347124241191  1.0000
  H   H13       1.0  0.1757614249193082  0.355795131061491  0.2939248765562894  1.0000
  H   H14       1.0  0.5214065646986015  0.23483137140327404  0.8352217160509028  1.0000
  H   H15       1.0  0.6533030423664458  0.23625413155566116  0.8928551330105278  1.0000
  H   H16       1.0  0.7826340949885805  0.5481614344323232  0.10246335097156133  1.0000
  H   H17       1.0  0.8527089944869602  0.5894613275334634  0.8888874067294665  1.0000
  H   H18       1.0  0.7160224351747503  0.5694545180525806  0.8125365149643216  1.0000
  H   H19       1.0  0.7008800782882787  0.3510951719505043  0.07816543317689903  1.0000
  H   H20       1.0  0.542555984548315  0.27043454494098995  0.018408303765390557  1.0000
  H   H21       1.0  0.6161127330413834  0.48520663582825546  0.13075062646880303  1.0000
  H   H22       1.0  0.5207491615782587  0.42589512005923774  0.979717195464609  1.0000
  H   H23       1.0  0.6095400800480205  0.5956789825154656  0.9619582877224389  1.0000
  H   H24       1.0  0.7202852983199577  0.6909919539406457  0.11246486825572789  1.0000
  H   H25       1.0  0.7837476054096442  0.7400314005231646  0.9766844087122877  1.0000
  H   H26       1.0  0.8818282153916214  0.7060722322017481  0.06181478191400195  1.0000
  H   H27       1.0  0.68625750209776  0.16484231077954797  0.3995994123082482  1.0000
  H   H28       1.0  0.760571933009615  0.10721150630580915  0.3434494036400577  1.0000
  H   H29       1.0  0.6799670132427094  0.8975197377005413  0.4456430067817081  1.0000
  H   H30       1.0  0.9636294401992559  0.11097105549814044  0.7004600510323655  1.0000
  H   H31       1.0  0.903388781155094  0.18744017354413955  0.7568423730729706  1.0000
  H   H32       1.0  0.622896778704735  0.9218606222878872  0.27308989915223225  1.0000
  H   H33       1.0  0.5243393268664034  0.9815768466704707  0.25191370793708484  1.0000
  H   H34       1.0  0.4852183364649106  0.8693483158300305  0.3543414417861611  1.0000
  H   H35       1.0  0.5409663576665197  0.02043965779687079  0.4460710707235833  1.0000
  H   H36       1.0  0.6475426537760924  0.03831315210432958  0.6336935591597453  1.0000
  H   H37       1.0  0.6074889386772496  0.8877219337800494  0.5784962615860962  1.0000
  H   H38       1.0  0.8067845925245081  0.02334868970998369  0.7632382740613012  1.0000
  H   H39       1.0  0.8196341547612247  0.9380675594081606  0.6441221403754438  1.0000
  H   H40       1.0  0.7158128473508397  0.4010500908736247  0.23603215783349182  1.0000
  H   H41       1.0  0.583897785159266  0.34015022100287945  0.23547665561902428  1.0000
  H   H42       1.0  0.7688325417162076  0.45120216831758575  0.551389549021529  1.0000
  H   H43       1.0  0.7384019738247929  0.7044106696670693  0.5905639130937175  1.0000
  H   H44       1.0  0.8533145587807738  0.7590287496395333  0.5670389168356352  1.0000
  H   H45       1.0  0.6525147227814898  0.27379930092323684  0.3518355336305774  1.0000
  H   H46       1.0  0.7323707493117979  0.25409900291440823  0.2733729242038478  1.0000
  H   H47       1.0  0.8722008571637829  0.3585322126951026  0.4876877094087533  1.0000
  H   H48       1.0  0.9066202092263111  0.4498593706172895  0.42769068249833003  1.0000
  H   H49       1.0  0.985007628018309  0.6361146809053081  0.591297164267914  1.0000
  H   H50       1.0  0.9752250744332615  0.5853276960998456  0.6906974845089664  1.0000
  H   H51       1.0  0.9585511470834264  0.7681671614622728  0.7374060349233601  1.0000
  H   H52       1.0  0.8283216453077243  0.6498344876309118  0.7070557145603331  1.0000
  H   H53       1.0  0.4798547925184947  0.7639705104431511  0.16509794630942307  1.0000
  H   H54       1.0  0.3485216154395658  0.7644806618314418  0.10461508946773532  1.0000
  H   H55       1.0  0.2174124115262259  0.44859232542620475  0.8998804791057611  1.0000
  H   H56       1.0  0.14776175427204663  0.4095345259591952  0.1139849704339113  1.0000
  H   H57       1.0  0.2861271693741542  0.43288144199737366  0.19202265440721789  1.0000
  H   H58       1.0  0.30103059172920144  0.6481088607550161  0.9220095167339224  1.0000
  H   H59       1.0  0.45936805003222486  0.7264433469282775  0.9808739827352041  1.0000
  H   H60       1.0  0.38451881331032206  0.5120524457693347  0.8709417803562047  1.0000
  H   H61       1.0  0.47888980428771066  0.5719524330356334  0.022246067133529654  1.0000
  H   H62       1.0  0.39335255362298943  0.4083156804687532  0.04468922305182585  1.0000
  H   H63       1.0  0.2840823045368168  0.3089898941373974  0.8945196573113563  1.0000
  H   H64       1.0  0.2207170800955893  0.2623736880660558  0.030735134744631385  1.0000
  H   H65       1.0  0.12094390390253544  0.2928723509886665  0.9428612280869403  1.0000
  H   H66       1.0  0.3147306787757244  0.835023989151537  0.5989575316119087  1.0000
  H   H67       1.0  0.24373963237397342  0.8953888661795304  0.6598569290180124  1.0000
  H   H68       1.0  0.31777653169843495  0.10032227055974367  0.5487470356009397  1.0000
  H   H69       1.0  0.03413448009750649  0.8863785540247305  0.2956749395550062  1.0000
  H   H70       1.0  0.09431662433260615  0.808132601850403  0.24101588916906286  1.0000
  H   H71       1.0  0.37879354665117415  0.07812176191552568  0.7261819827939179  1.0000
  H   H72       1.0  0.47831364399038284  0.019323458718218896  0.7458701542933924  1.0000
  H   H73       1.0  0.5137237954089926  0.12921207923273662  0.6414356635618078  1.0000
  H   H74       1.0  0.45678862761492667  0.9778633097691836  0.5501091689442036  1.0000
  H   H75       1.0  0.34892391782107507  0.9551483896318727  0.363864715378959  1.0000
  H   H76       1.0  0.3900941578579308  0.10538542310224129  0.4146292136148375  1.0000
  H   H77       1.0  0.1905425990647913  0.9693355921656133  0.2318291966845862  1.0000
  H   H78       1.0  0.1787368096306849  0.05740664937902549  0.3501721004932676  1.0000
  C   C1        1.0  0.28142711882444615  0.6824731338075976  0.667529281239986  1.0000
  C   C2        1.0  0.16190088942488498  0.5988448060029652  0.5550716783834416  1.0000
  C   C3        1.0  0.07494893549588968  0.4044402139508988  0.37608712132211514  1.0000
  C   C4        1.0  0.12015650981796709  0.32171824552291634  0.3289908132966559  1.0000
  C   C5        1.0  0.6138792039708818  0.3323074814903959  0.014916844948530206  1.0000
  C   C6        1.0  0.6068760343946095  0.44482644864442705  0.043769286821984096  1.0000
  C   C7        1.0  0.6989286731237243  0.6238594651085376  0.028410077529819885  1.0000
  C   C8        1.0  0.7911401546903958  0.6709670682921708  0.9927114773787977  1.0000
  C   C9        1.0  0.5990690127619018  0.9851262835580454  0.3174083629391831  1.0000
  C   C10       1.0  0.5630042947035534  0.9563293635904697  0.4009787291664892  1.0000
  C   C11       1.0  0.6703097992910898  0.9717175909131297  0.595380379076694  1.0000
  C   C12       1.0  0.7981653517804617  0.007267811014223497  0.6781452912252135  1.0000
  C   C13       1.0  0.7211055460565916  0.3190084863824365  0.33375747877599343  1.0000
  C   C14       1.0  0.839780925095809  0.4040919660000667  0.44664440521064114  1.0000
  C   C15       1.0  0.926415735308467  0.5995497999321839  0.6225235157247012  1.0000
  C   C16       1.0  0.8817291872077746  0.6826435751934808  0.6696321148942986  1.0000
  C   C17       1.0  0.3876139046940707  0.6661338575445085  0.985367245539969  1.0000
  C   C18       1.0  0.39317629888535066  0.5531320811101421  0.9575621522636482  1.0000
  C   C19       1.0  0.30355009453815274  0.3771963344589506  0.9769593700022908  1.0000
  C   C20       1.0  0.21177261618137067  0.33019790707194113  0.013025208004428582  1.0000
  C   C21       1.0  0.40213913950788793  0.014802428375546097  0.6809777637082135  1.0000
  C   C22       1.0  0.4357374368901077  0.042596704208818885  0.5958727927459507  1.0000
  C   C23       1.0  0.32698868492853  0.02301376759520219  0.4004242918098769  1.0000
  C   C24       1.0  0.19926155458941952  0.9871168903513803  0.31735717787709905  1.0000
  N   N1        1.0  0.3243005836525369  0.6169173441645409  0.7163671216657761  1.0000
  N   N2        1.0  0.18001580411051066  0.51184615823594  0.4780890004520444  1.0000
  N   N3        1.0  0.19627924473228828  0.3114809321951028  0.424267743169807  1.0000
  N   N4        1.0  0.6078770028096018  0.2834972636808074  0.9004930980435049  1.0000
  N   N5        1.0  0.7019629376531427  0.5218182549928867  0.033744456184990626  1.0000
  N   N6        1.0  0.7719759851891154  0.5756988631742102  0.8871788357696815  1.0000
  N   N7        1.0  0.7074762983640783  0.09957620277970845  0.38303393172569145  1.0000
  N   N8        1.0  0.6680529244886343  0.9662915524502506  0.48800340471203185  1.0000
  N   N9        1.0  0.8846467261036751  0.11276639542018069  0.688427041831993  1.0000
  N   N10       1.0  0.6768604215616846  0.3826169384343528  0.2832772033378745  1.0000
  N   N11       1.0  0.8210489845231451  0.4909684734020913  0.522745070300779  1.0000
  N   N12       1.0  0.8035370621746054  0.6910175257317517  0.574174048396408  1.0000
  N   N13       1.0  0.393690796126279  0.7166844199691551  0.09937831436917564  1.0000
  N   N14       1.0  0.29820907379680506  0.4771057224979528  0.9682732596044873  1.0000
  N   N15       1.0  0.22924222957602322  0.4257895091596068  0.11691609658188182  1.0000
  N   N16       1.0  0.29424692659033963  0.9007259121772146  0.6173999858463686  1.0000
  N   N17       1.0  0.3301869575073439  0.0318761518855055  0.5090130401175799  1.0000
  N   N18       1.0  0.11262646985948518  0.8833177582840788  0.3090232015101577  1.0000
  O   O1        1.0  0.42152568943511437  0.5415402022321841  0.5675116931865887  1.0000
  O   O2        1.0  0.6116136607340008  0.6965322828278241  0.6299634020178572  1.0000
  O   O3        1.0  0.6064358014861356  0.5266107549949908  0.6638941908514298  1.0000
  O   O4        1.0  0.5683561069375925  0.6753952072934833  0.7909865918796016  1.0000
  O   O5        1.0  0.5633431437133962  0.6939474115696523  0.4216162944018008  1.0000
  O   O6        1.0  0.6740660521684491  0.7767537837182984  0.33409541651059266  1.0000
  O   O7        1.0  0.4709984559517864  0.5965121068220965  0.19956616534095406  1.0000
  O   O8        1.0  0.6422356001554448  0.579316163414752  0.3114661212759842  1.0000
  O   O9        1.0  0.853919745278972  0.4324361474429636  0.9740695901187308  1.0000
  O   O10       1.0  0.9815537260476859  0.36998381109342665  0.06654225732117419  1.0000
  O   O11       1.0  0.9425601357796295  0.33617272015288785  0.8627445469408312  1.0000
  O   O12       1.0  0.7773838373275695  0.20890723299600467  0.8842793701919619  1.0000
  O   O13       1.0  0.1416438608658126  0.578431724728837  0.2724033303347255  1.0000
  O   O14       1.0  0.3399098837010823  0.6658786598432298  0.44264042140100196  1.0000
  O   O15       1.0  0.27144758140796893  0.8004776545939972  0.3971026178037745  1.0000
  O   O16       1.0  0.33075098451882906  0.6885380197433404  0.2679130881905323  1.0000
  O   O17       1.0  0.8798943067564552  0.026000940221138094  0.45844708457909183  1.0000
  O   O18       1.0  0.9151222549399732  0.933575349125469  0.30350591400954846  1.0000
  O   O19       1.0  0.0798758867894946  0.13739632210968716  0.47351120615794434  1.0000
  O   O20       1.0  0.8931450429478788  0.11583381926177339  0.3247264816724851  1.0000
  O   O21       1.0  0.8691794716119574  0.7276434101916036  0.3059484327066002  1.0000
  O   O22       1.0  0.8973872765975273  0.5574409292624407  0.22334199773602123  1.0000
  O   O23       1.0  0.8744479074922823  0.6030654515957179  0.4034472109911603  1.0000
  O   O24       1.0  0.06283399576246024  0.7323752726066741  0.4207580576635337  1.0000
  O   O25       1.0  0.5829297775053633  0.45950030275874093  0.433143842433573  1.0000
  O   O26       1.0  0.3997001722945156  0.30419594817844586  0.3868632877331777  1.0000
  O   O27       1.0  0.3876403081122674  0.4559471967719161  0.3300177557127242  1.0000
  O   O28       1.0  0.4322582118249302  0.3045271949460541  0.21429976743252147  1.0000
  O   O29       1.0  0.4244939595544252  0.2900097400642067  0.5803813226586243  1.0000
  O   O30       1.0  0.31825541809824637  0.22642917437558194  0.6806373874911387  1.0000
  O   O31       1.0  0.5230989610350464  0.4022975234693573  0.8021626892786883  1.0000
  O   O32       1.0  0.35111078034794474  0.41655407801015804  0.6839532687495193  1.0000
  O   O33       1.0  0.14981657771505746  0.5668493194055414  0.02645951220735293  1.0000
  O   O34       1.0  0.012968747611274822  0.6132135558658189  0.917491209238001  1.0000
  O   O35       1.0  0.05768893077638636  0.670056627111478  0.1260528514539345  1.0000
  O   O36       1.0  0.21810346912882037  0.7857388935888989  0.09036876429382798  1.0000
  O   O37       1.0  0.8441821851351462  0.41975612305391496  0.7097606186972953  1.0000
  O   O38       1.0  0.6377180137351531  0.3194731036546797  0.5458628286651361  1.0000
  O   O39       1.0  0.7210624007710039  0.19797260458143023  0.600229410943932  1.0000
  O   O40       1.0  0.6671162176076068  0.31605683875159934  0.7325873137748005  1.0000
  O   O41       1.0  0.1236295063478037  0.9739285727557597  0.5407055578364107  1.0000
  O   O42       1.0  0.0952971975288861  0.08255085120737247  0.6957715494153263  1.0000
  O   O43       1.0  0.9317119486115218  0.8739115786516789  0.5438503379994089  1.0000
  O   O44       1.0  0.12763160868074389  0.9096165184754096  0.6953830541100742  1.0000
  O   O45       1.0  0.13441762128232423  0.2902783606785348  0.7099838882559268  1.0000
  O   O46       1.0  0.091987066262547  0.4542645526073982  0.7737148265484491  1.0000
  O   O47       1.0  0.12092128144794854  0.399890457520918  0.5977971044352016  1.0000
  O   O48       1.0  0.9346029545547836  0.2675643291886799  0.5835594963124536  1.0000
