data_image0
_chemical_formula_structural       Cd4H28C28N4O28
_chemical_formula_sum              "Cd4 H28 C28 N4 O28"
_cell_length_a       8.529983171006787
_cell_length_b       11.425479713744037
_cell_length_c       11.049271565832402
_cell_angle_alpha    87.47275589953075
_cell_angle_beta     76.81037891419471
_cell_angle_gamma    79.79906862232522

_space_group_name_H-M_alt    "P 1"
_space_group_IT_number       1

loop_
  _space_group_symop_operation_xyz
  'x, y, z'

loop_
  _atom_site_type_symbol
  _atom_site_label
  _atom_site_symmetry_multiplicity
  _atom_site_fract_x
  _atom_site_fract_y
  _atom_site_fract_z
  _atom_site_occupancy
  Cd  Cd1       1.0  0.5229563417236706  0.4229764343892555  0.34042003958305134  1.0000
  Cd  Cd2       1.0  0.4770452054760739  0.5770261451429805  0.6595802316364255  1.0000
  Cd  Cd3       1.0  0.639739772874016  0.07101646973680428  0.3623103768044516  1.0000
  Cd  Cd4       1.0  0.36026077430241094  0.928984386921826  0.6376865423553679  1.0000
  H   H1        1.0  0.04843923436627767  0.7814338356198147  0.9910707072251055  1.0000
  H   H2        1.0  0.9515540468907775  0.2185662721734545  0.008923177576335152  1.0000
  H   H3        1.0  0.29768143021515675  0.5560714503308474  0.214534309007206  1.0000
  H   H4        1.0  0.7023255404780145  0.4439337318647603  0.7854638599266079  1.0000
  H   H5        1.0  0.3052948950943489  0.632595691714741  0.32385413801269186  1.0000
  H   H6        1.0  0.6947044995594496  0.36741134836288575  0.6761463884122135  1.0000
  H   H7        1.0  0.3654767934261615  0.21714125013821928  0.2823016469039742  1.0000
  H   H8        1.0  0.634522325228737  0.7828506895136439  0.7177022559801073  1.0000
  H   H9        1.0  0.3246942675909424  0.2487263716951346  0.43259262438237994  1.0000
  H   H10       1.0  0.6753068118681115  0.7512735150392729  0.5674114712112724  1.0000
  H   H11       1.0  0.7169635997663307  0.25222469427294675  0.4963463772800622  1.0000
  H   H12       1.0  0.2830326210782772  0.7477814409560893  0.5036602583552109  1.0000
  H   H13       1.0  0.8314433433194283  0.25829149200777823  0.3550807580725959  1.0000
  H   H14       1.0  0.16856528835248236  0.741714412834675  0.6449306314698119  1.0000
  H   H15       1.0  0.5293305008523248  0.7244786662826642  0.8956923353157292  1.0000
  H   H16       1.0  0.47068131345042025  0.27550959762196214  0.10430644022778068  1.0000
  H   H17       1.0  0.8471626845751957  0.8529827842288992  0.41206111195097606  1.0000
  H   H18       1.0  0.15284028749763934  0.14702422107561833  0.5879377895822981  1.0000
  H   H19       1.0  0.8418813661214486  0.9472616110843787  0.5114076544138014  1.0000
  H   H20       1.0  0.1580982524718664  0.052742975523159395  0.4886005764915921  1.0000
  H   H21       1.0  0.932520893741135  0.7413131291381061  0.20815957667903712  1.0000
  H   H22       1.0  0.06747724354377031  0.2586922486709754  0.7918322134560113  1.0000
  H   H23       1.0  0.8475252684075302  0.5553465321790299  0.9028129236692376  1.0000
  H   H24       1.0  0.15247516403913156  0.4446490148335371  0.0971833253869931  1.0000
  H   H25       1.0  0.7893568664143942  0.9482191897536297  0.8924102722713342  1.0000
  H   H26       1.0  0.2106444337343518  0.05177361920059551  0.1075922507675173  1.0000
  H   H27       1.0  0.43073675390289884  0.7530132327062944  0.11372206505399152  1.0000
  H   H28       1.0  0.5692674590610168  0.2469760504670973  0.8862745785823518  1.0000
  C   C1        1.0  0.7722654641532217  0.61118374591733  0.2515974552773697  1.0000
  C   C2        1.0  0.2277327413220647  0.3888224604041711  0.7483997216276279  1.0000
  C   C3        1.0  0.8764943866062683  0.6761560175584904  0.17176502092969764  1.0000
  C   C4        1.0  0.12350402561568789  0.32384845093142195  0.8282285614089914  1.0000
  C   C5        1.0  0.9062413016870253  0.6568810776344308  0.04236017817762421  1.0000
  C   C6        1.0  0.093758520403135  0.34311714683142464  0.9576351811261714  1.0000
  C   C7        1.0  0.8286840234804631  0.5719510914822904  0.0016538967040915648  1.0000
  C   C8        1.0  0.17132094351762828  0.4280461537316143  0.9983431821484597  1.0000
  C   C9        1.0  0.7311011550010137  0.5090439528817754  0.08806138857909927  1.0000
  C   C10       1.0  0.26890383729652717  0.49095413094539714  0.9119401796717027  1.0000
  C   C11       1.0  0.7216996248764503  0.6348957488552713  0.3897515105323207  1.0000
  C   C12       1.0  0.27829936616751655  0.3651122308440548  0.6102445315738477  1.0000
  C   C13       1.0  0.6512822904351411  0.4153903603679224  0.046152832850779604  1.0000
  C   C14       1.0  0.3487209844607905  0.5846050557202388  0.9538519049091432  1.0000
  C   C15       1.0  0.709974765985628  0.9869035209936001  0.08767852277416915  1.0000
  C   C16       1.0  0.29002226060572417  0.013092020388704403  0.9123229406604877  1.0000
  C   C17       1.0  0.7104957955068087  0.9281950115976018  0.9802850356446554  1.0000
  C   C18       1.0  0.2895080215552427  0.07179689852485178  0.019715205097753586  1.0000
  C   C19       1.0  0.6094801175884328  0.8423484119766655  0.9884460614362494  1.0000
  C   C20       1.0  0.39052605253119316  0.15764432704477122  0.011556388947717319  1.0000
  C   C21       1.0  0.5107929705177909  0.8190248242903096  0.10508787606141108  1.0000
  C   C22       1.0  0.489205684044862  0.18096891379820326  0.8949142371587866  1.0000
  C   C23       1.0  0.5198430689151935  0.8813879081746945  0.2078229643771649  1.0000
  C   C24       1.0  0.48015859560091206  0.11860846249314959  0.7921775315706652  1.0000
  C   C25       1.0  0.8130657026565801  0.082377815854656  0.08669409031914906  1.0000
  C   C26       1.0  0.18692658628513203  0.9176222563923845  0.9133045238474293  1.0000
  C   C27       1.0  0.42517156382130844  0.8598021679841422  0.33821600776585103  1.0000
  C   C28       1.0  0.5748218424600822  0.14019341827211207  0.661786183188738  1.0000
  N   N1        1.0  0.7028836246816468  0.5279798792327454  0.21103891836714445  1.0000
  N   N2        1.0  0.29711671574811765  0.4720227152574736  0.7889615953589837  1.0000
  N   N3        1.0  0.6174169522752564  0.9634025195566028  0.1986104209301729  1.0000
  N   N4        1.0  0.3825810490399633  0.03659390608604699  0.8013899051658909  1.0000
  O   O1        1.0  0.778190468840407  0.7154045051957356  0.43355359534131566  1.0000
  O   O2        1.0  0.22181099622593342  0.28460258577266734  0.5664392670967117  1.0000
  O   O3        1.0  0.6194214489812566  0.5741599749177837  0.45352111246857146  1.0000
  O   O4        1.0  0.380575914091402  0.4258498080753342  0.5464742798520559  1.0000
  O   O5        1.0  0.0011971209676743992  0.7126516600750249  0.9569239137722007  1.0000
  O   O6        1.0  0.9988017868810176  0.28734482131553557  0.043069888215335105  1.0000
  O   O7        1.0  0.6701014081846993  0.39674197627918056  0.932719977112498  1.0000
  O   O8        1.0  0.3298973471646889  0.603262411403982  0.06728078419978803  1.0000
  O   O9        1.0  0.5657057104062702  0.3588498498636525  0.13287729156662917  1.0000
  O   O10       1.0  0.43430886421233345  0.6411427945527493  0.867122563899116  1.0000
  O   O11       1.0  0.29240923051981593  0.5514305134683183  0.30567994373367907  1.0000
  O   O12       1.0  0.7075958083171089  0.4485720514924977  0.6943169078507693  1.0000
  O   O13       1.0  0.4128991232945367  0.228698571015947  0.35336606255560804  1.0000
  O   O14       1.0  0.5871010848139805  0.7712995625423178  0.6466373730934761  1.0000
  O   O15       1.0  0.719843536891176  0.2652717333844876  0.4042560601114572  1.0000
  O   O16       1.0  0.280156450527656  0.7347334779539595  0.5957489480924278  1.0000
  O   O17       1.0  0.8789736256486266  0.12097510698337997  0.9811858531202943  1.0000
  O   O18       1.0  0.12100881997800181  0.8790259740450066  0.018814703639201007  1.0000
  O   O19       1.0  0.8249606013637348  0.1191867708039069  0.19048504335079022  1.0000
  O   O20       1.0  0.17503754621574086  0.8808087758220963  0.8095143828338249  1.0000
  O   O21       1.0  0.6115611613098225  0.7850213073609495  0.8852323182112228  1.0000
  O   O22       1.0  0.3884478435510843  0.21496961340871934  0.11477053945163361  1.0000
  O   O23       1.0  0.339829999264431  0.7780588640121311  0.357799536632882  1.0000
  O   O24       1.0  0.660167403050707  0.22194641764566103  0.6422023670974965  1.0000
  O   O25       1.0  0.4399358183999526  0.9279157229315371  0.42290404286188016  1.0000
  O   O26       1.0  0.5600606267827998  0.07208782575180088  0.5770954061805326  1.0000
  O   O27       1.0  0.8635094492012103  0.9357095188095883  0.42189566062947387  1.0000
  O   O28       1.0  0.1364881675685723  0.0642957123439842  0.5781107299593983  1.0000
