data_image0
_chemical_formula_structural       Zn2H16C20S4Br4N4
_chemical_formula_sum              "Zn2 H16 C20 S4 Br4 N4"
_cell_length_a       8.126929081099684
_cell_length_b       8.126901650028593
_cell_length_c       10.91483685650012
_cell_angle_alpha    82.18620714859217
_cell_angle_beta     82.18663253213357
_cell_angle_gamma    76.8807430719546

_space_group_name_H-M_alt    "P 1"
_space_group_IT_number       1

loop_
  _space_group_symop_operation_xyz
  'x, y, z'

loop_
  _atom_site_type_symbol
  _atom_site_label
  _atom_site_symmetry_multiplicity
  _atom_site_fract_x
  _atom_site_fract_y
  _atom_site_fract_z
  _atom_site_occupancy
  Zn  Zn1       1.0  0.5572950269380499  0.4427058993098569  0.7500014781543101  1.0000
  Zn  Zn2       1.0  0.4427028010607471  0.5572951612336681  0.24999823943878138  1.0000
  H   H1        1.0  0.7508974840329116  0.4890602195172563  0.9506341785532584  1.0000
  H   H2        1.0  0.5109399720371569  0.24910530287109378  0.5493590842384606  1.0000
  H   H3        1.0  0.24910755366390444  0.5109471726177972  0.049365685778099085  1.0000
  H   H4        1.0  0.4890577380178342  0.7508857109498736  0.45063937519731206  1.0000
  H   H5        1.0  0.8929059378949448  0.3154318750373193  0.12788151237731427  1.0000
  H   H6        1.0  0.6845751906246632  0.10711882286729954  0.3721096549510108  1.0000
  H   H7        1.0  0.10709631926292927  0.6845702360095275  0.872121568331849  1.0000
  H   H8        1.0  0.3154312448293056  0.8928822216204823  0.6278904916474843  1.0000
  H   H9        1.0  0.7233908656002157  0.8849213813106545  0.03185997438307449  1.0000
  H   H10       1.0  0.1150654627587429  0.27662274813527443  0.468150795714557  1.0000
  H   H11       1.0  0.27660708257243977  0.11508476380081593  0.9681394464151436  1.0000
  H   H12       1.0  0.8849272893177654  0.7233781641944008  0.5318510575502557  1.0000
  H   H13       1.0  0.5855575590529013  0.07824443847591313  0.8601076019907834  1.0000
  H   H14       1.0  0.9217410244356042  0.414443241360118  0.6399002761634449  1.0000
  H   H15       1.0  0.4144403891197541  0.9217617066355573  0.1398918188074418  1.0000
  H   H16       1.0  0.07825346615145179  0.5855501149994992  0.3601009899483998  1.0000
  C   C1        1.0  0.7488140625362192  0.3543177230115546  0.9721059944343008  1.0000
  C   C2        1.0  0.6456769250581259  0.2511903772337405  0.5278934346691102  1.0000
  C   C3        1.0  0.2511910099041756  0.6456881547673844  0.027897629844630987  1.0000
  C   C4        1.0  0.35432307815015934  0.7488004658674967  0.4721076604249389  1.0000
  C   C5        1.0  0.8286150881266678  0.2565008296486511  0.0701130538762627  1.0000
  C   C6        1.0  0.7434892421076214  0.1713966780974943  0.42988256272067815  1.0000
  C   C7        1.0  0.17139162687873719  0.743498945309682  0.9298871491756628  1.0000
  C   C8        1.0  0.256505831810621  0.8286006769206083  0.5701156854291085  1.0000
  C   C9        1.0  0.8209223441588661  0.08489959528823482  0.09383655544472448  1.0000
  C   C10       1.0  0.9150952193704355  0.17909774256933284  0.40615701111582325  1.0000
  C   C11       1.0  0.1790793236126902  0.9150966448643986  0.9061595425056126  1.0000
  C   C12       1.0  0.08490512236117813  0.8208968543637312  0.5938447695103193  1.0000
  C   C13       1.0  0.7321865903275651  0.018195998943014  0.017193326504845178  1.0000
  C   C14       1.0  0.9818056192926291  0.267818830208043  0.4828116435585414  1.0000
  C   C15       1.0  0.26781485463440186  0.98181149625497  0.9828048990229235  1.0000
  C   C16       1.0  0.018189150845856268  0.7321732566221187  0.5171896790067264  1.0000
  C   C17       1.0  0.6553535270351176  0.12553826756742836  0.9215751220412544  1.0000
  C   C18       1.0  0.8744643834076626  0.34464855116855375  0.5784271818307261  1.0000
  C   C19       1.0  0.3446464611977903  0.8744705519165378  0.0784221921407209  1.0000
  C   C20       1.0  0.12553294892029498  0.655350147485926  0.4215699420297767  1.0000
  S   S1        1.0  0.9159743121598963  0.945169591260935  0.21528640925316006  1.0000
  S   S2        1.0  0.05483651438224512  0.0840428715604844  0.2847188945500463  1.0000
  S   S3        1.0  0.08403302315033298  0.054827705845149004  0.7847129808320829  1.0000
  S   S4        1.0  0.9451656226017633  0.9159541549184173  0.71528448295399  1.0000
  Br  Br1       1.0  0.6121398684720204  0.7181325325572913  0.7512231023005853  1.0000
  Br  Br2       1.0  0.28185670855767586  0.38786122461343087  0.7487816317388861  1.0000
  Br  Br3       1.0  0.3878628457880424  0.2818666203443669  0.248767256520523  1.0000
  Br  Br4       1.0  0.7181391383527754  0.6121421849188804  0.2512208215491185  1.0000
  N   N1        1.0  0.6632846441636531  0.2912064424526122  0.8986569364148308  1.0000
  N   N2        1.0  0.7087769068749594  0.33672987880885336  0.601337894645745  1.0000
  N   N3        1.0  0.3367237701485948  0.7087972152010096  0.10134202944094987  1.0000
  N   N4        1.0  0.2912187283762009  0.6632599749957254  0.3986589114587034  1.0000
