data_image0
_chemical_formula_structural       Cu2H24C24S4I2N4
_chemical_formula_sum              "Cu2 H24 C24 S4 I2 N4"
_cell_length_a       8.173561917613439
_cell_length_b       8.537444337970427
_cell_length_c       11.81917885985797
_cell_angle_alpha    102.66169019969027
_cell_angle_beta     95.14948470396811
_cell_angle_gamma    117.0360379323645

_space_group_name_H-M_alt    "P 1"
_space_group_IT_number       1

loop_
  _space_group_symop_operation_xyz
  'x, y, z'

loop_
  _atom_site_type_symbol
  _atom_site_label
  _atom_site_symmetry_multiplicity
  _atom_site_fract_x
  _atom_site_fract_y
  _atom_site_fract_z
  _atom_site_occupancy
  Cu  Cu1       1.0  0.053608739326065774  0.5419736521693181  0.9071884330479704  1.0000
  Cu  Cu2       1.0  0.9463890241310368  0.4580282275187671  0.0928124562042498  1.0000
  H   H1        1.0  0.0769285855832179  0.8839332132764424  0.875899505515271  1.0000
  H   H2        1.0  0.9230726849661153  0.11606589259928772  0.1241020383108946  1.0000
  H   H3        1.0  0.3010477619475652  0.15486723534650085  0.8165188147009059  1.0000
  H   H4        1.0  0.6989569283048453  0.845138759780589  0.18348825503932886  1.0000
  H   H5        1.0  0.6169134618650673  0.1884475650157782  0.7931165091500174  1.0000
  H   H6        1.0  0.38309181254001595  0.8115570335934876  0.20688530765543328  1.0000
  H   H7        1.0  0.45729528762655036  0.6902822946972407  0.8931363510017363  1.0000
  H   H8        1.0  0.5427046493719275  0.3097140456417052  0.10685959881577388  1.0000
  H   H9        1.0  0.7976757922472757  0.9031971973459747  0.8894012010821725  1.0000
  H   H10       1.0  0.2023227682873738  0.0967963897514892  0.1105933842804632  1.0000
  H   H11       1.0  0.8509709476715485  0.09717933496605005  0.8349862035000654  1.0000
  H   H12       1.0  0.1490296732675419  0.9028183832231634  0.16501085150024858  1.0000
  H   H13       1.0  0.34104686736785794  0.5238831624737657  0.5045885057827846  1.0000
  H   H14       1.0  0.6589525198083237  0.47611456454676226  0.4954093133264691  1.0000
  H   H15       1.0  0.31235479709909714  0.6604228028926685  0.6314115844243275  1.0000
  H   H16       1.0  0.6876458066748016  0.33957492021467317  0.36858716239750317  1.0000
  H   H17       1.0  0.1247724857957167  0.8145459024717924  0.6070087858462755  1.0000
  H   H18       1.0  0.8752397669002434  0.1854627968221152  0.392994135982633  1.0000
  H   H19       1.0  0.8933290438570864  0.8393269931602704  0.467121083331314  1.0000
  H   H20       1.0  0.1066794989675586  0.1606817350866194  0.5328849767351541  1.0000
  H   H21       1.0  0.8517366255098083  0.7120437981365201  0.24775982091922794  1.0000
  H   H22       1.0  0.148254615070158  0.2879526212350143  0.7522473990361361  1.0000
  H   H23       1.0  0.24019539757865968  0.5355880849454877  0.2988601248680496  1.0000
  H   H24       1.0  0.7597983877704808  0.4644082946318803  0.7011379536726138  1.0000
  C   C1        1.0  0.21469628731443183  0.9035138524672064  0.863026995352996  1.0000
  C   C2        1.0  0.7853069095210117  0.09648661996842381  0.13697404363629317  1.0000
  C   C3        1.0  0.3390400247577076  0.0521063467618887  0.8290689166971248  1.0000
  C   C4        1.0  0.660964007301871  0.9478982631377451  0.17093451012801347  1.0000
  C   C5        1.0  0.5141494827703069  0.07055624363071902  0.8160624414764326  1.0000
  C   C6        1.0  0.48584881334389235  0.929444254293905  0.1839382703055533  1.0000
  C   C7        1.0  0.5600678809944739  0.9394068018275661  0.8382646464560536  1.0000
  C   C8        1.0  0.43993044945010945  0.0605936862608161  0.1617326816828992  1.0000
  C   C9        1.0  0.42682753984659166  0.7946125419947021  0.8728447142800063  1.0000
  C   C10       1.0  0.5731725570179975  0.20538655549891163  0.1271516722797799  1.0000
  C   C11       1.0  0.7457319302998969  0.9544486918736154  0.8246884417410739  1.0000
  C   C12       1.0  0.254268015281177  0.045547646006262696  0.1753066621656743  1.0000
  C   C13       1.0  0.3408409357558996  0.6532438993800938  0.5421182679506913  1.0000
  C   C14       1.0  0.6591589754947903  0.34675244833603364  0.45788021959909025  1.0000
  C   C15       1.0  0.20200737939094884  0.673712979883355  0.4638301861296127  1.0000
  C   C16       1.0  0.797991990620048  0.3262847520552938  0.5361693248011576  1.0000
  C   C17       1.0  0.10311697587368923  0.7608139299000738  0.5110708588672991  1.0000
  C   C18       1.0  0.8968902162349153  0.2391920377281522  0.48893129901203025  1.0000
  C   C19       1.0  0.9753728486428344  0.7755919492191553  0.4337759531712351  1.0000
  C   C20       1.0  0.02463049089352859  0.22441128528927118  0.5662272143818541  1.0000
  C   C21       1.0  0.9503963171198746  0.7043607796496117  0.31202210955657955  1.0000
  C   C22       1.0  0.04959757659980111  0.2956383718367945  0.6879814811909242  1.0000
  C   C23       1.0  0.1677054232798555  0.6058820493657964  0.34031312737959507  1.0000
  C   C24       1.0  0.8322876609634732  0.3941129572794253  0.6596855377997741  1.0000
  S   S1        1.0  0.7363878114077878  0.8070162809327357  0.6812727791593645  1.0000
  S   S2        1.0  0.26361298656260596  0.19298418949302487  0.3187230207617162  1.0000
  S   S3        1.0  0.5796652624018179  0.8442176126689702  0.5570996029929133  1.0000
  S   S4        1.0  0.4203330766253685  0.15578287296035145  0.4428968792352777  1.0000
  I   I1        1.0  0.7795513911984314  0.5929621531124738  0.9733793637322065  1.0000
  I   I2        1.0  0.22045018191793272  0.4070424719907137  0.026624745400042046  1.0000
  N   N1        1.0  0.25703296535084535  0.7757963237271428  0.8848980999720479  1.0000
  N   N2        1.0  0.7429644955392263  0.22420003673347821  0.11510022397408899  1.0000
  N   N3        1.0  0.04387828012873737  0.6195041204322536  0.26506196555769174  1.0000
  N   N4        1.0  0.9561130033642086  0.38049228664397816  0.7349410248438772  1.0000
