data_image0
_chemical_formula_structural       Zn2H32C40N4O12
_chemical_formula_sum              "Zn2 H32 C40 N4 O12"
_cell_length_a       6.875356672785533
_cell_length_b       11.160411313256986
_cell_length_c       12.307400964825948
_cell_angle_alpha    86.2412545569438
_cell_angle_beta     86.13064363499119
_cell_angle_gamma    70.7095618685059

_space_group_name_H-M_alt    "P 1"
_space_group_IT_number       1

loop_
  _space_group_symop_operation_xyz
  'x, y, z'

loop_
  _atom_site_type_symbol
  _atom_site_label
  _atom_site_symmetry_multiplicity
  _atom_site_fract_x
  _atom_site_fract_y
  _atom_site_fract_z
  _atom_site_occupancy
  Zn  Zn1       1.0  0.44837880916038125  0.820092515254494  0.7952778643698577  1.0000
  Zn  Zn2       1.0  0.5516260754890824  0.1799066111804706  0.20472120956237205  1.0000
  H   H1        1.0  0.9200981936757698  0.37847116506989653  0.7869362852334091  1.0000
  H   H2        1.0  0.07989741845104696  0.6215261488823103  0.2130656918762242  1.0000
  H   H3        1.0  0.8973608723337205  0.8415485694259531  0.10468690064880087  1.0000
  H   H4        1.0  0.10264305706792946  0.15845245115132658  0.8953129197530671  1.0000
  H   H5        1.0  0.136032059735129  0.6387097950059369  0.5862287302735893  1.0000
  H   H6        1.0  0.8639688854391777  0.3612884455922014  0.41376811017467924  1.0000
  H   H7        1.0  0.8931061143574297  0.10379266999536443  0.8275383733803777  1.0000
  H   H8        1.0  0.10690217528725299  0.896205482034837  0.17245980692433696  1.0000
  H   H9        1.0  0.6521512978333276  0.7706764294511431  0.01024614768726909  1.0000
  H   H10       1.0  0.3478589311176846  0.2293207633975456  0.9897511960448779  1.0000
  H   H11       1.0  0.6733077177756  0.46945220602374593  0.5231619429944487  1.0000
  H   H12       1.0  0.3266913073593825  0.5305441272978726  0.4768399530532576  1.0000
  H   H13       1.0  0.5108245529976895  0.43126191104818196  0.8112033968027601  1.0000
  H   H14       1.0  0.4891662380534567  0.568742056964112  0.18880003115715738  1.0000
  H   H15       1.0  0.3585967454190424  0.48227221175729085  0.974834693971232  1.0000
  H   H16       1.0  0.6413920742739663  0.5177327403397741  0.025166320298865192  1.0000
  H   H17       1.0  0.12018768271350666  0.5951445230598013  0.01574486690468999  1.0000
  H   H18       1.0  0.8798035546751136  0.4048613736780808  0.9842527499451348  1.0000
  H   H19       1.0  0.8924124905554787  0.7672573490013833  0.7191319414103674  1.0000
  H   H20       1.0  0.10758552477178539  0.23274662383023076  0.2808606379220322  1.0000
  H   H21       1.0  0.6572792117792972  0.277140308451628  0.6679488359755438  1.0000
  H   H22       1.0  0.3427184133011352  0.7228616920736711  0.3320552424261293  1.0000
  H   H23       1.0  0.4398836103053724  0.6145741441073511  0.6560057464364633  1.0000
  H   H24       1.0  0.5601173749336892  0.385424065361697  0.3439951568397959  1.0000
  H   H25       1.0  0.6364228198188826  0.027993645104196198  0.7497888387166114  1.0000
  H   H26       1.0  0.36358742515803016  0.9720035352928633  0.2502101301467334  1.0000
  H   H27       1.0  0.44909052122331156  0.17024582094983035  0.5846154736846855  1.0000
  H   H28       1.0  0.5509080591049411  0.8297542854331538  0.4153878582473496  1.0000
  H   H29       1.0  0.20894095356069184  0.13415774123405552  0.5048151534032286  1.0000
  H   H30       1.0  0.7910566474808931  0.865844277968698  0.49518648730165177  1.0000
  H   H31       1.0  0.9762503732258594  0.10072582568569294  0.5378645659529226  1.0000
  H   H32       1.0  0.023751101656536322  0.8992714273734704  0.46213718293691386  1.0000
  C   C1        1.0  0.9233613872838471  0.9788000846074639  0.9742758534877822  1.0000
  C   C2        1.0  0.07664252609190209  0.0212009484214519  0.025722341782895296  1.0000
  C   C3        1.0  0.9281322896821251  0.541068767943429  0.5400078228588896  1.0000
  C   C4        1.0  0.07186671141401048  0.45892758405563666  0.4599916354920238  1.0000
  C   C5        1.0  0.08349767275461766  0.35421959419426946  0.7627130918504149  1.0000
  C   C6        1.0  0.916497457741812  0.6457786699419971  0.2372888522112362  1.0000
  C   C7        1.0  0.8496424344500321  0.8846011282402347  0.024801862526139466  1.0000
  C   C8        1.0  0.15036197658199763  0.11539894215297865  0.9751979909237107  1.0000
  C   C9        1.0  0.2042224895422534  0.415040655985436  0.8086036090611515  1.0000
  C   C10       1.0  0.7957707224455958  0.5849614026612783  0.19139901537417353  1.0000
  C   C11       1.0  0.17008746651188028  0.2643975727211298  0.6839436850747517  1.0000
  C   C12       1.0  0.8299091376863995  0.7356006699660612  0.3160590144975472  1.0000
  C   C13       1.0  0.27816274208187497  0.6619011905878978  0.8820018756566694  1.0000
  C   C14       1.0  0.7218319035430696  0.3381008777388317  0.11799744146131987  1.0000
  C   C15       1.0  0.9848217843577839  0.6275767243480673  0.5973967992072743  1.0000
  C   C16       1.0  0.015176711069116727  0.37242059651252657  0.4026001883988712  1.0000
  C   C17       1.0  0.23914433680666727  0.9815631948815452  0.6241083266558788  1.0000
  C   C18       1.0  0.7608615030906165  0.01843403741110451  0.375890000806713  1.0000
  C   C19       1.0  0.8443757720309364  0.030906522845661807  0.8729491614685826  1.0000
  C   C20       1.0  0.15563204399631286  0.9690925731427813  0.12704979835374527  1.0000
  C   C21       1.0  0.7100565816830054  0.8445219246557087  0.9732988198984387  1.0000
  C   C22       1.0  0.28994975262945394  0.1554771990076347  0.0266985718476462  1.0000
  C   C23       1.0  0.7282488774474059  0.535584936124323  0.5627515265375463  1.0000
  C   C24       1.0  0.27175013166168316  0.46441140964893174  0.4372487443789694  1.0000
  C   C25       1.0  0.41338716065393305  0.38614569777227087  0.7758359747072134  1.0000
  C   C26       1.0  0.5866055569187408  0.6138544695037567  0.22416758544462567  1.0000
  C   C27       1.0  0.21983253977725056  0.5558518510284715  0.9444965561378565  1.0000
  C   C28       1.0  0.7801596768980374  0.4441521328896485  0.0555027519391231  1.0000
  C   C29       1.0  0.8458523690543202  0.7028360591640705  0.6723913370526731  1.0000
  C   C30       1.0  0.1541476048462727  0.297164088028012  0.32760462473403607  1.0000
  C   C31       1.0  0.4955752645801679  0.29826232282381687  0.6951694553983855  1.0000
  C   C32       1.0  0.5044209028243214  0.7017396866989287  0.3048354926238375  1.0000
  C   C33       1.0  0.5965064770143795  0.6150938126705655  0.6373000636171682  1.0000
  C   C34       1.0  0.4034920504643296  0.3849034832867559  0.3627001742513656  1.0000
  C   C35       1.0  0.7025318695991555  0.9873405476683105  0.8273523300547011  1.0000
  C   C36       1.0  0.2974749543566375  0.0126576195851484  0.17264590730496107  1.0000
  C   C37       1.0  0.37781255115910267  0.2363992117429419  0.6483358191270413  1.0000
  C   C38       1.0  0.6221865107995369  0.7635999444559829  0.3516675458529761  1.0000
  C   C39       1.0  0.11359604512831104  0.11003864773648793  0.5726259390455795  1.0000
  C   C40       1.0  0.8864044664933173  0.8899605056908085  0.42737574374829274  1.0000
  N   N1        1.0  0.6372965380156969  0.8945359791496512  0.8756335368456758  1.0000
  N   N2        1.0  0.3627098123226631  0.1054631320620558  0.12436548003160647  1.0000
  N   N3        1.0  0.6538740409735478  0.6979137961218173  0.6919156506337456  1.0000
  N   N4        1.0  0.3461264305833323  0.3020853884345627  0.3080819693321359  1.0000
  O   O1        1.0  0.40168882584852356  0.7053828916512899  0.9287595854846912  1.0000
  O   O2        1.0  0.5983082615108797  0.2946201026387954  0.07123877190981887  1.0000
  O   O3        1.0  0.2707716728663314  0.9790628489169535  0.7269965462434769  1.0000
  O   O4        1.0  0.7292346854849754  0.020936256068935705  0.2730032831994009  1.0000
  O   O5        1.0  0.10210869683798039  0.501075728412971  0.884964644518412  1.0000
  O   O6        1.0  0.8978845119087636  0.498929184240133  0.11503538602123341  1.0000
  O   O7        1.0  0.0353244187942536  0.21190863927184717  0.645264003327199  1.0000
  O   O8        1.0  0.9646775617573695  0.7880876449257955  0.3547402163074054  1.0000
  O   O9        1.0  0.2103731646607087  0.7039321808675894  0.7898844584767131  1.0000
  O   O10       1.0  0.7896224570097984  0.2960708286457603  0.21011395597274432  1.0000
  O   O11       1.0  0.3007379464201562  0.8905485440605785  0.5627049153816657  1.0000
  O   O12       1.0  0.6992703800481763  0.10945243084692183  0.43729473385535306  1.0000
