data_image0
_chemical_formula_structural       Cd4H48C72N44O24
_chemical_formula_sum              "Cd4 H48 C72 N44 O24"
_cell_length_a       15.449845962064218
_cell_length_b       15.70193053465002
_cell_length_c       15.276442121733167
_cell_angle_alpha    120.92770826261957
_cell_angle_beta     112.06720058479458
_cell_angle_gamma    89.99866289074822

_space_group_name_H-M_alt    "P 1"
_space_group_IT_number       1

loop_
  _space_group_symop_operation_xyz
  'x, y, z'

loop_
  _atom_site_type_symbol
  _atom_site_label
  _atom_site_symmetry_multiplicity
  _atom_site_fract_x
  _atom_site_fract_y
  _atom_site_fract_z
  _atom_site_occupancy
  Cd  Cd1       1.0  0.3120212892138312  0.05517078557104334  0.3490542466448901  1.0000
  Cd  Cd2       1.0  0.18797390798861358  0.7061113580875188  0.650946854128229  1.0000
  Cd  Cd3       1.0  0.6879775787821601  0.9448398788018295  0.6509545771278626  1.0000
  Cd  Cd4       1.0  0.8120233567245377  0.2938839652136809  0.3490486371419481  1.0000
  H   H1        1.0  0.143299459062753  0.16996191022482784  0.26094916326811574  1.0000
  H   H2        1.0  0.3567154670088756  0.9090201703521572  0.7390583414139372  1.0000
  H   H3        1.0  0.8567168789173962  0.830046875490851  0.7390699426523643  1.0000
  H   H4        1.0  0.6432739730291813  0.09098010989193041  0.26094461162775684  1.0000
  H   H5        1.0  0.14443956153060358  0.3220538603998193  0.24961144363587814  1.0000
  H   H6        1.0  0.3555729971653748  0.07245004616223137  0.7503894802862379  1.0000
  H   H7        1.0  0.8555673103692814  0.6779453158842658  0.7503902072591163  1.0000
  H   H8        1.0  0.6444385820215714  0.9275500091226191  0.24961224776082247  1.0000
  H   H9        1.0  0.4499400420239823  0.42484278199946607  0.4726057997065498  1.0000
  H   H10       1.0  0.050068071724957995  0.9522350351679947  0.5274093208017734  1.0000
  H   H11       1.0  0.5500720525294015  0.5751627743245393  0.5273945803608273  1.0000
  H   H12       1.0  0.949936892420645  0.047766925491061  0.47259596659793623  1.0000
  H   H13       1.0  0.4372929392129095  0.2674737093136558  0.47267732354852415  1.0000
  H   H14       1.0  0.06272075302364043  0.7947929260854848  0.5273385011302736  1.0000
  H   H15       1.0  0.5627205498189198  0.732531732747539  0.5273229258471163  1.0000
  H   H16       1.0  0.9372775706862129  0.2052052957700355  0.47266148704810024  1.0000
  H   H17       1.0  0.3973360026872118  0.9831201716670678  0.5235437519932236  1.0000
  H   H18       1.0  0.10266943976238711  0.45956029716794694  0.4764392141025839  1.0000
  H   H19       1.0  0.6026771096046488  0.016876801181481948  0.47644630390799153  1.0000
  H   H20       1.0  0.8973278143748898  0.5404311342318948  0.523552302167346  1.0000
  H   H21       1.0  0.3954021683768972  0.8262268968152072  0.5257629345280038  1.0000
  H   H22       1.0  0.10459878586640772  0.30044837310027367  0.47422805718193245  1.0000
  H   H23       1.0  0.6046083599092356  0.17377694009189082  0.47423802553767314  1.0000
  H   H24       1.0  0.8953963904904042  0.699544657645049  0.5257682074193114  1.0000
  H   H25       1.0  0.22506598494816643  0.6507232020362608  0.16145947722535695  1.0000
  H   H26       1.0  0.27491980112375813  0.4892597866390462  0.8385312455483673  1.0000
  H   H27       1.0  0.7749401602394315  0.3492762880770144  0.838533219534675  1.0000
  H   H28       1.0  0.7250593381776156  0.5107417563045615  0.16146768588108534  1.0000
  H   H29       1.0  0.23440070475539426  0.8167732647573942  0.17442204445001136  1.0000
  H   H30       1.0  0.26560340021765677  0.6423439826331362  0.8255681196155326  1.0000
  H   H31       1.0  0.7656194081310088  0.1832335151807315  0.8255779580931845  1.0000
  H   H32       1.0  0.7343752004134598  0.35765458624489804  0.1744254590729213  1.0000
  H   H33       1.0  0.1248601744657023  0.05133387962198554  0.38031884200987787  1.0000
  H   H34       1.0  0.3751316114256937  0.6710076084099582  0.6196745547397529  1.0000
  H   H35       1.0  0.8751317165675019  0.948671973188823  0.619688231194836  1.0000
  H   H36       1.0  0.6248647728022192  0.32898172211645255  0.38031714494259466  1.0000
  H   H37       1.0  0.9468760575336787  0.02324207826869453  0.2808387983579338  1.0000
  H   H38       1.0  0.5531140420614946  0.7423998819712168  0.7191584291399454  1.0000
  H   H39       1.0  0.05311716837591973  0.9767491286726795  0.7191471145268766  1.0000
  H   H40       1.0  0.4468787333716406  0.2576023014883048  0.2808518488728424  1.0000
  H   H41       1.0  0.9741291390637059  0.8875828717982088  0.9671803630503393  1.0000
  H   H42       1.0  0.525857414779999  0.9204142334114066  0.032818198682306905  1.0000
  H   H43       1.0  0.02587474421608251  0.11241184342924267  0.03281289386728051  1.0000
  H   H44       1.0  0.47413045011612104  0.07959956609225582  0.9671854289905755  1.0000
  H   H45       1.0  0.150876085229747  0.9245594475989236  0.0790206022932126  1.0000
  H   H46       1.0  0.3491170911157227  0.8455452294149169  0.9209742068535721  1.0000
  H   H47       1.0  0.849130283970169  0.07544629069868605  0.9209885294350146  1.0000
  H   H48       1.0  0.650877371912621  0.1544567412868432  0.07901882003964295  1.0000
  C   C1        1.0  0.30670622668175446  0.4715777985006754  0.34732871637898927  1.0000
  C   C2        1.0  0.19330169184190282  0.1242533091270772  0.6526813183212286  1.0000
  C   C3        1.0  0.6933018742409943  0.5284254613672275  0.6526763195976033  1.0000
  C   C4        1.0  0.806703607785444  0.8757456387148537  0.3473193414985404  1.0000
  C   C5        1.0  0.31233478092786987  0.6305573374126324  0.3396966179037407  1.0000
  C   C6        1.0  0.187651581075599  0.2908504917583131  0.6602893447871028  1.0000
  C   C7        1.0  0.68766422889194  0.36944413358610734  0.6603004940417423  1.0000
  C   C8        1.0  0.8123364320390323  0.7091416639699306  0.3397022303521809  1.0000
  C   C9        1.0  0.2102422501976093  0.22766969315237878  0.3068280480402735  1.0000
  C   C10       1.0  0.28976894111985263  0.9208459669830377  0.6931733611698336  1.0000
  C   C11       1.0  0.789770204186631  0.7723344089565816  0.6931754840945035  1.0000
  C   C12       1.0  0.7102295346002948  0.07915791282623279  0.30682080196137934  1.0000
  C   C13       1.0  0.21063565569034645  0.3131403471464012  0.30064582037276477  1.0000
  C   C14       1.0  0.2893704538073579  0.012500565184630944  0.6993562643497315  1.0000
  C   C15       1.0  0.7893686261985235  0.6868671841709927  0.699365163613166  1.0000
  C   C16       1.0  0.7106311742258171  0.9875029291844228  0.3006421145054858  1.0000
  C   C17       1.0  0.29803204478935896  0.3851068518350473  0.358852214386964  1.0000
  C   C18       1.0  0.20197119606135772  0.026245640087566573  0.6411372525221355  1.0000
  C   C19       1.0  0.7019742781923384  0.6148929809831857  0.6411416041200299  1.0000
  C   C20       1.0  0.7980314602861683  0.9737531627073894  0.35885477716717445  1.0000
  C   C21       1.0  0.3803073224251605  0.3710418881607894  0.4258449461491767  1.0000
  C   C22       1.0  0.11969924125124008  0.9451902549522799  0.5741609508853858  1.0000
  C   C23       1.0  0.6197012808081585  0.6289657691201072  0.5741545207740446  1.0000
  C   C24       1.0  0.8803074204095508  0.05480033984819251  0.42582806968850684  1.0000
  C   C25       1.0  0.37363922033967617  0.28293082033754763  0.42578788884529944  1.0000
  C   C26       1.0  0.1263671852421595  0.8571451021536447  0.574234121392202  1.0000
  C   C27       1.0  0.6263687475724922  0.7170848761556244  0.5742321714587677  1.0000
  C   C28       1.0  0.8736323823090754  0.14285895556206907  0.42577413544150045  1.0000
  C   C29       1.0  0.3583937096711124  0.9083985261894797  0.4452462090744336  1.0000
  C   C30       1.0  0.1416117238770411  0.4631406168319432  0.5547413567554502  1.0000
  C   C31       1.0  0.6416141725272624  0.09160043144476063  0.5547443794340909  1.0000
  C   C32       1.0  0.8583681054489959  0.5368545131288089  0.44525411166134204  1.0000
  C   C33       1.0  0.3570453032741412  0.8203675344292735  0.44610718184863896  1.0000
  C   C34       1.0  0.1429595371912953  0.37424811002149033  0.5538886364518805  1.0000
  C   C35       1.0  0.6429582473318476  0.17963492784119253  0.5538924440755937  1.0000
  C   C36       1.0  0.857034059125034  0.625745534606196  0.446104403500577  1.0000
  C   C37       1.0  0.30904981990826036  0.7256110279254884  0.34301040624399115  1.0000
  C   C38       1.0  0.19094799174317967  0.3825988970653428  0.6569891629978671  1.0000
  C   C39       1.0  0.6909567105045936  0.2743926521504818  0.6569943011574183  1.0000
  C   C40       1.0  0.8090436943388609  0.617400320212525  0.34300726738586484  1.0000
  C   C41       1.0  0.262542502956549  0.7232783306287444  0.24306306291870797  1.0000
  C   C42       1.0  0.23746554163947312  0.480219028927465  0.7569366268952893  1.0000
  C   C43       1.0  0.73747709704341  0.2767201599950228  0.7569385336776197  1.0000
  C   C44       1.0  0.7625242497441533  0.5197840763515346  0.2430676610668457  1.0000
  C   C45       1.0  0.26764716881184103  0.8150656098723701  0.2501841293666943  1.0000
  C   C46       1.0  0.23236175246753285  0.5648785700335213  0.7498061915040214  1.0000
  C   C47       1.0  0.7323713661861291  0.1849314731718297  0.7498113992479107  1.0000
  C   C48       1.0  0.7676337727548486  0.435120074021924  0.2501911619442226  1.0000
  C   C49       1.0  0.8423311416327547  0.9379383656030598  0.05423040728383197  1.0000
  C   C50       1.0  0.6576571324485557  0.8837100369810997  0.9457705671489766  1.0000
  C   C51       1.0  0.15766961440046154  0.06205485674125555  0.9457659971305078  1.0000
  C   C52       1.0  0.3423380749185513  0.11629810639373524  0.05423803887961754  1.0000
  C   C53       1.0  0.08852507701661243  0.015321380081921626  0.2887841098428653  1.0000
  C   C54       1.0  0.41146104298599084  0.7265353552330042  0.7112064948214826  1.0000
  C   C55       1.0  0.9114758761998302  0.9846793201198452  0.7112207038188959  1.0000
  C   C56       1.0  0.588530453680775  0.27345554186288007  0.2887837598884034  1.0000
  C   C57       1.0  0.9895758052361856  0.9991889131527217  0.2333713267905325  1.0000
  C   C58       1.0  0.5104202601177265  0.7658216961984933  0.766626815871291  1.0000
  C   C59       1.0  0.01043072197932561  0.0008209921238845007  0.7666335509640448  1.0000
  C   C60       1.0  0.489576502612806  0.23417675219079834  0.23337573980550994  1.0000
  C   C61       1.0  0.9464682448816292  0.9537441043778896  0.11578416733714669  1.0000
  C   C62       1.0  0.5535185350547209  0.8379642871393146  0.8842145676408467  1.0000
  C   C63       1.0  0.05353357119358291  0.046256102096407584  0.8842178129120344  1.0000
  C   C64       1.0  0.4464723022697257  0.16204061306785184  0.1157899961557974  1.0000
  C   C65       1.0  0.004506502346814017  0.9241593251842984  0.05839522045114625  1.0000
  C   C66       1.0  0.49548590263252373  0.8657777028051401  0.9416058177675952  1.0000
  C   C67       1.0  0.9954912947033634  0.07583294065613454  0.9416025571332726  1.0000
  C   C68       1.0  0.5045087614322838  0.13424056555562197  0.058398438726364084  1.0000
  C   C69       1.0  0.103297881792102  0.9443743942414072  0.12065255970929906  1.0000
  C   C70       1.0  0.39669197248964155  0.823727777259805  0.879343636065116  1.0000
  C   C71       1.0  0.8967039430963482  0.055629055484018954  0.8793527330400936  1.0000
  C   C72       1.0  0.6032990009812806  0.1762769430490678  0.12064914018398552  1.0000
  N   N1        1.0  0.3851110806819237  0.17590257802471151  0.5952506300264988  1.0000
  N   N2        1.0  0.11488383743454735  0.580671276875428  0.4047573124165993  1.0000
  N   N3        1.0  0.6148891881871987  0.824095521684079  0.4047577223681886  1.0000
  N   N4        1.0  0.8851137750988798  0.419325574160233  0.5952381887739407  1.0000
  N   N5        1.0  0.4126306681865231  0.000316433708278011  0.20966464324118325  1.0000
  N   N6        1.0  0.08736846524750057  0.7906474204545051  0.790344799864251  1.0000
  N   N7        1.0  0.5873674752492234  0.9996842337174884  0.7903339771168024  1.0000
  N   N8        1.0  0.9126288072335882  0.2093470605221698  0.20965292497949425  1.0000
  N   N9        1.0  0.38563831261684106  0.634468829444728  0.42638221251316843  1.0000
  N   N10       1.0  0.11435495010697148  0.20807548065708664  0.5736052394830652  1.0000
  N   N11       1.0  0.6143643705597839  0.36552874367710325  0.5736178428969155  1.0000
  N   N12       1.0  0.8856417882744552  0.7919214091301187  0.42638953654640255  1.0000
  N   N13       1.0  0.24993581054557976  0.45941213416578824  0.24724967781404672  1.0000
  N   N14       1.0  0.2500669048516144  0.21217145545300314  0.7527580507394307  1.0000
  N   N15       1.0  0.7500695049455856  0.5405926515281863  0.7527569445061033  1.0000
  N   N16       1.0  0.749935600530911  0.7878257749638635  0.2472408829236984  1.0000
  N   N17       1.0  0.38185384579959  0.5529618504779208  0.430281718530509  1.0000
  N   N18       1.0  0.11814762397560938  0.12267067533457521  0.5697179027902238  1.0000
  N   N19       1.0  0.6181491940105486  0.44704049362950127  0.5697216593001359  1.0000
  N   N20       1.0  0.8818536428534711  0.8773226651727769  0.4302747497177038  1.0000
  N   N21       1.0  0.2523774788224316  0.5416499842015128  0.24447520674998208  1.0000
  N   N22       1.0  0.24761735108135954  0.29717926777754405  0.7555202535696923  1.0000
  N   N23       1.0  0.7476250346559751  0.458353926391922  0.7555274558399533  1.0000
  N   N24       1.0  0.7523787057606909  0.7028197557425669  0.24447980261938815  1.0000
  N   N25       1.0  0.2904026804513649  0.21108391945922025  0.3654366456172725  1.0000
  N   N26       1.0  0.209608754214628  0.8456508939848106  0.6345756357454918  1.0000
  N   N27       1.0  0.709609069807037  0.7889214064307808  0.6345650495298261  1.0000
  N   N28       1.0  0.7903871519903659  0.1543540796583045  0.36543281977065334  1.0000
  N   N29       1.0  0.3148464524885455  0.9062137459590218  0.3493635817614449  1.0000
  N   N30       1.0  0.18515022650277757  0.5568397991740426  0.6506272497816072  1.0000
  N   N31       1.0  0.6851663190336268  0.09378429375597355  0.6506291142195836  1.0000
  N   N32       1.0  0.8148362362084214  0.443156474989337  0.34937086785635085  1.0000
  N   N33       1.0  0.791328849337354  0.9778485662809898  0.1149449238204099  1.0000
  N   N34       1.0  0.7086559295298615  0.8628983279725233  0.885053767655059  1.0000
  N   N35       1.0  0.20867103678650523  0.022142555189894733  0.8850516640063336  1.0000
  N   N36       1.0  0.2913352447110285  0.13709668556663962  0.11494533570844827  1.0000
  N   N37       1.0  0.6968845349244787  0.9513241178333799  0.05947606503044521  1.0000
  N   N38       1.0  0.8030959899241669  0.8918408913519189  0.9405203876232382  1.0000
  N   N39       1.0  0.3031097831441585  0.04867478951553751  0.9405254369101075  1.0000
  N   N40       1.0  0.19689131945403202  0.10814152873084741  0.05946743874851993  1.0000
  N   N41       1.0  0.1447368126440766  0.9898470050970472  0.23404297549259215  1.0000
  N   N42       1.0  0.35525384342241756  0.7557999852367062  0.7659528918663768  1.0000
  N   N43       1.0  0.8552608288090511  0.01015678741681126  0.7659627092720102  1.0000
  N   N44       1.0  0.6447392272795298  0.24419178895155375  0.23403901641876262  1.0000
  O   O1        1.0  0.2931806612762389  0.14045376946982213  0.5369106250872024  1.0000
  O   O2        1.0  0.2068146417983883  0.6035529649067897  0.4630853108059015  1.0000
  O   O3        1.0  0.7068200954743348  0.8595360159490539  0.46308536290052893  1.0000
  O   O4        1.0  0.7931835034000017  0.39644835116919813  0.5369139720521192  1.0000
  O   O5        1.0  0.4360941159878208  0.15273538749222848  0.539385861876845  1.0000
  O   O6        1.0  0.06390415776343872  0.6133504692883704  0.46062848404852746  1.0000
  O   O7        1.0  0.563914726076348  0.8472802702493922  0.4606349235882946  1.0000
  O   O8        1.0  0.9360913466351305  0.38664791346543853  0.5393624147524678  1.0000
  O   O9        1.0  0.4234181713722478  0.22919629009485495  0.7002479091877094  1.0000
  O   O10       1.0  0.07656914581293962  0.5289929499831132  0.2997593893998031  1.0000
  O   O11       1.0  0.5765695475803198  0.7707918785526857  0.29975970747276665  1.0000
  O   O12       1.0  0.9234328251419724  0.47099916674319087  0.700235100095796  1.0000
  O   O13       1.0  0.32364486946880794  0.9558457384718435  0.1610611539004625  1.0000
  O   O14       1.0  0.17635679012971647  0.7947983274933536  0.8389550956082419  1.0000
  O   O15       1.0  0.6763550392415141  0.044146292950898884  0.8389425510735793  1.0000
  O   O16       1.0  0.8236434469503067  0.20520657843896833  0.16104473891879684  1.0000
  O   O17       1.0  0.45162312430880996  0.06690523901426104  0.31776357173904307  1.0000
  O   O18       1.0  0.04838078160324955  0.7491534217110853  0.6822512092922397  1.0000
  O   O19       1.0  0.5483750304201606  0.9330958833874233  0.6822386071925808  1.0000
  O   O20       1.0  0.9516177174207102  0.2508479311246106  0.3177496545596626  1.0000
  O   O21       1.0  0.46099336324326856  0.9811469900646869  0.15513939831818388  1.0000
  O   O22       1.0  0.03899340343032527  0.8259753145235607  0.8448645260966219  1.0000
  O   O23       1.0  0.5390004203362935  0.018865285521293646  0.8448610665879388  1.0000
  O   O24       1.0  0.9610021384346865  0.17400724853086313  0.15513496629230175  1.0000
