data_image0
_chemical_formula_structural       K2B2H54C54N18O2
_chemical_formula_sum              "K2 B2 H54 C54 N18 O2"
_cell_length_a       8.802959743987957
_cell_length_b       11.709767297603072
_cell_length_c       13.245801182573642
_cell_angle_alpha    75.29827704037903
_cell_angle_beta     83.2848310045543
_cell_angle_gamma    88.2829009968095

_space_group_name_H-M_alt    "P 1"
_space_group_IT_number       1

loop_
  _space_group_symop_operation_xyz
  'x, y, z'

loop_
  _atom_site_type_symbol
  _atom_site_label
  _atom_site_symmetry_multiplicity
  _atom_site_fract_x
  _atom_site_fract_y
  _atom_site_fract_z
  _atom_site_occupancy
  K   K1        1.0  0.1188280545486862  0.7769498653283049  0.6226813756683853  1.0000
  K   K2        1.0  0.8811717311738362  0.22304961392151762  0.3773190381654317  1.0000
  B   B1        1.0  0.31349993005844823  0.5876939597450743  0.8380530996099225  1.0000
  B   B2        1.0  0.6864987118444006  0.4123055212163179  0.16194740544172256  1.0000
  H   H1        1.0  0.1184546783600666  0.9077799962738168  0.3544374578094605  1.0000
  H   H2        1.0  0.8815451152310344  0.09222124736176339  0.6455633168886052  1.0000
  H   H3        1.0  0.96987786694703  0.9517878164741231  0.4073365189410581  1.0000
  H   H4        1.0  0.030120778717055395  0.0482134302693638  0.5926635920303339  1.0000
  H   H5        1.0  0.6924650250224076  0.8820588690972283  0.7116355711963891  1.0000
  H   H6        1.0  0.3075370426976036  0.11793795805631647  0.288365251322162  1.0000
  H   H7        1.0  0.6289873739191663  0.7864010173006049  0.9237952832837095  1.0000
  H   H8        1.0  0.3710135540885132  0.21359581016817222  0.07620638539716401  1.0000
  H   H9        1.0  0.5425886125996231  0.6438972558704208  0.9570976832239496  1.0000
  H   H10       1.0  0.4574111652543209  0.35610045899363724  0.04290236974563302  1.0000
  H   H11       1.0  0.42600674564170765  0.7703103574584204  0.9488781456122694  1.0000
  H   H12       1.0  0.5739941801392517  0.22968735429773793  0.05112257108397962  1.0000
  H   H13       1.0  0.7814259836903901  0.9393065282630599  0.5437307667121942  1.0000
  H   H14       1.0  0.21857266642713563  0.0606929499056577  0.4562712482284468  1.0000
  H   H15       1.0  0.7196283001752732  0.022379763401581005  0.229450475257778  1.0000
  H   H16       1.0  0.28037149717706455  0.9776232460160936  0.7705499053600278  1.0000
  H   H17       1.0  0.4790637952710243  0.9013068289762952  0.2663920469466988  1.0000
  H   H18       1.0  0.520935988224771  0.09869353456090828  0.7336074149024937  1.0000
  H   H19       1.0  0.3926666467523745  0.7900202573300629  0.45056960592766876  1.0000
  H   H20       1.0  0.6073331345167007  0.2099809904945218  0.5494289039368992  1.0000
  H   H21       1.0  0.21537600483299002  0.27873947382798997  0.6838002876945098  1.0000
  H   H22       1.0  0.7846260599680974  0.7212617719697931  0.31619728478990783  1.0000
  H   H23       1.0  0.48997925585076973  0.2847258421975667  0.757901577048166  1.0000
  H   H24       1.0  0.5100216819061032  0.7152736325480191  0.242100255456819  1.0000
  H   H25       1.0  0.4449682575104177  0.3189193407565867  0.8816098229164524  1.0000
  H   H26       1.0  0.5550292484413362  0.6810819063021327  0.11839113421725499  1.0000
  H   H27       1.0  0.5442180243421576  0.422650119379476  0.7749000839083422  1.0000
  H   H28       1.0  0.4557829152953374  0.5773502382571536  0.22510155155651293  1.0000
  H   H29       1.0  0.007468002327812  0.2834628909279146  0.5931674579013588  1.0000
  H   H30       1.0  0.9925363370984003  0.7165418899925907  0.4068253692644177  1.0000
  H   H31       1.0  0.6081708527749329  0.4331945524322407  0.4848161623852363  1.0000
  H   H32       1.0  0.39182664154699864  0.5668031644586262  0.5151848279644895  1.0000
  H   H33       1.0  0.6181336834326602  0.5938033699550189  0.5797236099114541  1.0000
  H   H34       1.0  0.3818603898716546  0.40619346499049397  0.42028011596536163  1.0000
  H   H35       1.0  0.8387830987890297  0.5989537010069909  0.6805657099843501  1.0000
  H   H36       1.0  0.16121553969868074  0.4010422469938816  0.31943633817230227  1.0000
  H   H37       1.0  0.9749035980719966  0.6844433915790942  0.10848539228057776  1.0000
  H   H38       1.0  0.025097337112057992  0.31555873463229733  0.8915143392150284  1.0000
  H   H39       1.0  0.11829494432191007  0.47251589244635983  0.14770621067910383  1.0000
  H   H40       1.0  0.8817037013421753  0.5274853542971272  0.852293900292281  1.0000
  H   H41       1.0  0.3122697877924594  0.505185454157143  0.0924868511123478  1.0000
  H   H42       1.0  0.6877288556449057  0.49481667687372516  0.9075123078744198  1.0000
  H   H43       1.0  0.1946095047564569  0.4221903152810428  0.03696344830692767  1.0000
  H   H44       1.0  0.8053891368002937  0.5778109328587744  0.96303590771997  1.0000
  H   H45       1.0  0.0063873932906517  0.9378841551945383  0.7531194007093731  1.0000
  H   H46       1.0  0.9936124003004494  0.0621170884410418  0.2468813739886855  1.0000
  H   H47       1.0  0.6949135252111702  0.16874500107957147  0.8537023925941438  1.0000
  H   H48       1.0  0.30508857056802435  0.8312553506564907  0.14630141648637365  1.0000
  H   H49       1.0  0.6747926609772179  0.04395885958895459  0.03867741547672671  1.0000
  H   H50       1.0  0.32520942658729984  0.956041494939775  0.961324883714802  1.0000
  H   H51       1.0  0.8288054422526229  0.8579560968778565  0.08022489168294561  1.0000
  H   H52       1.0  0.17119663932393084  0.14204337615615964  0.9197768496042114  1.0000
  H   H53       1.0  0.3899837972818929  0.5252910045067055  0.900691545003653  1.0000
  H   H54       1.0  0.6100137008012823  0.47470847816625633  0.09930905126581283  1.0000
  C   C1        1.0  0.523634828159132  0.7466851802312104  0.7997706652178422  1.0000
  C   C2        1.0  0.47636609351448556  0.25331253292127787  0.20022929653391233  1.0000
  C   C3        1.0  0.6044592506282881  0.8191287485288752  0.7117464411021643  1.0000
  C   C4        1.0  0.39554167292594394  0.18086984751466414  0.28825332360946726  1.0000
  C   C5        1.0  0.5399259072948368  0.7977455585655943  0.6252177032287846  1.0000
  C   C6        1.0  0.4600727327273901  0.20225303950475385  0.3747829988629903  1.0000
  C   C7        1.0  0.5313819074776589  0.7363276413520693  0.9132827614673503  1.0000
  C   C8        1.0  0.4686190164226788  0.26366918751304513  0.0867181522690288  1.0000
  C   C9        1.0  0.5810530917143808  0.853875597271795  0.5141011938352164  1.0000
  C   C10       1.0  0.4189455539497047  0.14612564947168488  0.4858989171361685  1.0000
  C   C11       1.0  0.7120778108258464  0.9252258746666439  0.48473825777693963  1.0000
  C   C12       1.0  0.2879196853767069  0.0747727251152668  0.5152625355326563  1.0000
  C   C13       1.0  0.6784469729330525  0.9722915696785605  0.3089097203907444  1.0000
  C   C14       1.0  0.32155052925745764  0.027707911598064086  0.6910916308232301  1.0000
  C   C15       1.0  0.5453554031869459  0.9045268312982415  0.330150111086823  1.0000
  C   C16       1.0  0.45464439228477727  0.09547529522838967  0.6698504665711128  1.0000
  C   C17       1.0  0.49640220665659746  0.8435433758219163  0.43311436858128616  1.0000
  C   C18       1.0  0.5035975749585829  0.15645610482424388  0.5668852903080362  1.0000
  C   C19       1.0  0.30518295683156543  0.4048145313587738  0.761296336432835  1.0000
  C   C20       1.0  0.6948156746298794  0.5951858366826668  0.2387017067451893  1.0000
  C   C21       1.0  0.202569406812664  0.36005268678534447  0.7089772452783905  1.0000
  C   C22       1.0  0.7974315141687428  0.6399485607240079  0.2910204184238552  1.0000
  C   C23       1.0  0.08254800710675168  0.44385567303618256  0.6950519248402927  1.0000
  C   C24       1.0  0.9174540517063717  0.5561446912668869  0.3049450897397605  1.0000
  C   C25       1.0  0.45385234338098007  0.3554304186730235  0.7960762131328067  1.0000
  C   C26       1.0  0.5461451584634319  0.6445708297820258  0.20392398905641332  1.0000
  C   C27       1.0  0.9455044625158706  0.4432158000412585  0.6429523267226216  1.0000
  C   C28       1.0  0.054499884282705593  0.5567827936602469  0.3570456544465372  1.0000
  C   C29       1.0  0.9240853181275952  0.35474314341458774  0.5914613760255563  1.0000
  C   C30       1.0  0.0759178822784818  0.6452581034642931  0.40853459535204445  1.0000
  C   C31       1.0  0.7004310212801387  0.43729081986650425  0.5321527184691774  1.0000
  C   C32       1.0  0.29956875845442715  0.5627077778886046  0.4678471374602751  1.0000
  C   C33       1.0  0.7079129805762391  0.527352292291411  0.5829989797581449  1.0000
  C   C34       1.0  0.2920868054923815  0.4726454197799867  0.4170025831004267  1.0000
  C   C35       1.0  0.8311186028000959  0.5301660874435399  0.6392337485836634  1.0000
  C   C36       1.0  0.16888232520758348  0.46983074002524466  0.36076792009721  1.0000
  C   C37       1.0  0.14009983070458526  0.6066256200415407  0.005841960298901954  1.0000
  C   C38       1.0  0.8599010966108906  0.3933747417840932  0.9941574103324697  1.0000
  C   C39       1.0  0.03543187809081871  0.6886811588968625  0.031450652931312176  1.0000
  C   C40       1.0  0.9645679095123185  0.3113192032440039  0.968549563862382  1.0000
  C   C41       1.0  0.025475123791643697  0.7756237123376264  0.9364836703534466  1.0000
  C   C42       1.0  0.9745246597041585  0.22437665119957725  0.06351579149574607  1.0000
  C   C43       1.0  0.19515487273663013  0.49569912673903344  0.07429001889111933  1.0000
  C   C44       1.0  0.8048437669394987  0.5043012385097396  0.9257095341759083  1.0000
  C   C45       1.0  0.9311288041660433  0.8818498335138895  0.9190060006446147  1.0000
  C   C46       1.0  0.0688721332447315  0.11815140841012095  0.08099468283562321  1.0000
  C   C47       1.0  0.9322991603597828  0.9582620500508197  0.8182342209154851  1.0000
  C   C48       1.0  0.06770063323132548  0.041739193584760394  0.1817665537825803  1.0000
  C   C49       1.0  0.7590630354760677  0.08643502720188677  0.87399850585102  1.0000
  C   C50       1.0  0.2409367682103394  0.9135670965320698  0.12600358169590464  1.0000
  C   C51       1.0  0.748908403222181  0.016744905431401898  0.9771169994698352  1.0000
  C   C52       1.0  0.25109483004262495  0.983256330276809  0.022885011463735342  1.0000
  C   C53       1.0  0.8349069608899882  0.9135068357140026  9.160354018443006e-05  1.0000
  C   C54       1.0  0.16509398062812858  0.08649440481367777  0.9999098348845479  1.0000
  N   N1        1.0  0.42782498519584783  0.7158149792302378  0.6585841625334155  1.0000
  N   N2        1.0  0.5721736585876229  0.28418538462219795  0.3414161454781066  1.0000
  N   N3        1.0  0.1108469312121656  0.5342680559160726  0.736128372896033  1.0000
  N   N4        1.0  0.8891539901153463  0.4657314244148479  0.26387043983096703  1.0000
  N   N5        1.0  0.11887881019710278  0.7485589880622495  0.8570094299108248  1.0000
  N   N6        1.0  0.8811198253716839  0.25144137858285376  0.14298936821170122  1.0000
  N   N7        1.0  0.4202403764987181  0.6848718507660009  0.7649814973168249  1.0000
  N   N8        1.0  0.5797594092238043  0.3151276284838217  0.23501891651699944  1.0000
  N   N9        1.0  0.7612849018950457  0.9822484225702438  0.3854409008644382  1.0000
  N   N10       1.0  0.2387126040567082  0.017752824488475497  0.6145600562692692  1.0000
  N   N11       1.0  0.2459518989386424  0.5091609664891621  0.777074580629204  1.0000
  N   N12       1.0  0.7540490283768334  0.4908393953364722  0.22292479000216767  1.0000
  N   N13       1.0  0.8057262652030844  0.3511357343470109  0.53725166138436  1.0000
  N   N14       1.0  0.1942757917294244  0.6488637470650148  0.46274555023582303  1.0000
  N   N15       1.0  0.1882288867140716  0.645510890776748  0.9006890661191774  1.0000
  N   N16       1.0  0.8117686050350413  0.35448947757992494  0.09930982322116934  1.0000
  N   N17       1.0  0.8488560748953233  0.057040074630833694  0.795058261158907  1.0000
  N   N18       1.0  0.1511448666227935  0.9429611658968469  0.20494317726582517  1.0000
  O   O1        1.0  0.0729047528879008  0.9217035000169599  0.42253568791010576  1.0000
  O   O2        1.0  0.927093895002905  0.07829686243913868  0.5774653750459108  1.0000
