data_image0
_chemical_formula_structural       Cd2H18C28N2O14
_chemical_formula_sum              "Cd2 H18 C28 N2 O14"
_cell_length_a       7.4774850371698935
_cell_length_b       10.225019860251782
_cell_length_c       10.782869089845502
_cell_angle_alpha    118.27681120095582
_cell_angle_beta     91.72003554584339
_cell_angle_gamma    107.47141350785053

_space_group_name_H-M_alt    "P 1"
_space_group_IT_number       1

loop_
  _space_group_symop_operation_xyz
  'x, y, z'

loop_
  _atom_site_type_symbol
  _atom_site_label
  _atom_site_symmetry_multiplicity
  _atom_site_fract_x
  _atom_site_fract_y
  _atom_site_fract_z
  _atom_site_occupancy
  Cd  Cd1       1.0  0.8535861868633745  0.14035967923918954  0.045988619505109844  1.0000
  Cd  Cd2       1.0  0.14641146065753213  0.8596374251239993  0.9540102442581501  1.0000
  H   H1        1.0  0.8462001068254993  0.6315584533464147  0.04615027462232746  1.0000
  H   H2        1.0  0.15380223729892614  0.3684434208387374  0.9538507975105052  1.0000
  H   H3        1.0  0.4440950780636968  0.43414734236930747  0.2449682624455464  1.0000
  H   H4        1.0  0.5559000336454929  0.5658437890304386  0.7550251202151163  1.0000
  H   H5        1.0  0.4751102721961473  0.8757936500496939  0.2719676797920486  1.0000
  H   H6        1.0  0.5248961591504228  0.12420834986730264  0.7280437311420942  1.0000
  H   H7        1.0  0.4721884774103274  0.6455529101529011  0.4980397911261252  1.0000
  H   H8        1.0  0.5278086606114982  0.3544429958215717  0.501957603716072  1.0000
  H   H9        1.0  0.23760123420165508  0.6679662753260517  0.6621516227314148  1.0000
  H   H10       1.0  0.7624004367352981  0.3320403307362271  0.3378506066380354  1.0000
  H   H11       1.0  0.9004314621854805  0.7480991814152916  0.3918017678985281  1.0000
  H   H12       1.0  0.09956834028538004  0.251896710316352  0.608192891380334  1.0000
  H   H13       1.0  0.13854678328654307  0.7043820681740132  0.22585547643095094  1.0000
  H   H14       1.0  0.8614558711433132  0.29561739736725917  0.774140824202391  1.0000
  H   H15       1.0  0.7042846926953104  0.8998025688475549  0.7435401502791167  1.0000
  H   H16       1.0  0.2957158067845924  0.10019810932526244  0.2564603548386302  1.0000
  H   H17       1.0  0.5462876600919204  0.9772285716760863  0.8158259960447368  1.0000
  H   H18       1.0  0.4537128569135121  0.02277213496693521  0.18417730432712892  1.0000
  C   C1        1.0  0.725327599197918  0.38570542521458867  0.09944784697982817  1.0000
  C   C2        1.0  0.2746753772210653  0.6142916506629349  0.9005455456567761  1.0000
  C   C3        1.0  0.6548146687183306  0.5214726005937964  0.14304058129119582  1.0000
  C   C4        1.0  0.3451811399999016  0.47852331724712377  0.8569586472083446  1.0000
  C   C5        1.0  0.733966652299749  0.6399093275074536  0.10876896535963  1.0000
  C   C6        1.0  0.2660365583639432  0.36009141234309544  0.8912362582057726  1.0000
  C   C7        1.0  0.6686924535868641  0.7673325996735799  0.15441719044386576  1.0000
  C   C8        1.0  0.33130706194594234  0.23266573866222734  0.8455859673399859  1.0000
  C   C9        1.0  0.7454485221408904  0.8941162710760936  0.11661868854523783  1.0000
  C   C10       1.0  0.2545578566290772  0.10588564343026971  0.8833843366265344  1.0000
  C   C11       1.0  0.5099510215660034  0.5294441865143187  0.2227734291283171  1.0000
  C   C12       1.0  0.4900469771532485  0.47055057563548547  0.7772271853950702  1.0000
  C   C13       1.0  0.4494792080090876  0.6580882387431831  0.26890178725777514  1.0000
  C   C14       1.0  0.5505189548527483  0.341910073498788  0.731099477177928  1.0000
  C   C15       1.0  0.5258149500367112  0.7767918650067217  0.23580815165622238  1.0000
  C   C16       1.0  0.47418841263168343  0.22320292559783897  0.7641925822487539  1.0000
  C   C17       1.0  0.3382991206451464  0.6602998035354447  0.47673564890072856  1.0000
  C   C18       1.0  0.661700043689315  0.3397008770137546  0.5232657581229888  1.0000
  C   C19       1.0  0.20910155595551322  0.6758617961424565  0.5666266836456446  1.0000
  C   C20       1.0  0.7908991018251258  0.32414242263246257  0.43337353963303843  1.0000
  C   C21       1.0  0.04881142491068154  0.7078927005555046  0.5371830891352262  1.0000
  C   C22       1.0  0.9511905738572466  0.29211152533310536  0.4628171639888522  1.0000
  C   C23       1.0  0.023669153370278216  0.7224731158724397  0.41589329614455306  1.0000
  C   C24       1.0  0.9763321659141367  0.2775263520452071  0.5841039063947664  1.0000
  C   C25       1.0  0.15305346584253243  0.7016933298160453  0.325497238784827  1.0000
  C   C26       1.0  0.846943672179293  0.2983025761584274  0.6745001560573629  1.0000
  C   C27       1.0  0.9042680717841237  0.7261493003167632  0.6350969521104448  1.0000
  C   C28       1.0  0.0957295294562215  0.2738572084838822  0.3648977337118212  1.0000
  N   N1        1.0  0.30843303085652  0.6725134647672135  0.3582486421401257  1.0000
  N   N2        1.0  0.6915673044807987  0.32748366331342993  0.641751213065298  1.0000
  O   O1        1.0  0.6429039791725303  0.283086142089708  0.1349546750426073  1.0000
  O   O2        1.0  0.3570977029939186  0.7169110025946921  0.865046141759592  1.0000
  O   O3        1.0  0.8634118723627964  0.37981369121729364  0.033836794821454  1.0000
  O   O4        1.0  0.13658845713268158  0.6201834273732773  0.966162128632597  1.0000
  O   O5        1.0  0.8743519563311608  0.889859898968716  0.042324881647822124  1.0000
  O   O6        1.0  0.1256519221323487  0.11014557987265763  0.9576815289995937  1.0000
  O   O7        1.0  0.6773395701636034  0.0053729918899919  0.16001424625393673  1.0000
  O   O8        1.0  0.3226633185109693  0.9946301376242989  0.8399938853082106  1.0000
  O   O9        1.0  0.7704309663376563  0.7650324070526936  0.6053998578235281  1.0000
  O   O10       1.0  0.229571143996246  0.23497528351745706  0.3945926594504955  1.0000
  O   O11       1.0  0.9270681014709724  0.6975067169340577  0.7356761974069246  1.0000
  O   O12       1.0  0.07291945674224111  0.30249502206007156  0.2643189559183057  1.0000
  O   O13       1.0  0.6843678115307769  0.9995146968383255  0.8139072442112866  1.0000
  O   O14       1.0  0.3156313528036848  0.0004859837108668004  0.18609416281243094  1.0000
