data_image0
_chemical_formula_structural       Dy2Co2H32C32N20O12
_chemical_formula_sum              "Dy2 Co2 H32 C32 N20 O12"
_cell_length_a       10.12191949676658
_cell_length_b       10.583438211888593
_cell_length_c       12.322978348059626
_cell_angle_alpha    73.70836570544833
_cell_angle_beta     75.16761203365702
_cell_angle_gamma    70.29211726102828

_space_group_name_H-M_alt    "P 1"
_space_group_IT_number       1

loop_
  _space_group_symop_operation_xyz
  'x, y, z'

loop_
  _atom_site_type_symbol
  _atom_site_label
  _atom_site_symmetry_multiplicity
  _atom_site_fract_x
  _atom_site_fract_y
  _atom_site_fract_z
  _atom_site_occupancy
  Dy  Dy1       1.0  0.4096987312058716  0.30806499457653297  0.2876207598887958  1.0000
  Dy  Dy2       1.0  0.5903266761686583  0.6919024135876979  0.7123744614685634  1.0000
  Co  Co1       1.0  0.33466530340354683  0.3018510139457362  0.7393249567891047  1.0000
  Co  Co2       1.0  0.6653219524951977  0.6981706145533764  0.2606653023128089  1.0000
  H   H1        1.0  0.29209370868554174  0.7575973919128315  0.5358558841722854  1.0000
  H   H2        1.0  0.7079093298690536  0.24241301011502966  0.46412993627642873  1.0000
  H   H3        1.0  0.32570743391099194  0.9016892419415327  0.035425117329808124  1.0000
  H   H4        1.0  0.6742948450887523  0.09830598717945087  0.9645840839783728  1.0000
  H   H5        1.0  0.13453832049810188  0.5142150714839816  0.08340531502003054  1.0000
  H   H6        1.0  0.8654830905410057  0.485775040889642  0.9165899633536299  1.0000
  H   H7        1.0  0.4745371463934304  0.651955722931717  0.07553919210138835  1.0000
  H   H8        1.0  0.5254745057350547  0.34804260193097747  0.9244608771944983  1.0000
  H   H9        1.0  0.010373104995956294  0.6724623251366566  0.3060555459216587  1.0000
  H   H10       1.0  0.9896386752060238  0.32751624696541626  0.6939380172894118  1.0000
  H   H11       1.0  0.3714511037657928  0.5455234850246453  0.4520826281839376  1.0000
  H   H12       1.0  0.6285627407919987  0.4544778941974173  0.5479121897783656  1.0000
  H   H13       1.0  0.9728873827804352  0.7582990585116887  0.036406324621566594  1.0000
  H   H14       1.0  0.027127341046416106  0.2416859138251297  0.963597242441537  1.0000
  H   H15       1.0  0.9143850034831617  0.8902116982163902  0.3830587774876123  1.0000
  H   H16       1.0  0.08560847629880898  0.10976664988620398  0.616936876557588  1.0000
  H   H17       1.0  0.4241034989077476  0.08495448604018209  0.1736989178105617  1.0000
  H   H18       1.0  0.5759246424925665  0.9150580541896217  0.8262683695986793  1.0000
  H   H19       1.0  0.36313692129071024  0.2286822081492019  0.09439587204309424  1.0000
  H   H20       1.0  0.6368661034900854  0.7713313470852937  0.9055932298881829  1.0000
  H   H21       1.0  0.7236796387360087  0.2520728538268456  0.2489349481700387  1.0000
  H   H22       1.0  0.27635735450211746  0.7478826308240513  0.7510138301410834  1.0000
  H   H23       1.0  0.7116414038574064  0.10408637182979417  0.2453727627893088  1.0000
  H   H24       1.0  0.28834702361500314  0.8958533099908691  0.7546699810130518  1.0000
  H   H25       1.0  0.5339578292992327  0.011672042558011193  0.40832660444999647  1.0000
  H   H26       1.0  0.46564676945445876  0.9883705822116862  0.592307969553076  1.0000
  H   H27       1.0  0.4098297091058356  0.006816713109081697  0.35786341804334404  1.0000
  H   H28       1.0  0.5903481095845535  0.9931495450037671  0.6420521081352533  1.0000
  H   H29       1.0  0.17748983268259624  0.20365365820651957  0.2782143706390414  1.0000
  H   H30       1.0  0.8224868850400783  0.7963287895430254  0.7217941722961855  1.0000
  H   H31       1.0  0.0919967979293688  0.3472761346818841  0.313036587262232  1.0000
  H   H32       1.0  0.9079833669668107  0.6527619665638084  0.6868869002736562  1.0000
  C   C1        1.0  0.3841983326991211  0.3007309587310232  0.583387042899048  1.0000
  C   C2        1.0  0.6158319808249572  0.6993027094725617  0.4166070528769623  1.0000
  C   C3        1.0  0.5876359721828948  0.5579051830465361  0.27360379467001644  1.0000
  C   C4        1.0  0.41234233331504555  0.4421051583728541  0.7264007830001518  1.0000
  C   C5        1.0  0.2834309975663984  0.2930261337425434  0.8972226227691139  1.0000
  C   C6        1.0  0.7165387948835403  0.7069828384946603  0.10276776293419236  1.0000
  C   C7        1.0  0.36321084708037427  0.6839834017678041  0.06753128848722413  1.0000
  C   C8        1.0  0.6368029404919825  0.31601173156408174  0.9324610265377372  1.0000
  C   C9        1.0  0.5084252679177581  0.16825873499482208  0.7552205513677707  1.0000
  C   C10       1.0  0.49156360147632233  0.8317577333215808  0.24476903733125258  1.0000
  C   C11       1.0  0.2728960776355864  0.6258751750918135  0.4408403113216366  1.0000
  C   C12       1.0  0.7271132552326661  0.3741241305574333  0.5591583560020723  1.0000
  C   C13       1.0  0.2611524592971435  0.15616771725588308  0.7561762166028174  1.0000
  C   C14       1.0  0.7388620856110247  0.8438528216004998  0.2437853191720337  1.0000
  C   C15       1.0  0.16360111080684447  0.43906349935253525  0.7175090073146108  1.0000
  C   C16       1.0  0.836381435812207  0.5609569980361258  0.28247922638818324  1.0000
  C   C17       1.0  0.2265138316363816  0.7421071489081754  0.48592638727349413  1.0000
  C   C18       1.0  0.773490873352415  0.2578878240054934  0.5140637251463075  1.0000
  C   C19       1.0  0.1381524304833804  0.8484904001811553  0.03342929335184423  1.0000
  C   C20       1.0  0.8618619182025784  0.15149958607779013  0.9665641816616242  1.0000
  C   C21       1.0  0.09704878307606166  0.839929476865436  0.4658663784289985  1.0000
  C   C22       1.0  0.9029513701443579  0.1600571644806053  0.5341242684093216  1.0000
  C   C23       1.0  0.16809179968777244  0.6056255689990308  0.07012675324587296  1.0000
  C   C24       1.0  0.8319257653478543  0.3943603912031434  0.9298711319213809  1.0000
  C   C25       1.0  0.2802697255803608  0.8188106664353184  0.04474719205158816  1.0000
  C   C26       1.0  0.7197422562583425  0.1811834780260497  0.9552497864833853  1.0000
  C   C27       1.0  0.08294634596315835  0.7387636637148915  0.04482128377855335  1.0000
  C   C28       1.0  0.9170655313030808  0.26122741227216295  0.9551780973127534  1.0000
  C   C29       1.0  0.06532013979293787  0.7004402828588211  0.3566524058348719  1.0000
  C   C30       1.0  0.9346948069526418  0.29954767321996906  0.6433430746330018  1.0000
  C   C31       1.0  0.015774992723834265  0.8168972867493735  0.4001222142779497  1.0000
  C   C32       1.0  0.9842260744926321  0.1830862972218199  0.5998706287364186  1.0000
  N   N1        1.0  0.3059773839415952  0.5797553119057497  0.08236850258789022  1.0000
  N   N2        1.0  0.6940465523698548  0.42023681552792885  0.9176209031682703  1.0000
  N   N3        1.0  0.19270973819384105  0.6063025471373747  0.37696577405917964  1.0000
  N   N4        1.0  0.8073022912318919  0.3936884199081162  0.6230262989821186  1.0000
  N   N5        1.0  0.4159899400704462  0.2909069964355807  0.4870858290872205  1.0000
  N   N6        1.0  0.5840473556491259  0.709114281893079  0.5129034401631927  1.0000
  N   N7        1.0  0.5403394913297249  0.4692528303639987  0.2780205919950518  1.0000
  N   N8        1.0  0.45966322821832517  0.5307475690339983  0.7219880549498896  1.0000
  N   N9        1.0  0.05662921756321292  0.9551322698864833  0.5141239623696805  1.0000
  N   N10       1.0  0.9433685688099587  0.0448585296619726  0.4858701879901374  1.0000
  N   N11       1.0  0.05992105968898191  0.5294384406416767  0.7029407136999097  1.0000
  N   N12       1.0  0.9400456410231685  0.47058075512400416  0.29704451676472843  1.0000
  N   N13       1.0  0.6150461390986521  0.0777609845502241  0.7573021051196277  1.0000
  N   N14       1.0  0.3849499892622816  0.9222491824213888  0.24267460391889278  1.0000
  N   N15       1.0  0.22820938971933202  0.057927298987372894  0.7623527769912358  1.0000
  N   N16       1.0  0.771856156921544  0.9420575635734636  0.23759682913754426  1.0000
  N   N17       1.0  0.25228410892638214  0.2882481662525222  0.9964813249855595  1.0000
  N   N18       1.0  0.7476835080008541  0.7117577395206919  0.0035135000457771396  1.0000
  N   N19       1.0  0.05896732107902379  0.987908121335657  0.015381669853255243  1.0000
  N   N20       1.0  0.9410416156951485  0.012079695518679002  0.984610176863022  1.0000
  O   O1        1.0  0.4306041830614972  0.18038418664382047  0.1503205105373056  1.0000
  O   O2        1.0  0.5694385786886258  0.8196211632657935  0.8496367032988345  1.0000
  O   O3        1.0  0.38383813472184153  0.45126128487567024  0.10907414438626262  1.0000
  O   O4        1.0  0.6161869754504181  0.5487338858179172  0.8909102164166073  1.0000
  O   O5        1.0  0.2326499636406041  0.4971212535971431  0.33334442020790794  1.0000
  O   O6        1.0  0.7673687467944463  0.5028606825585767  0.6666599118848067  1.0000
  O   O7        1.0  0.657143065868908  0.20010869874590037  0.25868135270116  1.0000
  O   O8        1.0  0.3428717776721655  0.7998446937987821  0.741354344322211  1.0000
  O   O9        1.0  0.18361164479189535  0.2690089933356177  0.3173207082324794  1.0000
  O   O10       1.0  0.8163826795375683  0.7310427096498343  0.682599833099026  1.0000
  O   O11       1.0  0.43841666507330496  0.0646938684087814  0.3927335493880619  1.0000
  O   O12       1.0  0.5614544233633083  0.9354217536219805  0.6072177450393355  1.0000
