data_image0
_chemical_formula_structural       Cu2H20C28Br4N8
_chemical_formula_sum              "Cu2 H20 C28 Br4 N8"
_cell_length_a       4.070631870446264
_cell_length_b       12.5384114314965
_cell_length_c       13.381505740299065
_cell_angle_alpha    89.99898030085949
_cell_angle_beta     95.44191236460364
_cell_angle_gamma    90.00000145820334

_space_group_name_H-M_alt    "P 1"
_space_group_IT_number       1

loop_
  _space_group_symop_operation_xyz
  'x, y, z'

loop_
  _atom_site_type_symbol
  _atom_site_label
  _atom_site_symmetry_multiplicity
  _atom_site_fract_x
  _atom_site_fract_y
  _atom_site_fract_z
  _atom_site_occupancy
  Cu  Cu1       1.0  1.1415982613028477e-06  0.9999999164202791  0.9999996413281453  1.0000
  Cu  Cu2       1.0  1.873654106505325e-06  0.5000003569701903  0.500001347468846  1.0000
  H   H1        1.0  0.24328109428828526  0.208124020679584  0.9650451670162427  1.0000
  H   H2        1.0  0.7567048933478162  0.7081236862583467  0.5349481435766279  1.0000
  H   H3        1.0  0.7567167648657502  0.7918751099319221  0.03495274588282631  1.0000
  H   H4        1.0  0.24329810812091773  0.29187703940763043  0.4650543800943155  1.0000
  H   H5        1.0  0.05683626397745909  0.39620831856698396  0.22653784441639865  1.0000
  H   H6        1.0  0.9431727076010218  0.8962146034374285  0.2734584335426291  1.0000
  H   H7        1.0  0.943173932684722  0.6037908120417653  0.7734603720915773  1.0000
  H   H8        1.0  0.056815419752730585  0.1037861222461274  0.7265422293504076  1.0000
  H   H9        1.0  0.8384016765186711  0.2291985110890025  0.2916963181139565  1.0000
  H   H10       1.0  0.16161068034197965  0.7292036281808194  0.2083035666522832  1.0000
  H   H11       1.0  0.1616060871881614  0.7708030121607552  0.7083025858758135  1.0000
  H   H12       1.0  0.8383898536251237  0.27079709748571196  0.7916988962968788  1.0000
  H   H13       1.0  0.3297090946891571  0.3446850715275501  0.8929126390585724  1.0000
  H   H14       1.0  0.6703009494374469  0.8446793710336423  0.607081235712343  1.0000
  H   H15       1.0  0.67029613241926  0.6553132615402434  0.10708470778890701  1.0000
  H   H16       1.0  0.32968974907786464  0.1553205570787526  0.3929217325799855  1.0000
  H   H17       1.0  0.4056100707194544  0.5046786388955198  0.18095016263772837  1.0000
  H   H18       1.0  0.5943810586596497  0.0046897427221495  0.31904844753702133  1.0000
  H   H19       1.0  0.5944000568417208  0.495318896629108  0.8190465574363871  1.0000
  H   H20       1.0  0.40561697325111357  0.9953117805012611  0.6809532064600675  1.0000
  C   C1        1.0  0.15712536982837827  0.2216856113692316  0.0386184010091313  1.0000
  C   C2        1.0  0.8428692705245239  0.7216875108874915  0.46137070946178244  1.0000
  C   C3        1.0  0.8428774588836345  0.7783127216848342  0.9613803815637922  1.0000
  C   C4        1.0  0.15713122888997327  0.27831321478617355  0.5386310052637739  1.0000
  C   C5        1.0  0.18778835774661928  0.320638663518146  0.0881457349668864  1.0000
  C   C6        1.0  0.8122132309024295  0.8206423048524201  0.4118433963790054  1.0000
  C   C7        1.0  0.8122193368571047  0.679362062196688  0.9118516725823299  1.0000
  C   C8        1.0  0.18778233351092405  0.17935762327314111  0.5881581969096672  1.0000
  C   C9        1.0  0.06298808339736439  0.32381041923732573  0.181807076438588  1.0000
  C   C10       1.0  0.9370162669546925  0.8238134578527152  0.31818879651142146  1.0000
  C   C11       1.0  0.9370246153169433  0.676189508912941  0.8181919490080958  1.0000
  C   C12       1.0  0.06297676085181787  0.17618647028767498  0.6818112396082441  1.0000
  C   C13       1.0  0.938004673383524  0.22955571235207367  0.21878228061993352  1.0000
  C   C14       1.0  0.0620025047118133  0.7295626261500345  0.28121223913834836  1.0000
  C   C15       1.0  0.062003090327529285  0.7704442157992872  0.7812166233831945  1.0000
  C   C16       1.0  0.9379955272010604  0.2704380995241776  0.7187894148654195  1.0000
  C   C17       1.0  0.3438252284364082  0.41228148900881934  0.04276954300149781  1.0000
  C   C18       1.0  0.6561688877002965  0.9122810706364322  0.45722684963886456  1.0000
  C   C19       1.0  0.6561774966177721  0.5877168440666622  0.9572269949005872  1.0000
  C   C20       1.0  0.34381927420395186  0.08772045258918135  0.5427745614710986  1.0000
  C   C21       1.0  0.4053036915773234  0.41210224503176823  0.9410011333320796  1.0000
  C   C22       1.0  0.5946986280551697  0.9120998529509308  0.5589921780550284  1.0000
  C   C23       1.0  0.594701500974267  0.5878976831415628  0.058995465278428603  1.0000
  C   C24       1.0  0.40529446885866344  0.08789927762598641  0.44100935451854184  1.0000
  C   C25       1.0  0.4413707100194981  0.5022388999067928  0.10116619996696131  1.0000
  C   C26       1.0  0.558615393615554  0.0022444928859642  0.398830085011575  1.0000
  C   C27       1.0  0.558629478425729  0.497760230732716  0.8988287807594446  1.0000
  C   C28       1.0  0.441377703296176  0.9977554352401511  0.6011714475553164  1.0000
  Br  Br1       1.0  0.403480789270766  0.9179077688755797  0.12370681777446893  1.0000
  Br  Br2       1.0  0.5965280330475977  0.417895449199527  0.376288348594109  1.0000
  Br  Br3       1.0  0.5965147405920845  0.0820913617079242  0.8762940272972701  1.0000
  Br  Br4       1.0  0.4034701025209911  0.5821060740024748  0.6237155500738185  1.0000
  N   N1        1.0  0.9268169939314247  0.1362413247646046  0.17014671011092733  1.0000
  N   N2        1.0  0.07318299873431759  0.6362457157993403  0.3298432049748214  1.0000
  N   N3        1.0  0.0731833672726339  0.8637594009376101  0.8298520117201704  1.0000
  N   N4        1.0  0.9268199681818103  0.36375500987377046  0.670158570472509  1.0000
  N   N5        1.0  0.03219696745175329  0.1352221162538143  0.0792242918557946  1.0000
  N   N6        1.0  0.9677933679113832  0.6352271860645758  0.4207698867532416  1.0000
  N   N7        1.0  0.9678058612560391  0.864777811898648  0.9207744907037709  1.0000
  N   N8        1.0  0.03220959900685471  0.36477274205933713  0.5792318887007754  1.0000
