data_image0
_chemical_formula_structural       Cd2H32C32O16
_chemical_formula_sum              "Cd2 H32 C32 O16"
_cell_length_a       4.674375514903279
_cell_length_b       13.854437925030947
_cell_length_c       13.104160456328813
_cell_angle_alpha    105.55605989621401
_cell_angle_beta     100.24195235861936
_cell_angle_gamma    90.020637138094

_space_group_name_H-M_alt    "P 1"
_space_group_IT_number       1

loop_
  _space_group_symop_operation_xyz
  'x, y, z'

loop_
  _atom_site_type_symbol
  _atom_site_label
  _atom_site_symmetry_multiplicity
  _atom_site_fract_x
  _atom_site_fract_y
  _atom_site_fract_z
  _atom_site_occupancy
  Cd  Cd1       1.0  0.002691951009687405  0.24997106688650916  0.00024312194057787815  1.0000
  Cd  Cd2       1.0  0.9973295235154537  0.7500359623253912  0.9997518454187218  1.0000
  H   H1        1.0  0.4734661385526663  0.16376652561631028  0.8638048140133636  1.0000
  H   H2        1.0  0.6095608479098047  0.33622162945857775  0.1365067573822571  1.0000
  H   H3        1.0  0.526547989829119  0.8362371974656779  0.13619581125441724  1.0000
  H   H4        1.0  0.39045552885853135  0.6637837050207407  0.8634959011870791  1.0000
  H   H5        1.0  0.5446875662703617  0.1058769211882122  0.9507093779338831  1.0000
  H   H6        1.0  0.5939699079030093  0.39405380744009477  0.049531386787791065  1.0000
  H   H7        1.0  0.45531794560476163  0.894127507038391  0.04929077581700618  1.0000
  H   H8        1.0  0.40604414681626366  0.6059483150381552  0.9504673641262332  1.0000
  H   H9        1.0  0.7949079686759006  0.0229794117883415  0.10911555895543056  1.0000
  H   H10       1.0  0.6862783584008126  0.4767764929717514  0.8909049174675163  1.0000
  H   H11       1.0  0.2050662208063301  0.9770224958464054  0.8908909872602352  1.0000
  H   H12       1.0  0.3137629984346191  0.5232192948666352  0.10909828581222311  1.0000
  H   H13       1.0  0.15117330186066621  0.9786403850589023  0.2489285257916833  1.0000
  H   H14       1.0  0.9017962246541843  0.5212471615756724  0.7508333338942067  1.0000
  H   H15       1.0  0.8488074554284496  0.021357293532929617  0.7510699468700326  1.0000
  H   H16       1.0  0.09823019118923779  0.4787473865255691  0.24916240925594482  1.0000
  H   H17       1.0  0.8825447750962424  0.223052933248887  0.4904073708458867  1.0000
  H   H18       1.0  0.39084608334623994  0.2769541432209763  0.5095583987208983  1.0000
  H   H19       1.0  0.11743817629424311  0.7769472610078906  0.5095956180994392  1.0000
  H   H20       1.0  0.6091408427627697  0.7230549582503797  0.4904345182965245  1.0000
  H   H21       1.0  0.5313718055844348  0.269424547998291  0.346605834625521  1.0000
  H   H22       1.0  0.18399401930694378  0.23056878870231398  0.6535480257424668  1.0000
  H   H23       1.0  0.4686002266276716  0.7305756442733793  0.6533971324834198  1.0000
  H   H24       1.0  0.8160141684325523  0.7694350785062838  0.3464437850277235  1.0000
  H   H25       1.0  0.5337530915642431  0.0011412334378633148  0.38538167278931484  1.0000
  H   H26       1.0  0.1472960134637304  0.4985766603682363  0.6145924286694682  1.0000
  H   H27       1.0  0.46624051438230657  0.9988584224165109  0.6146242653284804  1.0000
  H   H28       1.0  0.8527106863852296  0.5014230082648368  0.3854136902325109  1.0000
  H   H29       1.0  0.27039172168740316  0.9251458529084643  0.4168631820784583  1.0000
  H   H30       1.0  0.8535829463399691  0.5749191695223955  0.5831526206034569  1.0000
  H   H31       1.0  0.7295959717211459  0.0748555996591378  0.5831365887980908  1.0000
  H   H32       1.0  0.1464198877473493  0.42508161028137437  0.41684809863337347  1.0000
  C   C1        1.0  0.4128334681558101  0.17326064832219154  0.13635849677726955  1.0000
  C   C2        1.0  0.2766879011883746  0.32649009747078855  0.8638678920938008  1.0000
  C   C3        1.0  0.5871616644359533  0.8267482158504079  0.8636418478803592  1.0000
  C   C4        1.0  0.7233260604910398  0.6735079195323691  0.13612462713065548  1.0000
  C   C5        1.0  0.6342360989624183  0.14756546688521863  0.21898445901254607  1.0000
  C   C6        1.0  0.4151132208044927  0.3522436435042379  0.7811770582236408  1.0000
  C   C7        1.0  0.36575011566910826  0.8524427617426154  0.7810174042873825  1.0000
  C   C8        1.0  0.5849046240904767  0.6477515577587452  0.21881744050703128  1.0000
  C   C9        1.0  0.8107220763266056  0.06608992238656698  0.19289949892826297  1.0000
  C   C10       1.0  0.6180140641970269  0.43364734693571444  0.8071438660653812  1.0000
  C   C11       1.0  0.18927257257873717  0.9339178090281449  0.8071059274989241  1.0000
  C   C12       1.0  0.3820017532989368  0.5663510447411537  0.19285422242500516  1.0000
  C   C13       1.0  0.012870845899023192  0.040870980859629896  0.2723283736473548  1.0000
  C   C14       1.0  0.7402813778905608  0.4589402488094051  0.7275906143675286  1.0000
  C   C15       1.0  0.987120723921564  0.9591327176933644  0.7276828643096211  1.0000
  C   C16       1.0  0.2597218206624561  0.5410601151313869  0.2724039216485751  1.0000
  C   C17       1.0  0.03527962034717549  0.0975817243598485  0.3798595825040821  1.0000
  C   C18       1.0  0.6546862226880208  0.4023318564119334  0.6200361491634184  1.0000
  C   C19       1.0  0.9647020341125908  0.9024132111051767  0.6201529128832065  1.0000
  C   C20       1.0  0.34531471002453884  0.5976686007010057  0.3799597737100768  1.0000
  C   C21       1.0  0.8620688952763443  0.18025395589771878  0.4065341056018071  1.0000
  C   C22       1.0  0.45471798894304516  0.31968139711079857  0.5934528558278487  1.0000
  C   C23       1.0  0.13789575396115336  0.8197421299421703  0.5934735822387438  1.0000
  C   C24       1.0  0.5452791885016383  0.6803225720784382  0.4065404789111328  1.0000
  C   C25       1.0  0.666331486242825  0.2054950324013944  0.3266970039994136  1.0000
  C   C26       1.0  0.3391273273936051  0.2944416672453727  0.673430233137218  1.0000
  C   C27       1.0  0.333638388699157  0.7945034445071995  0.6733023840027956  1.0000
  C   C28       1.0  0.660876044665308  0.7055593410486692  0.32656292134799975  1.0000
  C   C29       1.0  0.4026689804405165  0.9963255762312497  0.445944247572811  1.0000
  C   C30       1.0  0.9561347391190226  0.5036040871546206  0.5539985584580408  1.0000
  C   C31       1.0  0.5973095565663441  0.003672143549863411  0.5540548390437011  1.0000
  C   C32       1.0  0.043890106830943396  0.49639734097260646  0.4460008229206736  1.0000
  O   O1        1.0  0.31820581142188326  0.2632038704360724  0.15844237606720674  1.0000
  O   O2        1.0  0.16031187603929445  0.23651894648696725  0.8418898293694923  1.0000
  O   O3        1.0  0.681784824396793  0.7368017709418665  0.841553901987318  1.0000
  O   O4        1.0  0.8396911577347838  0.7634799208158254  0.1581043780980451  1.0000
  O   O5        1.0  0.3191769298484458  0.11026235025961031  0.04555859790632159  1.0000
  O   O6        1.0  0.2739424275723933  0.3894616066076821  0.9546990132180968  1.0000
  O   O7        1.0  0.6808092586022169  0.8897484352224507  0.9544483956320138  1.0000
  O   O8        1.0  0.7260829757265198  0.6105425548811709  0.04529716074482337  1.0000
  O   O9        1.0  0.2190746240051453  0.07955190514385892  0.46515381280183027  1.0000
  O   O10       1.0  0.7525320798177475  0.4205895802942905  0.5346877149127849  1.0000
  O   O11       1.0  0.7809229475464292  0.9204456832893371  0.5348542690964566  1.0000
  O   O12       1.0  0.24747732399988112  0.5794111799073959  0.4653127082648468  1.0000
  O   O13       1.0  0.6382886362112927  0.1334216535098989  0.90131276701095  1.0000
  O   O14       1.0  0.7369349245633288  0.36667748378244613  0.09905129632445409  1.0000
  O   O15       1.0  0.36172563949552483  0.8665852707795594  0.09869160696434419  1.0000
  O   O16       1.0  0.2630788829875428  0.6333223937388154  0.9009469617667066  1.0000
