data_image0
_chemical_formula_structural       Al2H30C60O36
_chemical_formula_sum              "Al2 H30 C60 O36"
_cell_length_a       4.084027145022357
_cell_length_b       28.898576555736753
_cell_length_c       28.898569106859348
_cell_angle_alpha    119.99999785548184
_cell_angle_beta     90.00021665777973
_cell_angle_gamma    89.99962569055877

_space_group_name_H-M_alt    "P 1"
_space_group_IT_number       1

loop_
  _space_group_symop_operation_xyz
  'x, y, z'

loop_
  _atom_site_type_symbol
  _atom_site_label
  _atom_site_symmetry_multiplicity
  _atom_site_fract_x
  _atom_site_fract_y
  _atom_site_fract_z
  _atom_site_occupancy
  Al  Al1       1.0  0.9987421283201032  0.5000007717745802  0.49999975067387237  1.0000
  Al  Al2       1.0  0.9987370024973217  0.1666674968427556  0.8333331974270097  1.0000
  H   H1        1.0  0.5316377258036695  0.23073213147463176  0.6442687372991501  1.0000
  H   H2        1.0  0.4703758105609026  0.37563821664139124  0.7981767326928663  1.0000
  H   H3        1.0  0.47038164667294774  0.29100398167904723  0.5351176382321726  1.0000
  H   H4        1.0  0.5316213660964167  0.4359010762973838  0.6890338848464809  1.0000
  H   H5        1.0  0.49717412306579684  0.38487469712884337  0.7216407047192775  1.0000
  H   H6        1.0  0.4971701476056225  0.28175825222130163  0.6116504371436166  1.0000
  H   H7        1.0  0.5316310558921913  0.9135389251443159  0.7692677555332995  1.0000
  H   H8        1.0  0.4704001689617598  0.9225401073877888  0.6243608882814442  1.0000
  H   H9        1.0  0.47039067835832066  0.7441158121023151  0.7089951556439761  1.0000
  H   H10       1.0  0.5316026599506855  0.7531352309302477  0.5640969955226753  1.0000
  H   H11       1.0  0.4971795053267983  0.8367678621057092  0.6151243019671782  1.0000
  H   H12       1.0  0.4971687724926284  0.8298935026115117  0.7182408096607987  1.0000
  H   H13       1.0  0.5316422356738714  0.3557305821949229  0.08646259212341083  1.0000
  H   H14       1.0  0.47037768918593775  0.20182275687706408  0.07746001654869161  1.0000
  H   H15       1.0  0.470381343627743  0.4648836702011038  0.25588522887283466  1.0000
  H   H16       1.0  0.5316184314844178  0.3109654530244299  0.2468639307197621  1.0000
  H   H17       1.0  0.4971790359195012  0.2783597242984611  0.1632334734294716  1.0000
  H   H18       1.0  0.4971766042681835  0.38834954412648404  0.170105449588938  1.0000
  H   H19       1.0  0.07363777024932008  0.2902024468370997  0.8555690938540085  1.0000
  H   H20       1.0  0.9253791069702044  0.1603170939370102  0.7169958846741126  1.0000
  H   H21       1.0  0.9254090304654812  0.5063321247516583  0.616324334463883  1.0000
  H   H22       1.0  0.0736210431783135  0.3764598238389779  0.4777449591312788  1.0000
  H   H23       1.0  0.07363611617999768  0.06536863493027315  0.7097977853454012  1.0000
  H   H24       1.0  0.9253879892472978  0.056680512403140496  0.8396825996151379  1.0000
  H   H25       1.0  0.9253805594223505  0.6099954974582075  0.4936648102606399  1.0000
  H   H26       1.0  0.0736324919472224  0.6012888332160456  0.6235418324439976  1.0000
  H   H27       1.0  0.0736397007710323  0.14443024353183617  0.9346321806151536  1.0000
  H   H28       1.0  0.9253792623067341  0.2830051805411813  0.9433208965313755  1.0000
  H   H29       1.0  0.9253966317453928  0.38367232821809694  0.390005636318918  1.0000
  H   H30       1.0  0.0736191125391628  0.5222546763555868  0.39871251298796306  1.0000
  C   C1        1.0  0.4986888981476553  0.46244879610875966  0.4163175506633864  1.0000
  C   C2        1.0  0.49869313337802623  0.45386998892922037  0.5375510858212352  1.0000
  C   C3        1.0  0.49869516675781966  0.5836820588174092  0.5461292053290095  1.0000
  C   C4        1.0  0.4987044958732341  0.21278518387770623  0.7957662767054148  1.0000
  C   C5        1.0  0.4987049111506607  0.08298386216244326  0.7872140890385497  1.0000
  C   C6        1.0  0.4987062821431394  0.20423401003452568  0.9170178555200438  1.0000
  C   C7        1.0  0.4986225803712969  0.24587041027366752  0.7687477702336951  1.0000
  C   C8        1.0  0.5232329143696576  0.2214930685953148  0.7125418786317398  1.0000
  C   C9        1.0  0.5174385832509643  0.2522269133932084  0.6877522597473984  1.0000
  C   C10       1.0  0.49951665031527887  0.3082413613603805  0.717332347440305  1.0000
  C   C11       1.0  0.4819141088345447  0.3322396709977581  0.7731532168311264  1.0000
  C   C12       1.0  0.47491958916049987  0.3020779954549083  0.798685615223846  1.0000
  C   C13       1.0  0.49941761710393723  0.34196579397367083  0.6931267087941253  1.0000
  C   C14       1.0  0.49941731915685506  0.3246672853149732  0.6401677617771427  1.0000
  C   C15       1.0  0.4819112656204538  0.3344035409697739  0.5601449760785259  1.0000
  C   C16       1.0  0.49951661951663334  0.3583973615105336  0.6159661685312444  1.0000
  C   C17       1.0  0.5174245170725486  0.41441058070125786  0.6455502394828302  1.0000
  C   C18       1.0  0.5232535170379293  0.4451512484341862  0.6207662505414789  1.0000
  C   C19       1.0  0.4986109951498746  0.42077820223062185  0.5645602349175861  1.0000
  C   C20       1.0  0.47491959027704667  0.36456946782433874  0.5346180208292354  1.0000
  C   C21       1.0  0.49862994978022374  0.022880463338331915  0.7541288128936757  1.0000
  C   C22       1.0  0.5232455183106737  0.9910512848531071  0.7785063754785713  1.0000
  C   C23       1.0  0.5174383955082789  0.9355276581227087  0.747772466780404  1.0000
  C   C24       1.0  0.49952457601770567  0.9090934267832508  0.6917576457984184  1.0000
  C   C25       1.0  0.4819330511302624  0.9409163013063874  0.6677593712769865  1.0000
  C   C26       1.0  0.47492927803163815  0.996610778290325  0.6979217226553588  1.0000
  C   C27       1.0  0.49942262224900696  0.8511630808118298  0.6580336478621264  1.0000
  C   C28       1.0  0.49941632102339634  0.8155027020494429  0.6753318884181851  1.0000
  C   C29       1.0  0.4819208161568369  0.7257428973438494  0.665594768741464  1.0000
  C   C30       1.0  0.4995175979835977  0.7575706009550912  0.6416013406170649  1.0000
  C   C31       1.0  0.5174189174135223  0.7311416658745811  0.5855874382399407  1.0000
  C   C32       1.0  0.5232375742784258  0.6756175169072732  0.5548478186114565  1.0000
  C   C33       1.0  0.49861831729026557  0.643784137590046  0.5792199540397291  1.0000
  C   C34       1.0  0.4749334970500243  0.6700503316287724  0.6354291273387817  1.0000
  C   C35       1.0  0.4986207512347677  0.2312516367462436  0.9771214918710104  1.0000
  C   C36       1.0  0.5232368657564592  0.28745769599175464  0.008950429938614859  1.0000
  C   C37       1.0  0.5174412756691497  0.31224679348274975  0.06447326452241241  1.0000
  C   C38       1.0  0.4995163668149941  0.2826666004461202  0.0909079949592737  1.0000
  C   C39       1.0  0.481921851620683  0.2268454929823065  0.05908465168117522  1.0000
  C   C40       1.0  0.47492126339047763  0.20131290054087708  0.003389701010902986  1.0000
  C   C41       1.0  0.4994259747115279  0.3068736055777279  0.14883792403181673  1.0000
  C   C42       1.0  0.49942522817875107  0.35983240028140523  0.18449733906132343  1.0000
  C   C43       1.0  0.4819124441621129  0.43985557280637266  0.274257641220764  1.0000
  C   C44       1.0  0.4995209270621855  0.38403353318957295  0.24242898783341363  1.0000
  C   C45       1.0  0.517430745750616  0.35444918631809225  0.2688567850698719  1.0000
  C   C46       1.0  0.5232462441843566  0.3792324992927972  0.32438263139039236  1.0000
  C   C47       1.0  0.4986128237312497  0.43543806537942936  0.35621601537494746  1.0000
  C   C48       1.0  0.4749219404072348  0.4653804371474238  0.32994925217894894  1.0000
  C   C49       1.0  0.4499026929184425  0.3329132559566758  0.8585032885236147  1.0000
  C   C50       1.0  0.5522051979432304  0.16222454232206474  0.6760029032642266  1.0000
  C   C51       1.0  0.552209350063464  0.5044153540176807  0.657309624254495  1.0000
  C   C52       1.0  0.449868258892934  0.33374217766198905  0.474800701410679  1.0000
  C   C53       1.0  0.44989988285811217  0.025592190023210865  0.6670862765013085  1.0000
  C   C54       1.0  0.5522033772832559  0.013782152937224578  0.8377747501367737  1.0000
  C   C55       1.0  0.5521768905055141  0.6528970703196462  0.4955814995604015  1.0000
  C   C56       1.0  0.449893106594942  0.6410617905312604  0.6662586148131667  1.0000
  C   C57       1.0  0.44990860175477115  0.14149463837615886  0.9744096082091362  1.0000
  C   C58       1.0  0.5521957631635459  0.32399758182087607  0.9862206690980032  1.0000
  C   C59       1.0  0.5521869525985466  0.34268945507906773  0.3471042363720542  1.0000
  C   C60       1.0  0.4498770411786666  0.5251989626165994  0.3589413396559067  1.0000
  O   O1        1.0  0.7359542906613611  0.5583792162768687  0.5523493618308352  1.0000
  O   O2        1.0  0.7359494180185493  0.49397240179385443  0.4416215698251167  1.0000
  O   O3        1.0  0.7359513247425864  0.4476506971658125  0.5060279325015814  1.0000
  O   O4        1.0  0.26167675224292  0.5611320426763697  0.5134523633574021  1.0000
  O   O5        1.0  0.26168380826966603  0.48654710516071015  0.5476775516679809  1.0000
  O   O6        1.0  0.2616758202249727  0.4523222078199609  0.43886768927962555  1.0000
  O   O7        1.0  0.7359455468516954  0.17270630749538896  0.8917163660182582  1.0000
  O   O8        1.0  0.735946088847804  0.21901258667378443  0.8272949774608167  1.0000
  O   O9        1.0  0.7359529173533514  0.1082848877003427  0.7809879536585671  1.0000
  O   O10       1.0  0.26168480280099976  0.214352487086508  0.8944621694927337  1.0000
  O   O11       1.0  0.2616789738990164  0.10553817474266947  0.8198882015892865  1.0000
  O   O12       1.0  0.26168171220169967  0.1801117073500791  0.7856488113824086  1.0000
  O   O13       1.0  0.239084554647917  0.3137445387636503  0.8810148233037866  1.0000
  O   O14       1.0  0.6164803669194683  0.3722321662498444  0.885089985318622  1.0000
  O   O15       1.0  0.7631693327469904  0.1361898473068095  0.6912259213071509  1.0000
  O   O16       1.0  0.3901127410376688  0.13901313642232074  0.6355371762965661  1.0000
  O   O17       1.0  0.7631816860082451  0.530454001990087  0.642093563698552  1.0000
  O   O18       1.0  0.39011199315064715  0.5276244655689621  0.6977756944046973  1.0000
  O   O19       1.0  0.23906334247395478  0.35291834666427474  0.4522964110569703  1.0000
  O   O20       1.0  0.6164445898952522  0.2944201282430683  0.4482066340866951  1.0000
  O   O21       1.0  0.2390876513544811  0.06727219858856155  0.6862564052679404  1.0000
  O   O22       1.0  0.6164778858659332  0.012860760091257417  0.6277659315906093  1.0000
  O   O23       1.0  0.7631710081903121  0.0550388715412922  0.8638091563601337  1.0000
  O   O24       1.0  0.39010828005012854  0.9965282686414056  0.860986052739918  1.0000
  O   O25       1.0  0.7631555244788899  0.611643416650594  0.4695431735532979  1.0000
  O   O26       1.0  0.39007393786683053  0.6701542276704728  0.472375311796256  1.0000
  O   O27       1.0  0.23907738628302166  0.599381649633017  0.6470825523453032  1.0000
  O   O28       1.0  0.6164691086831341  0.6537907839140544  0.7055798836040594  1.0000
  O   O29       1.0  0.23908724964320527  0.11898500868551301  0.9327292952597405  1.0000
  O   O30       1.0  0.6164900536302227  0.1149089365718582  0.9871412849868622  1.0000
  O   O31       1.0  0.7631662550250623  0.30877508071892384  0.9449634781947797  1.0000
  O   O32       1.0  0.39009928258523263  0.3644625106382762  0.0034751269732070113  1.0000
  O   O33       1.0  0.7631578287327302  0.35790527468457617  0.3883589490196401  1.0000
  O   O34       1.0  0.3900756071121733  0.30222547580553527  0.3298464044124501  1.0000
  O   O35       1.0  0.2390655445564178  0.5477026662116059  0.400621512671691  1.0000
  O   O36       1.0  0.6164544913220309  0.5517934368313178  0.34621460345994853  1.0000
