data_image0
_chemical_formula_structural       Ag2P2H12C14O10
_chemical_formula_sum              "Ag2 P2 H12 C14 O10"
_cell_length_a       4.722044608128524
_cell_length_b       5.707911984661732
_cell_length_c       15.892056386846773
_cell_angle_alpha    81.87454021402336
_cell_angle_beta     90.31212863782035
_cell_angle_gamma    82.64580514131006

_space_group_name_H-M_alt    "P 1"
_space_group_IT_number       1

loop_
  _space_group_symop_operation_xyz
  'x, y, z'

loop_
  _atom_site_type_symbol
  _atom_site_label
  _atom_site_symmetry_multiplicity
  _atom_site_fract_x
  _atom_site_fract_y
  _atom_site_fract_z
  _atom_site_occupancy
  Ag  Ag1       1.0  0.6739491035980122  0.6811266918006068  0.01995547169733671  1.0000
  Ag  Ag2       1.0  0.32608135066304555  0.3188747126856555  0.980055712456263  1.0000
  P   P1        1.0  0.7910883869036168  0.1111194494972452  0.1282195236411212  1.0000
  P   P2        1.0  0.20891912896815512  0.8888654918225425  0.8717844027019837  1.0000
  H   H1        1.0  0.4097282272247114  0.9799341598503659  0.2708026221857978  1.0000
  H   H2        1.0  0.5902629513677908  0.020071906424327303  0.7291932278926154  1.0000
  H   H3        1.0  0.8774868491946534  0.674256731615756  0.33083039770279044  1.0000
  H   H4        1.0  0.1225230709025098  0.325738818684016  0.6691691662131376  1.0000
  H   H5        1.0  0.5467515248893662  0.49543578754712303  0.43513608334033904  1.0000
  H   H6        1.0  0.4532365614580129  0.5045630764233522  0.5648589073406072  1.0000
  H   H7        1.0  0.9754409610100864  0.5081231269263426  0.1973861707389517  1.0000
  H   H8        1.0  0.024571592180485886  0.4918687634961645  0.8026104466995393  1.0000
  H   H9        1.0  0.0056010840512926065  0.8839013402422466  0.44799942745761  1.0000
  H   H10       1.0  0.9944070773082673  0.1160925157332287  0.5520033775861036  1.0000
  H   H11       1.0  0.24432291231674702  0.946705135167697  0.1329336309065212  1.0000
  H   H12       1.0  0.7556801691920684  0.05329409303652  0.8670701399177645  1.0000
  C   C1        1.0  0.26216814372938296  0.12399764666204048  0.4222031801689781  1.0000
  C   C2        1.0  0.7378415374737769  0.8759997697675601  0.5777987982257073  1.0000
  C   C3        1.0  0.5142140611201143  0.1310954093523833  0.2833653036677148  1.0000
  C   C4        1.0  0.4857847097778886  0.8689036740870648  0.7166347021964157  1.0000
  C   C5        1.0  0.7744550916112586  0.5226746123378448  0.317839368655818  1.0000
  C   C6        1.0  0.2255271031134711  0.4773474621863373  0.6821549754223852  1.0000
  C   C7        1.0  0.5898192014815892  0.42224639950988757  0.37623138707791526  1.0000
  C   C8        1.0  0.4101644110843737  0.5777666902980415  0.6237615635625602  1.0000
  C   C9        1.0  0.7010662965405813  0.23165645688204964  0.22494874420870303  1.0000
  C   C10       1.0  0.2989223146559254  0.7683533710148751  0.7750531932165715  1.0000
  C   C11       1.0  0.4593754374097402  0.2261004500329804  0.3592071022582246  1.0000
  C   C12       1.0  0.5406208341729908  0.77390026436197  0.64078841021351  1.0000
  C   C13       1.0  0.8307704836996663  0.42792880394777916  0.24257509216225506  1.0000
  C   C14       1.0  0.16920532394575363  0.5720931755232073  0.7574173735190328  1.0000
  O   O1        1.0  0.21151432521853053  0.20910286571926656  0.48973815000221776  1.0000
  O   O2        1.0  0.7885261310702347  0.7908875501216098  0.5102635645036172  1.0000
  O   O3        1.0  0.1465743044892491  0.9405490415494455  0.4017980398978267  1.0000
  O   O4        1.0  0.8533916642990818  0.0594695559647036  0.5982021705115343  1.0000
  O   O5        1.0  0.04748412362850017  0.9029774060188914  0.1504867744611076  1.0000
  O   O6        1.0  0.9525313385846346  0.0970112518552  0.8495200881515288  1.0000
  O   O7        1.0  0.5363439429224854  0.9962801735832939  0.099138376747419  1.0000
  O   O8        1.0  0.4636530623254346  0.003692430425985501  0.9008731592753845  1.0000
  O   O9        1.0  0.8862889088036567  0.3056466461841723  0.0623991938901511  1.0000
  O   O10       1.0  0.1137117082791619  0.6943272565049626  0.9375965354855821  1.0000
