data_image0
_chemical_formula_structural       Cd4H44C52N12O16
_chemical_formula_sum              "Cd4 H44 C52 N12 O16"
_cell_length_a       11.75729884943847
_cell_length_b       13.43894746929225
_cell_length_c       15.844672288052283
_cell_angle_alpha    90.00029357269666
_cell_angle_beta     97.89234081489883
_cell_angle_gamma    90.00065725058259

_space_group_name_H-M_alt    "P 1"
_space_group_IT_number       1

loop_
  _space_group_symop_operation_xyz
  'x, y, z'

loop_
  _atom_site_type_symbol
  _atom_site_label
  _atom_site_symmetry_multiplicity
  _atom_site_fract_x
  _atom_site_fract_y
  _atom_site_fract_z
  _atom_site_occupancy
  Cd  Cd1       1.0  0.0645442996008398  0.0836514509844619  0.07447246928455799  1.0000
  Cd  Cd2       1.0  0.4354506760855373  0.5836563577569932  0.4255316953982201  1.0000
  Cd  Cd3       1.0  0.935455684115091  0.9163479318541191  0.9255275590745312  1.0000
  Cd  Cd4       1.0  0.5645543805211871  0.4163467456339305  0.5744674248946922  1.0000
  H   H1        1.0  0.3829411207846078  0.5012584526470789  0.24224662855156248  1.0000
  H   H2        1.0  0.11706246731169762  0.0012611534259789996  0.25776343515128264  1.0000
  H   H3        1.0  0.6170743416212615  0.49873646563971624  0.7577551158184405  1.0000
  H   H4        1.0  0.8829460578982307  0.9987397176674903  0.7422365598354117  1.0000
  H   H5        1.0  0.2697896463839911  0.371035354408029  0.1528149149598548  1.0000
  H   H6        1.0  0.23021459171122424  0.8710369601537097  0.3471925214481785  1.0000
  H   H7        1.0  0.7302288758691375  0.6289595638755472  0.8471807265681546  1.0000
  H   H8        1.0  0.7697899786207004  0.12896316683043807  0.6528128819618357  1.0000
  H   H9        1.0  0.1022638143127708  0.29941274886797226  0.370316206878698  1.0000
  H   H10       1.0  0.3977193885344477  0.7994162048462315  0.12968436342995907  1.0000
  H   H11       1.0  0.897746764220031  0.7005858898915562  0.6296750878770252  1.0000
  H   H12       1.0  0.6022651907613437  0.2005802014894655  0.870315217540977  1.0000
  H   H13       1.0  0.22656471338790848  0.4286797063196488  0.4528541980050491  1.0000
  H   H14       1.0  0.27341079622564723  0.9286784222010097  0.04714518142276349  1.0000
  H   H15       1.0  0.773440714787547  0.5713174442454517  0.5471512654909958  1.0000
  H   H16       1.0  0.7265743808019636  0.07131724001840209  0.9528500193864813  1.0000
  H   H17       1.0  0.8693606331227671  0.1131584618096682  0.2795759177725543  1.0000
  H   H18       1.0  0.6306266402760983  0.6131731651233565  0.2204190202044813  1.0000
  H   H19       1.0  0.1306361421173676  0.8868431533412816  0.7204276761468549  1.0000
  H   H20       1.0  0.3693576788922853  0.38682324119741907  0.7795761205123596  1.0000
  H   H21       1.0  0.7291907860576713  0.0018953491257321  0.2893853395652286  1.0000
  H   H22       1.0  0.7708042446185316  0.5018942963128055  0.21062224983557334  1.0000
  H   H23       1.0  0.2708069957434631  0.9981137070971895  0.7106208517580368  1.0000
  H   H24       1.0  0.22919144969662136  0.49809392491476245  0.7893774780189345  1.0000
  H   H25       1.0  0.5959800949452115  0.8635475614569543  0.23779632990898136  1.0000
  H   H26       1.0  0.9040080140449904  0.3635524489788508  0.26219795587247313  1.0000
  H   H27       1.0  0.4040112730435368  0.13646298292263737  0.7622024632146278  1.0000
  H   H28       1.0  0.0959849209133523  0.6364417250716201  0.7377984201053706  1.0000
  H   H29       1.0  0.7553868084750662  0.847277047257663  0.008954637316833214  1.0000
  H   H30       1.0  0.7445907029431352  0.34726833032348736  0.4910375656542384  1.0000
  H   H31       1.0  0.2446061265879109  0.152732008910661  0.9910417387035364  1.0000
  H   H32       1.0  0.2554015971118559  0.6527250996293645  0.5089625561590196  1.0000
  H   H33       1.0  0.023522552641523514  0.23313580694946978  0.929128452476661  1.0000
  H   H34       1.0  0.4764795130773365  0.7331359788301198  0.5708770898363865  1.0000
  H   H35       1.0  0.9764771306728903  0.7668702728695891  0.0708810306372456  1.0000
  H   H36       1.0  0.5235165900983958  0.2668648922210722  0.4291296155964304  1.0000
  H   H37       1.0  0.0408235930915808  0.2648841224183585  0.0250311772127176  1.0000
  H   H38       1.0  0.4591773623438513  0.7648843635223628  0.4749742636580621  1.0000
  H   H39       1.0  0.9591845202022778  0.7351189810138478  0.974976369549992  1.0000
  H   H40       1.0  0.5408255293992852  0.23511278703129793  0.5250316538763826  1.0000
  H   H41       1.0  0.6060366254753404  0.7549238993175746  0.0344755780716639  1.0000
  H   H42       1.0  0.8939445117044614  0.2549329075520319  0.4655126517469697  1.0000
  H   H43       1.0  0.3939582110538282  0.24507548349385636  0.9655240897202049  1.0000
  H   H44       1.0  0.10604734247539233  0.7450687075400495  0.5344798582255165  1.0000
  C   C1        1.0  0.3201506535347036  0.45473597026949614  0.2682898623376957  1.0000
  C   C2        1.0  0.179842714171464  0.9547311499054841  0.2317165767917047  1.0000
  C   C3        1.0  0.679851643673352  0.5452671330971979  0.731705906061535  1.0000
  C   C4        1.0  0.8201616703603989  0.04526972117389509  0.7682856550103594  1.0000
  C   C5        1.0  0.2574551619104923  0.38320534629204417  0.21887013628745675  1.0000
  C   C6        1.0  0.2425476801949316  0.8832029514828007  0.2811397867649035  1.0000
  C   C7        1.0  0.7425609354196538  0.6167932925159435  0.7811278622556301  1.0000
  C   C8        1.0  0.7574613653011965  0.11680238427587139  0.7188690887427569  1.0000
  C   C9        1.0  0.17727079157106115  0.325297985999029  0.2547821745393222  1.0000
  C   C10       1.0  0.3227309390528674  0.8253021352881688  0.24522234298998308  1.0000
  C   C11       1.0  0.8227471329293222  0.674694699977266  0.7452178471418733  1.0000
  C   C12       1.0  0.6772689703514062  0.17469873575792857  0.754776416729328  1.0000
  C   C13       1.0  0.1642484853073469  0.3424572641548878  0.34033334210798216  1.0000
  C   C14       1.0  0.3357452795156419  0.842455068022531  0.1596770157506739  1.0000
  C   C15       1.0  0.8357797706962203  0.6575309572424785  0.6596680350169065  1.0000
  C   C16       1.0  0.6642419476694811  0.15753761780153744  0.8403240141372733  1.0000
  C   C17       1.0  0.231883252430201  0.4145876500641704  0.3857042044159726  1.0000
  C   C18       1.0  0.2681096250921726  0.9145859796808721  0.1143032739014274  1.0000
  C   C19       1.0  0.7681358643580012  0.5854013154063721  0.6143015862472578  1.0000
  C   C20       1.0  0.731880884922255  0.08540893847045078  0.8856954590829885  1.0000
  C   C21       1.0  0.1119759290800388  0.24772445278541258  0.2014032979350588  1.0000
  C   C22       1.0  0.3880180336688781  0.7477288457877904  0.29860346708238683  1.0000
  C   C23       1.0  0.8880333796565412  0.7522741859906433  0.7985954884957633  1.0000
  C   C24       1.0  0.6119786300776155  0.2522712811449778  0.7013982238667253  1.0000
  C   C25       1.0  0.890199691450249  0.08465093884428397  0.21837167247775816  1.0000
  C   C26       1.0  0.6098072463991641  0.5846605977769598  0.28163019362450104  1.0000
  C   C27       1.0  0.10980797586906019  0.915346211715203  0.781628262403771  1.0000
  C   C28       1.0  0.39020060673590246  0.4153380410049721  0.7183729128713451  1.0000
  C   C29       1.0  0.8205694939766701  0.0039469776467342  0.18047385102364188  1.0000
  C   C30       1.0  0.6794278047315173  0.5039516205244822  0.3195282215048607  1.0000
  C   C31       1.0  0.17942959477652215  0.9960613344559022  0.8195254829444137  1.0000
  C   C32       1.0  0.32057053755144693  0.4960440417798466  0.6804729552985548  1.0000
  C   C33       1.0  0.7351764434084842  0.9673450539739363  0.22771844072749295  1.0000
  C   C34       1.0  0.7648197618593005  0.4673478507321747  0.2722876424315928  1.0000
  C   C35       1.0  0.2648298055436129  0.0326625140760513  0.7722864485708456  1.0000
  C   C36       1.0  0.235172500992789  0.5326396263714059  0.7277118450426485  1.0000
  C   C37       1.0  0.6599781492513443  0.891145168834896  0.20002260708847067  1.0000
  C   C38       1.0  0.8400128099030725  0.3911503843947485  0.299970113743754  1.0000
  C   C39       1.0  0.3400159409436228  0.1088609109314405  0.799978903594038  1.0000
  C   C40       1.0  0.159976544937507  0.6088415573114219  0.7000234845614983  1.0000
  C   C41       1.0  0.668086905244607  0.8485478787148253  0.11999774179485458  1.0000
  C   C42       1.0  0.8318963689680742  0.3485393646117884  0.3799904488477991  1.0000
  C   C43       1.0  0.331904462749371  0.15146340977065614  0.8800010513308719  1.0000
  C   C44       1.0  0.1680912329929924  0.6514540652949845  0.6200023949506175  1.0000
  C   C45       1.0  0.7506973863546165  0.8810908744872988  0.07128072269302518  1.0000
  C   C46       1.0  0.7492819446222327  0.3810795906962667  0.4287054505003026  1.0000
  C   C47       1.0  0.24929208011038642  0.11892115808436189  0.9287147786356866  1.0000
  C   C48       1.0  0.2507118854034758  0.6189205362080088  0.5712916199111007  1.0000
  C   C49       1.0  0.8288846297491901  0.9578562959207846  0.0992029939138632  1.0000
  C   C50       1.0  0.671104991095838  0.4578566997285307  0.4007950024800948  1.0000
  C   C51       1.0  0.17111360109245774  0.0421453192242893  0.9007962799405149  1.0000
  C   C52       1.0  0.3288896968152599  0.5421464036038302  0.5992021280343492  1.0000
  N   N1        1.0  0.3084259747557637  0.4703415518264362  0.3505579164595432  1.0000
  N   N2        1.0  0.1915711182005708  0.9703422987723228  0.1494501209005961  1.0000
  N   N3        1.0  0.6915790818248055  0.5296578310350242  0.6494412038227324  1.0000
  N   N4        1.0  0.8084281563055954  0.029658572282045298  0.8505523846562679  1.0000
  N   N5        1.0  0.0312359435163998  0.20142663109185582  0.23773191134564794  1.0000
  N   N6        1.0  0.4687555410384831  0.7014331066289756  0.2622725659105427  1.0000
  N   N7        1.0  0.9687681065764124  0.7985757281801255  0.7622646115625429  1.0000
  N   N8        1.0  0.5312376912344803  0.29856478796801167  0.7377288846540466  1.0000
  N   N9        1.0  0.9757438332571198  0.12786522804572797  0.18792355373496147  1.0000
  N   N10       1.0  0.524251293284287  0.6278645345239439  0.3120707404604133  1.0000
  N   N11       1.0  0.024260328318859995  0.8721371312326481  0.812074872139277  1.0000
  N   N12       1.0  0.4757529054370551  0.37213559243888744  0.6879283197294511  1.0000
  O   O1        1.0  0.1410730178422668  0.23310789673219995  0.1259486035252806  1.0000
  O   O2        1.0  0.3589221950007229  0.7331146900607522  0.3740537578940533  1.0000
  O   O3        1.0  0.8589390131214572  0.766889253854174  0.8740529004729536  1.0000
  O   O4        1.0  0.6410839052862157  0.26688990155714265  0.6259485941077187  1.0000
  O   O5        1.0  0.9865588428305614  0.23218614874497942  0.9804506278724218  1.0000
  O   O6        1.0  0.5134363216977249  0.7321783442461083  0.5195519169257281  1.0000
  O   O7        1.0  0.0134389761682527  0.7678281162213239  0.0195561977877503  1.0000
  O   O8        1.0  0.48656060213431834  0.26781582985444163  0.4804542142604689  1.0000
  O   O9        1.0  0.9048590943378088  0.9852225113095939  0.049795577235890696  1.0000
  O   O10       1.0  0.5951333734017651  0.4852209609507625  0.4502008528798171  1.0000
  O   O11       1.0  0.09513495865424912  0.014777615607471298  0.9502052991075941  1.0000
  O   O12       1.0  0.4048656409613047  0.5147776777710007  0.5497972124165642  1.0000
  O   O13       1.0  0.5924132691265385  0.7743265663525631  0.0915231862811154  1.0000
  O   O14       1.0  0.9075748922540825  0.27432792178087334  0.4084637322005307  1.0000
  O   O15       1.0  0.40757377235792097  0.2256810015786996  0.9084746720392829  1.0000
  O   O16       1.0  0.0924177454524155  0.7256714609937943  0.591527569216076  1.0000
