data_image0
_chemical_formula_structural       Zn4H68C84O24
_chemical_formula_sum              "Zn4 H68 C84 O24"
_cell_length_a       7.870060739301276
_cell_length_b       17.746994081959162
_cell_length_c       34.805266673516286
_cell_angle_alpha    89.93003790291262
_cell_angle_beta     90.14857172319894
_cell_angle_gamma    90.92977915560695

_space_group_name_H-M_alt    "P 1"
_space_group_IT_number       1

loop_
  _space_group_symop_operation_xyz
  'x, y, z'

loop_
  _atom_site_type_symbol
  _atom_site_label
  _atom_site_symmetry_multiplicity
  _atom_site_fract_x
  _atom_site_fract_y
  _atom_site_fract_z
  _atom_site_occupancy
  Zn  Zn1       1.0  0.5905731734913147  0.0024002778338499003  0.5001521184348832  1.0000
  Zn  Zn2       1.0  0.24973554170429677  0.9994855150149959  0.4991900717454172  1.0000
  Zn  Zn3       1.0  0.31932533113884887  0.9955649188142605  0.00011175245456489986  1.0000
  Zn  Zn4       1.0  0.660375548482605  0.999745200957385  0.9996360999487094  1.0000
  H   H1        1.0  0.4151285653835898  0.09228784342558075  0.752480502320111  1.0000
  H   H2        1.0  0.467067321291786  0.9221961393939753  0.7474964500050659  1.0000
  H   H3        1.0  0.4477703901314952  0.0747932830050573  0.24835841404268422  1.0000
  H   H4        1.0  0.48335150856554776  0.9037054276435018  0.2517056491425862  1.0000
  H   H5        1.0  0.618626859356105  0.7598781905218744  0.5013629288329611  1.0000
  H   H6        1.0  0.6059712835064345  0.6218947720873588  0.4993659576981031  1.0000
  H   H7        1.0  0.07206544938676268  0.7670602030162287  0.49530594580458853  1.0000
  H   H8        1.0  0.6099564837971413  0.23588070553789472  0.49681206468763145  1.0000
  H   H9        1.0  0.06254738210986231  0.236626417824418  0.49970339151274606  1.0000
  H   H10       1.0  0.06809182130401578  0.37483148290095875  0.49857661663595104  1.0000
  H   H11       1.0  0.2935406112438627  0.7550695546170163  0.0009571928231863997  1.0000
  H   H12       1.0  0.30497102939887805  0.617442156970917  0.0024250503732474995  1.0000
  H   H13       1.0  0.8407676231448773  0.769044930107221  0.004750160736499299  1.0000
  H   H14       1.0  0.2980867104295085  0.23031426009828243  0.0014046583946268  1.0000
  H   H15       1.0  0.8457007433165201  0.23981391889175546  0.00017048891347570005  1.0000
  H   H16       1.0  0.8390203684079792  0.3776387649727442  0.0015272338400861998  1.0000
  H   H17       1.0  0.07563221943370019  0.9160619870597129  0.8850786963958016  1.0000
  H   H18       1.0  0.25668506179160727  0.8834936644475635  0.9095434129355979  1.0000
  H   H19       1.0  0.20639477765050168  0.8482562619879703  0.8631506550824142  1.0000
  H   H20       1.0  0.23211599796450594  0.8635531790314703  0.7957027784974214  1.0000
  H   H21       1.0  0.16746677880493618  0.9448695813918067  0.7706100921349517  1.0000
  H   H22       1.0  0.0638961843187573  0.9174871126704716  0.8139045853945959  1.0000
  H   H23       1.0  0.7599237791246692  0.09592875731860324  0.8962466451159159  1.0000
  H   H24       1.0  0.5773300750330889  0.12802089566885405  0.9199400499296573  1.0000
  H   H25       1.0  0.6468764772216956  0.1732013916489947  0.8772785424055982  1.0000
  H   H26       1.0  0.6054043949499358  0.18519377607808002  0.8118284307889994  1.0000
  H   H27       1.0  0.6615853550958802  0.11523192170729862  0.7779374908990775  1.0000
  H   H28       1.0  0.7743023429097277  0.12367285727067673  0.82175118119563  1.0000
  H   H29       1.0  0.20915243758655316  0.12929730077455304  0.6987764475669991  1.0000
  H   H30       1.0  0.16166261764889356  0.041994721512395514  0.7210620644845918  1.0000
  H   H31       1.0  0.075719291723523  0.06318631112917218  0.6751116009334127  1.0000
  H   H32       1.0  0.12179785969175329  0.0675205775342747  0.6053142041825907  1.0000
  H   H33       1.0  0.29992327376758954  0.11591427229139846  0.5863761163611869  1.0000
  H   H34       1.0  0.21453155150930303  0.14372424381218  0.631146870103855  1.0000
  H   H35       1.0  0.6892694896932878  0.8510524461845322  0.7024323081458022  1.0000
  H   H36       1.0  0.7400573086312859  0.9357316722961075  0.7271558163558609  1.0000
  H   H37       1.0  0.848095409589298  0.9130958254017686  0.6842798836037359  1.0000
  H   H38       1.0  0.8544908221462604  0.9396983395673506  0.6112817471660676  1.0000
  H   H39       1.0  0.6905735124433786  0.8924943158514439  0.5860387418002162  1.0000
  H   H40       1.0  0.7587322976592787  0.8572874483444441  0.6310832149967424  1.0000
  H   H41       1.0  0.055986166644565585  0.06615389367284762  0.1129014155798274  1.0000
  H   H42       1.0  0.22001702691191122  0.10874205468314105  0.0858187110925002  1.0000
  H   H43       1.0  0.16272115608352777  0.147497973595172  0.1308298560735537  1.0000
  H   H44       1.0  0.22405841147028127  0.1534508395661476  0.1990482853656133  1.0000
  H   H45       1.0  0.18233124740403636  0.07289475486513203  0.2279843445208485  1.0000
  H   H46       1.0  0.06444015891128169  0.087519318124869  0.1853593004634604  1.0000
  H   H47       1.0  0.7800738703126908  0.9269817504172836  0.1058488192584548  1.0000
  H   H48       1.0  0.5980246250036172  0.8821407673980278  0.0864358244311134  1.0000
  H   H49       1.0  0.6802920133152169  0.8518525929336394  0.131192467824313  1.0000
  H   H50       1.0  0.6852901257146512  0.8644145971375894  0.1987881205777526  1.0000
  H   H51       1.0  0.7408234428302406  0.950221342394727  0.2216208870255372  1.0000
  H   H52       1.0  0.824844862519157  0.9286579253175947  0.1756640204881208  1.0000
  H   H53       1.0  0.29668275321850496  0.8524464702639993  0.279855299417946  1.0000
  H   H54       1.0  0.13333667529259685  0.8978895649664697  0.3048322999208395  1.0000
  H   H55       1.0  0.23226080669109442  0.8191118291403329  0.32563422046003143  1.0000
  H   H56       1.0  0.14034042533111799  0.8925960015489381  0.38960613554006335  1.0000
  H   H57       1.0  0.3088905152532107  0.8780619580835706  0.4220114372224161  1.0000
  H   H58       1.0  0.2841351521250458  0.8187700850217965  0.3814953918723276  1.0000
  H   H59       1.0  0.6885934072411998  0.12755618159977195  0.2952600791492941  1.0000
  H   H60       1.0  0.7462674323312867  0.045115919541743224  0.2704281931363681  1.0000
  H   H61       1.0  0.8527018139328886  0.07113233920878062  0.3136798139668215  1.0000
  H   H62       1.0  0.8395201030990831  0.07355944514416991  0.3860480843814358  1.0000
  H   H63       1.0  0.6589699997812415  0.11094152102662493  0.4084624276579447  1.0000
  H   H64       1.0  0.7183072908938042  0.14242020112627785  0.3619432251940609  1.0000
  H   H65       1.0  0.09294323373886466  0.5250122263692207  0.48156151637796535  1.0000
  H   H66       1.0  0.5798377524295615  0.4784558264897642  0.48786169689858383  1.0000
  H   H67       1.0  0.820932707766296  0.5253698383861972  0.0140559189724598  1.0000
  H   H68       1.0  0.32427632764292713  0.4739274976441621  0.008293260882069801  1.0000
  C   C1        1.0  0.35305179096877737  0.8568896794199362  0.5001190784020652  1.0000
  C   C2        1.0  0.4900530897038917  0.0029541941974855004  0.5721878297807308  1.0000
  C   C3        1.0  0.3403049118899516  0.14267610016123916  0.4987351903083593  1.0000
  C   C4        1.0  0.4900403691463636  0.9944131775658037  0.4273934461436326  1.0000
  C   C5        1.0  0.5593161671427678  0.8554451278338038  0.0010847054513618995  1.0000
  C   C6        1.0  0.4211242244005361  0.0016447135437403007  0.9275403765840765  1.0000
  C   C7        1.0  0.5687074753162803  0.14135688205376346  0.0002735344227176  1.0000
  C   C8        1.0  0.4184878248876415  0.9980948270830016  0.0723632727544157  1.0000
  C   C9        1.0  0.41810712499285063  0.009455479239513002  0.8848360091919787  1.0000
  C   C10       1.0  0.523451624967599  0.06515852730476011  0.8677345784441783  1.0000
  C   C11       1.0  0.5257484183649835  0.0711819979051498  0.8275203245984813  1.0000
  C   C12       1.0  0.4189752994746454  0.023912415849991906  0.8048827658602491  1.0000
  C   C13       1.0  0.31104050709033965  0.969453162853505  0.8224343671463217  1.0000
  C   C14       1.0  0.31384088399853016  0.9609447937494766  0.8627231959419177  1.0000
  C   C15       1.0  0.42376380186632895  0.03426629638027381  0.7628597705776415  1.0000
  C   C16       1.0  0.44722890105482077  0.9793987873734765  0.736810853228569  1.0000
  C   C17       1.0  0.5918784521010776  0.9528224776784459  0.6755368589474671  1.0000
  C   C18       1.0  0.45875544180022126  0.9896784304195099  0.6949157897169513  1.0000
  C   C19       1.0  0.3407009814439305  0.03340113634630632  0.674184199907053  1.0000
  C   C20       1.0  0.35953214098458364  0.0418399911780867  0.6341811437271048  1.0000
  C   C21       1.0  0.4870534922389351  0.0013569893234475002  0.615003687594907  1.0000
  C   C22       1.0  0.6028709538400533  0.9559235122064538  0.635265455672716  1.0000
  C   C23       1.0  0.420934690706808  0.9991553040934638  0.11519137536566859  1.0000
  C   C24       1.0  0.5445365995776754  0.9561759002200394  0.13445019621003954  1.0000
  C   C25       1.0  0.5631475446449982  0.9633334551816833  0.1745193573307517  1.0000
  C   C26       1.0  0.44890221775592914  0.008771163216614801  0.1952579403904267  1.0000
  C   C27       1.0  0.31987240429656777  0.04842806591127412  0.1757420186558676  1.0000
  C   C28       1.0  0.3087195286868791  0.04594863106508741  0.1354333323235366  1.0000
  C   C29       1.0  0.46142307864191406  0.017585614073944107  0.23724171232952782  1.0000
  C   C30       1.0  0.48104201564873944  0.961309754040187  0.2627844475568892  1.0000
  C   C31       1.0  0.6021206837800859  0.022877499182811803  0.3222969093836952  1.0000
  C   C32       1.0  0.4903204786458132  0.969731862216378  0.3048168544933247  1.0000
  C   C33       1.0  0.38306022657241096  0.9229275563698567  0.3275565663308839  1.0000
  C   C34       1.0  0.38589971183897376  0.9293135163528919  0.367832277260419  1.0000
  C   C35       1.0  0.4933406054543921  0.9846041750770741  0.3847800174859159  1.0000
  C   C36       1.0  0.6002821072255599  0.03172644888259411  0.3625203189728552  1.0000
  C   C37       1.0  0.3456625422396867  0.7727809803613539  0.499070319637866  1.0000
  C   C38       1.0  0.4955451745457963  0.7310757735206865  0.4999183582549449  1.0000
  C   C39       1.0  0.4876494775565944  0.652908936303682  0.49871441111346837  1.0000
  C   C40       1.0  0.32963538848709106  0.6143641251052543  0.49609595441244636  1.0000
  C   C41       1.0  0.17779866142811324  0.6567668210633785  0.4944641515926734  1.0000
  C   C42       1.0  0.18899785792800117  0.7352191709928422  0.4963804145305559  1.0000
  C   C43       1.0  0.33045266457138917  0.53441594239618  0.495580519373256  1.0000
  C   C44       1.0  0.33907244365450134  0.4653378968098353  0.4958945674098914  1.0000
  C   C45       1.0  0.3438610075458327  0.38546543895146373  0.49656969803233136  1.0000
  C   C46       1.0  0.49849648684517683  0.3449165797092989  0.4960665370602726  1.0000
  C   C47       1.0  0.4911570348582116  0.2664277169429853  0.4970369504240111  1.0000
  C   C48       1.0  0.33650411403646524  0.22678576467879455  0.4981662129138158  1.0000
  C   C49       1.0  0.1842185188504999  0.2666968764190259  0.49872513267828816  1.0000
  C   C50       1.0  0.1880208006911345  0.3450260286605842  0.4980526651632644  1.0000
  C   C51       1.0  0.5668548779791889  0.7714452786317738  0.0023801277421710994  1.0000
  C   C52       1.0  0.4164961471520882  0.7279011882218214  0.0019721495888945  1.0000
  C   C53       1.0  0.42371761461907187  0.649846791865322  0.0028573012200397  1.0000
  C   C54       1.0  0.58148711499026  0.6131330359733697  0.004477198992653101  1.0000
  C   C55       1.0  0.7340217639344927  0.6573680508398  0.0055010003996472006  1.0000
  C   C56       1.0  0.7233550860292507  0.7357912137230118  0.0041960590524112995  1.0000
  C   C57       1.0  0.5790149739116187  0.5331715326688595  0.0045153179236763  1.0000
  C   C58       1.0  0.5681772773276064  0.4640326840743328  0.0037758308492641  1.0000
  C   C59       1.0  0.5630108311350382  0.3841147140093498  0.0027261920939878003  1.0000
  C   C60       1.0  0.40854946877976767  0.34115229215342424  0.0025599454320329  1.0000
  C   C61       1.0  0.41661403109326045  0.26276030124275723  0.0015983248667552998  1.0000
  C   C62       1.0  0.5715889370527663  0.22555852189481843  0.0009522215093583001  1.0000
  C   C63       1.0  0.7236462333505924  0.2678146809065396  0.0008689198522660002  1.0000
  C   C64       1.0  0.7191744375681633  0.3460525087201775  0.0016815255848214995  1.0000
  C   C65       1.0  0.20841550097541267  0.8990273010210149  0.8811346771211178  1.0000
  C   C66       1.0  0.18748828435969492  0.921634735628651  0.7993873689862809  1.0000
  C   C67       1.0  0.6318804082772828  0.11834613812801824  0.8915125398622123  1.0000
  C   C68       1.0  0.6472942512924005  0.12655000966002922  0.8086775247086493  1.0000
  C   C69       1.0  0.1894216260788113  0.06861323440472941  0.693334443742323  1.0000
  C   C70       1.0  0.24360152533451893  0.09493487877016803  0.6131154167480943  1.0000
  C   C71       1.0  0.7238054914553657  0.9110560419410306  0.6984714441129825  1.0000
  C   C72       1.0  0.7328979179590716  0.908892399116887  0.6148743059686197  1.0000
  C   C73       1.0  0.18103126274334608  0.09467702580722911  0.11515511359371541  1.0000
  C   C74       1.0  0.19160648444930214  0.09277297313232681  0.1982276667113609  1.0000
  C   C75       1.0  0.6559251281604118  0.9015536268275142  0.1133434031545875  1.0000
  C   C76       1.0  0.7107350175435128  0.9248638369829365  0.1937118378063545  1.0000
  C   C77       1.0  0.2565890090506783  0.8700346974878318  0.30854919378624857  1.0000
  C   C78       1.0  0.2750677055819324  0.8771814903830377  0.3915966570430456  1.0000
  C   C79       1.0  0.7286182104207908  0.06880421619310083  0.29914504992589747  1.0000
  C   C80       1.0  0.7091892214730604  0.09280950434838081  0.3807154356947251  1.0000
  C   C81       1.0  0.0018956440478846075  0.624505041213155  0.489957613105851  1.0000
  C   C82       1.0  0.6736933709928079  0.3790482386580863  0.4945540135198101  1.0000
  C   C83       1.0  0.9103873289420789  0.6272713292800136  0.0082393522389523  1.0000
  C   C84       1.0  0.23273037274485375  0.37232614520200974  0.0032981135617121  1.0000
  O   O1        1.0  0.4981750815823104  0.8887834673749713  0.5014653786423295  1.0000
  O   O2        1.0  0.20948940168471344  0.8911492791939538  0.49899360216117117  1.0000
  O   O3        1.0  0.34839171854545725  0.9968701294454407  0.5546874337213197  1.0000
  O   O4        1.0  0.6346826336525807  0.009196706091287905  0.5547196356131892  1.0000
  O   O5        1.0  0.19674413003343713  0.10638844019911892  0.49972038410909647  1.0000
  O   O6        1.0  0.48494219657826676  0.11218210336966912  0.4982866243514438  1.0000
  O   O7        1.0  0.6334453958329431  0.9951090922612668  0.4456652144988383  1.0000
  O   O8        1.0  0.34651951923490276  0.0015037841490155004  0.44355386458164503  1.0000
  O   O9        1.0  0.4137037417445128  0.8848856258019498  0.9996944030881066  1.0000
  O   O10       1.0  0.7023317064840594  0.8921312251686618  0.0016440463041788999  1.0000
  O   O11       1.0  0.5647124656046002  0.9957266096448268  0.9439725481361165  1.0000
  O   O12       1.0  0.27753147260796135  0.0018567578657596008  0.9455413455643012  1.0000
  O   O13       1.0  0.7128068574677824  0.10754166574031396  0.9996309241488036  1.0000
  O   O14       1.0  0.4245065867965889  0.10839148092095033  0.00010159610748419995  1.0000
  O   O15       1.0  0.2738458387336776  0.9932415605013174  0.054629913113103605  1.0000
  O   O16       1.0  0.5605656294786739  0.002791242337103501  0.05514306187756551  1.0000
  O   O17       1.0  0.9829081173585333  0.5508347820881526  0.48142232744730507  1.0000
  O   O18       1.0  0.875893934327358  0.6636251366799969  0.4928956699359404  1.0000
  O   O19       1.0  0.6912987215294135  0.45392613039514645  0.4893605447838638  1.0000
  O   O20       1.0  0.8006741207695354  0.3404826398264548  0.4975578590092482  1.0000
  O   O21       1.0  0.9309513577873927  0.5527947130687354  0.013929520828362702  1.0000
  O   O22       1.0  0.0360189194090452  0.668577285617751  0.006025458505199301  1.0000
  O   O23       1.0  0.21339394138263396  0.4473189705661938  0.006878719287946901  1.0000
  O   O24       1.0  0.10635930672106747  0.33146252568344897  0.0009265448623168  1.0000
