data_image0
_chemical_formula_structural       Zn4H48C36N16O12
_chemical_formula_sum              "Zn4 H48 C36 N16 O12"
_cell_length_a       8.948110486
_cell_length_b       10.876746681466273
_cell_length_c       14.585
_cell_angle_alpha    96.58474243138654
_cell_angle_beta     90.0
_cell_angle_gamma    90.0

_space_group_name_H-M_alt    "P 1"
_space_group_IT_number       1

loop_
  _space_group_symop_operation_xyz
  'x, y, z'

loop_
  _atom_site_type_symbol
  _atom_site_label
  _atom_site_symmetry_multiplicity
  _atom_site_fract_x
  _atom_site_fract_y
  _atom_site_fract_z
  _atom_site_occupancy
  Zn  Zn1       1.0  0.2564921391606489  0.0622878501444148  0.28160846454647975  1.0000
  Zn  Zn2       1.0  0.7564915532268941  0.9377124779445367  0.7183919063286623  1.0000
  Zn  Zn3       1.0  0.7476449928135125  0.3660001200805567  0.1837071744787266  1.0000
  Zn  Zn4       1.0  0.24764446119289832  0.6339992825106364  0.8162924316147125  1.0000
  H   H1        1.0  0.12417481900099861  0.4194883375368974  0.7658644580951659  1.0000
  H   H2        1.0  0.6241742330672437  0.5805110650543028  0.23413514799828047  1.0000
  H   H3        1.0  0.1395803060270779  0.4975873913879952  0.6760413670016802  1.0000
  H   H4        1.0  0.6395808376476921  0.5024129367009564  0.3239583182375299  1.0000
  H   H5        1.0  0.5740720354355275  0.1681212953253137  0.2754296748312584  1.0000
  H   H6        1.0  0.0740715038149133  0.831879032763645  0.7245706960438767  1.0000
  H   H7        1.0  0.23779768961605902  0.1640935290801977  0.0730975739148576  1.0000
  H   H8        1.0  0.737797103682297  0.8359077245065123  0.9269028761060409  1.0000
  H   H9        1.0  0.5713507905382826  0.5115892469767616  0.0668246391587601  1.0000
  H   H10       1.0  0.0713513764720375  0.48841108111219717  0.9331750460804498  1.0000
  H   H11       1.0  0.3585650853350445  0.3202629463518889  0.9663231240165615  1.0000
  H   H12       1.0  0.8585644994012895  0.6797373817370698  0.033677246858573484  1.0000
  H   H13       1.0  0.5576004015380036  0.3218797909360376  0.967337634380655  1.0000
  H   H14       1.0  0.057599869917389405  0.6781205371529211  0.03266273649447981  1.0000
  H   H15       1.0  0.2606203850129774  0.5895411466842546  0.2964109728021355  1.0000
  H   H16       1.0  0.7606209166335915  0.4104601069024625  0.703589477218763  1.0000
  H   H17       1.0  0.1407850296407247  0.6318512022130989  0.21054685565501066  1.0000
  H   H18       1.0  0.6407844437069701  0.3681491258758598  0.7894528295841994  1.0000
  H   H19       1.0  0.1250040443454594  0.8648174979896339  0.1969651420384011  1.0000
  H   H20       1.0  0.6250034584116975  0.1351828300993176  0.8030352288367409  1.0000
  H   H21       1.0  0.3032617896533196  0.8664204601074061  0.16934288071140458  1.0000
  H   H22       1.0  0.803262321273934  0.1335798679815454  0.8306568045278055  1.0000
  H   H23       1.0  0.1861465616239357  0.7991571340131429  0.3463833200380435  1.0000
  H   H24       1.0  0.6861459756901809  0.20084319407580864  0.6536163652011594  1.0000
  H   H25       1.0  0.3772282433572087  0.80292576088587  0.3128653547584008  1.0000
  H   H26       1.0  0.8772287749778231  0.1970754927008471  0.6871350952624979  1.0000
  H   H27       1.0  0.24901570040805862  0.7232209684237247  0.6145812959328792  1.0000
  H   H28       1.0  0.749016232028673  0.2767775086697171  0.38541823101480327  1.0000
  H   H29       1.0  0.2413582178471074  0.4895087214538094  0.09995249197559988  1.0000
  H   H30       1.0  0.7413587494677288  0.5104916066351421  0.90004719326361  1.0000
  H   H31       1.0  0.6148046572074932  0.0352540606178309  0.5477985022911582  1.0000
  H   H32       1.0  0.11480412558687901  0.9647453419733694  0.4522017894382202  1.0000
  H   H33       1.0  0.2935670054711466  0.0460842353881148  0.6006225062633774  1.0000
  H   H34       1.0  0.7935653019830157  0.9539160927008369  0.3993764933399078  1.0000
  H   H35       1.0  0.3812246177935705  0.3650811008063428  0.7594825422829743  1.0000
  H   H36       1.0  0.8812240318598157  0.634917376287099  0.24051698466470833  1.0000
  H   H37       1.0  0.4057940506748423  0.44915609368425186  0.6637118049495427  1.0000
  H   H38       1.0  0.9057945822954636  0.5508442344046998  0.3362885659255923  1.0000
  H   H39       1.0  0.565053371648766  0.7727091845677023  0.8293845129303961  1.0000
  H   H40       1.0  0.0650528400281516  0.2272902180234908  0.17061509316305026  1.0000
  H   H41       1.0  0.19915824718393796  0.22279877740135842  0.6686005565372282  1.0000
  H   H42       1.0  0.6991587788045592  0.7772006251898418  0.33139767828436106  1.0000
  H   H43       1.0  0.2111015507637504  0.3154022321241001  0.5762440977065635  1.0000
  H   H44       1.0  0.7111009648299955  0.6845980959648514  0.42375490189671433  1.0000
  H   H45       1.0  0.3761777422469805  0.839232112455143  0.4941045485595693  1.0000
  H   H46       1.0  0.8761771563132188  0.1607682156338086  0.5058951366796336  1.0000
  H   H47       1.0  0.5728952506811922  0.8232867115734734  0.4952195200761551  1.0000
  H   H48       1.0  0.07289471906057803  0.1767126910177197  0.5047807716532233  1.0000
  C   C1        1.0  0.5120086533540373  0.1917853475131039  0.2158393658872768  1.0000
  C   C2        1.0  0.012008121733423104  0.8082159060736132  0.7841603984976969  1.0000
  C   C3        1.0  0.3401232030786545  0.1892420796726668  0.11055982327754069  1.0000
  C   C4        1.0  0.8401237346992687  0.8107582484162847  0.8894405475975944  1.0000
  C   C5        1.0  0.45134221423828086  0.268908001228958  0.089080530555556  1.0000
  C   C6        1.0  0.951342745858895  0.7310923268600007  0.9109191546836469  1.0000
  C   C7        1.0  0.4415680836956498  0.5482815311113427  0.9499240564896496  1.0000
  C   C8        1.0  0.9415686153162711  0.4517197224753744  0.050075707895317095  1.0000
  C   C9        1.0  0.46113981342272586  0.485537410571972  0.0381559011585253  1.0000
  C   C10       1.0  0.9611403450433471  0.5144629175169868  0.9618444697166169  1.0000
  C   C11       1.0  0.45736806741525277  0.3439038610957112  0.0098456804463183  1.0000
  C   C12       1.0  0.957367481481498  0.6560964669932403  0.9901546904288167  1.0000
  C   C13       1.0  0.2508596651228245  0.6520973911786427  0.24229813182093807  1.0000
  C   C14       1.0  0.7508590791890697  0.3479029369103088  0.7577022390541969  1.0000
  C   C15       1.0  0.2629773071847623  0.7848433856797571  0.28762959790469006  1.0000
  C   C16       1.0  0.7629767212510004  0.21515601691143624  0.7123706938246882  1.0000
  C   C17       1.0  0.46272562307742504  0.8277198458368248  0.6255190945161218  1.0000
  C   C18       1.0  0.9627250371436703  0.1722795567543756  0.37448051157732454  1.0000
  C   C19       1.0  0.3485719141353911  0.7550654952991351  0.652810199862479  1.0000
  C   C20       1.0  0.8485713282016363  0.244933907292058  0.3471900918668922  1.0000
  C   C21       1.0  0.4828147804790107  0.0263822391045849  0.42399215930454653  1.0000
  C   C22       1.0  0.9828119594365035  0.9736180889843737  0.5760082115705956  1.0000
  C   C23       1.0  0.5002106318426627  0.0090115716747832  0.5270846635546746  1.0000
  C   C24       1.0  0.00021010022204850004  0.9909887564141756  0.4729157073204604  1.0000
  C   C25       1.0  0.3752032348340819  0.6193366215222866  0.1725462386865289  1.0000
  C   C26       1.0  0.875201531345958  0.3806637065666649  0.8274541321886062  1.0000
  C   C27       1.0  0.3251803835628237  0.394146357912895  0.6984329761468757  1.0000
  C   C28       1.0  0.825180915183438  0.6058530446782981  0.3015666299465636  1.0000
  C   C29       1.0  0.5089163804050969  0.7825370452655066  0.7647892401620238  1.0000
  C   C30       1.0  0.0089169663388518  0.21746143182792818  0.23521028678565867  1.0000
  C   C31       1.0  0.274570816245955  0.2819334566824736  0.633409374895379  1.0000
  C   C32       1.0  0.7745702303121932  0.7180668714064851  0.36658962470790607  1.0000
  C   C33       1.0  0.4781221696685236  0.8698225898677521  0.5324572692870361  1.0000
  C   C34       1.0  0.9781215837347689  0.1301768127234411  0.467544393714192  1.0000
  C   C35       1.0  0.40512351805129754  0.2087913688260414  0.5887115643907279  1.0000
  C   C36       1.0  0.9051229321175357  0.7912089592629101  0.411288120848475  1.0000
  N   N1        1.0  0.1971634126288748  0.4732282903835525  0.7319493372372462  1.0000
  N   N2        1.0  0.69716282669512  0.5267711122076406  0.2680502688562001  1.0000
  N   N3        1.0  0.37886322540430234  0.7266110667132111  0.7406874564363404  1.0000
  N   N4        1.0  0.8788626394705403  0.2733883358779892  0.2593128352930307  1.0000
  N   N5        1.0  0.3789693930696956  0.1409079592335658  0.19088512621004125  1.0000
  N   N6        1.0  0.8789699246903098  0.8590923688553859  0.8091145590291686  1.0000
  N   N7        1.0  0.5600344349614943  0.2699547391938495  0.1569156734851305  1.0000
  N   N8        1.0  0.060035020895249105  0.7300455888951021  0.8430840117540794  1.0000
  N   N9        1.0  0.23019273211061633  0.8786666464482452  0.2237710082127009  1.0000
  N   N10       1.0  0.7301921461768615  0.1213327561429551  0.7762292835166704  1.0000
  N   N11       1.0  0.5644476571788248  0.8455319756974404  0.6977759643241868  1.0000
  N   N12       1.0  0.0644460080038414  0.1544674268937527  0.3022250130411166  1.0000
  N   N13       1.0  0.349070343385563  0.5246905932464756  0.1072011116068268  1.0000
  N   N14       1.0  0.849069757451808  0.4753097348424831  0.8927992592683083  1.0000
  N   N15       1.0  0.3948319598341641  0.0840203885101616  0.5848546924837237  1.0000
  N   N16       1.0  0.8948302563460331  0.9159799395787971  0.41514499275548633  1.0000
  O   O1        1.0  0.307331922678273  0.5850080586629858  0.935921842734885  1.0000
  O   O2        1.0  0.8073324542988871  0.4149922694259658  0.0640785281402501  1.0000
  O   O3        1.0  0.5493260289633853  0.5547887058515499  0.8959265365240938  1.0000
  O   O4        1.0  0.0493266148971401  0.4452106967396503  0.10407375520527747  1.0000
  O   O5        1.0  0.3488948873490685  0.0565923369384365  0.40195376353318574  1.0000
  O   O6        1.0  0.8488920663065684  0.9434052146572398  0.5980449986328081  1.0000
  O   O7        1.0  0.4973675735188081  0.6770367792776852  0.1798905916013567  1.0000
  O   O8        1.0  0.9973669875850462  0.3229635488112734  0.8201097792737784  1.0000
  O   O9        1.0  0.5903156882410414  0.0029541888452229  0.3701127635481711  1.0000
  O   O10       1.0  0.09031292151168203  0.9970461392437358  0.629887607326971  1.0000
  O   O11       1.0  0.5141331242163218  0.2619121636722497  0.5572789766762227  1.0000
  O   O12       1.0  0.0141314750413315  0.7380872389189506  0.44271994378129875  1.0000
