data_image0
_chemical_formula_structural       Zn2H14C20N2O10
_chemical_formula_sum              "Zn2 H14 C20 N2 O10"
_cell_length_a       8.249302647147704
_cell_length_b       9.283891075917104
_cell_length_c       10.870578574506473
_cell_angle_alpha    82.44282066818528
_cell_angle_beta     92.78363487463088
_cell_angle_gamma    89.85572086454086

_space_group_name_H-M_alt    "P 1"
_space_group_IT_number       1

loop_
  _space_group_symop_operation_xyz
  'x, y, z'

loop_
  _atom_site_type_symbol
  _atom_site_label
  _atom_site_symmetry_multiplicity
  _atom_site_fract_x
  _atom_site_fract_y
  _atom_site_fract_z
  _atom_site_occupancy
  Zn  Zn1       1.0  0.3413401094637507  0.5026795468243392  0.4903239453339765  1.0000
  Zn  Zn2       1.0  0.6590726380569834  0.49735850592238534  0.5097465900577447  1.0000
  H   H1        1.0  0.38087602031968976  0.8606930729069757  0.9589086265318443  1.0000
  H   H2        1.0  0.3401155967250276  0.21881695584132643  0.18820905945278096  1.0000
  H   H3        1.0  0.18640078936429919  0.35484877290825523  0.1675167180650874  1.0000
  H   H4        1.0  0.7867993183770211  0.7598556441862954  0.9499000400571589  1.0000
  H   H5        1.0  0.8132015407960012  0.6450783236636681  0.8325006642325902  1.0000
  H   H6        1.0  0.6595318033479955  0.7811386322891707  0.8118157432955257  1.0000
  H   H7        1.0  0.6186410981692774  0.1392748621567748  0.0411695809241905  1.0000
  H   H8        1.0  0.1025442335372944  0.6051194938742911  0.9784284096680267  1.0000
  H   H9        1.0  0.1747790739275104  0.6668305473162448  0.8287802105401242  1.0000
  H   H10       1.0  0.11741772075900772  0.4831967009268113  0.8653018548875551  1.0000
  H   H11       1.0  0.8970439091103016  0.39488639162984635  0.021603618363286604  1.0000
  H   H12       1.0  0.8821698808783935  0.516796369684009  0.1347142939859154  1.0000
  H   H13       1.0  0.8248394371616428  0.3331579638880696  0.1712523854141637  1.0000
  H   H14       1.0  0.21284313523732118  0.24007436371120147  0.05012060460607161  1.0000
  C   C1        1.0  0.49952489068567035  0.7803359096290166  0.4938122713355283  1.0000
  C   C2        1.0  0.5382721275624576  0.36364414901012043  0.9773202793988175  1.0000
  C   C3        1.0  0.5101656203985457  0.5067627809341105  0.1251862087305469  1.0000
  C   C4        1.0  0.48935174704874385  0.49322852172729625  0.8747984494796412  1.0000
  C   C5        1.0  0.5006158575233997  0.9353310852731624  0.49669973002492174  1.0000
  C   C6        1.0  0.5011325174992082  0.0647424752509309  0.5030855462487337  1.0000
  C   C7        1.0  0.4334676986127448  0.7885143742822506  0.0417936674175223  1.0000
  C   C8        1.0  0.5661665090382257  0.21146027547224122  0.9582362878368186  1.0000
  C   C9        1.0  0.17576542774148857  0.5749854515662349  0.9037178643843048  1.0000
  C   C10       1.0  0.823825225288573  0.4249998249050151  0.09631537873691799  1.0000
  C   C11       1.0  0.27658616068072217  0.29921558150181227  0.11902036934284865  1.0000
  C   C12       1.0  0.5023361293251796  0.21970967814713302  0.5061378445761022  1.0000
  C   C13       1.0  0.7230344836723005  0.7007316312308944  0.8810017026096375  1.0000
  C   C14       1.0  0.4897653830806803  0.4842269986139484  0.7392675265069639  1.0000
  C   C15       1.0  0.5095009033951641  0.5157746523436444  0.2607151696106556  1.0000
  C   C16       1.0  0.345170960374972  0.5354641135672581  0.9522416922324481  1.0000
  C   C17       1.0  0.6544033153512673  0.4645160595494815  0.04777404924285379  1.0000
  C   C18       1.0  0.39201909919778904  0.4064335938334552  0.057250126384438695  1.0000
  C   C19       1.0  0.6075446815419596  0.5935461493903134  0.9427433331382102  1.0000
  C   C20       1.0  0.46128247917094  0.6363344868448736  0.022687847550201888  1.0000
  N   N1        1.0  0.9345200496780706  0.4989139411647016  0.508511781722852  1.0000
  N   N2        1.0  0.06591059591828238  0.5011903264616462  0.4913846660397708  1.0000
  O   O1        1.0  0.36049035776444077  0.721773000568092  0.4865488158154747  1.0000
  O   O2        1.0  0.5300008839786656  0.1615873222195958  0.8615172647392839  1.0000
  O   O3        1.0  0.6413919630178171  0.27817680258988997  0.5137206629409617  1.0000
  O   O4        1.0  0.36412081959285564  0.2829788722818876  0.49847511598409255  1.0000
  O   O5        1.0  0.6377715383862324  0.7171193450655338  0.501336952136448  1.0000
  O   O6        1.0  0.35340113509603555  0.4864065204277352  0.678303494250251  1.0000
  O   O7        1.0  0.6457892228040977  0.5133543522307703  0.3217801962584872  1.0000
  O   O8        1.0  0.36959616947957125  0.5207016696414399  0.3058356892443612  1.0000
  O   O9        1.0  0.6296374515188958  0.47957896651934107  0.694029135082502  1.0000
  O   O10       1.0  0.4698297857045759  0.8384055917636176  0.1384807669633759  1.0000
