data_image0
_chemical_formula_structural       Zn4H60C56N8O20
_chemical_formula_sum              "Zn4 H60 C56 N8 O20"
_cell_length_a       8.303137036
_cell_length_b       10.748908183147687
_cell_length_c       16.3185
_cell_angle_alpha    90.0
_cell_angle_beta     90.0
_cell_angle_gamma    90.08681917885018

_space_group_name_H-M_alt    "P 1"
_space_group_IT_number       1

loop_
  _space_group_symop_operation_xyz
  'x, y, z'

loop_
  _atom_site_type_symbol
  _atom_site_label
  _atom_site_symmetry_multiplicity
  _atom_site_fract_x
  _atom_site_fract_y
  _atom_site_fract_z
  _atom_site_occupancy
  Zn  Zn1       1.0  0.5347606892180963  0.3979273836563877  0.0817470968532632  1.0000
  Zn  Zn2       1.0  0.9652395567306584  0.6020720727528968  0.5817464840518412  1.0000
  Zn  Zn3       1.0  0.4652381684049658  0.6020692817685501  0.9182522903453147  1.0000
  Zn  Zn4       1.0  0.0347605107313385  0.3979273836563877  0.4182522903453148  1.0000
  H   H1        1.0  0.1516552483438929  0.2968090905893064  0.9486944265710662  1.0000
  H   H2        1.0  0.348345837695625  0.7031866445075181  0.4486956521739104  1.0000
  H   H3        1.0  0.8483436111041271  0.7031885051637518  0.0513049606275118  1.0000
  H   H4        1.0  0.651659043572792  0.2968109512455328  0.5513061862303488  1.0000
  H   H5        1.0  0.2776307732619046  0.21097980975198283  0.8807482305358934  1.0000
  H   H6        1.0  0.2223691120634399  0.7890177860010752  0.3807482305358932  1.0000
  H   H7        1.0  0.7223692905501906  0.7890177860010752  0.119252995066951  1.0000
  H   H8        1.0  0.7776357692049771  0.21097980975198283  0.619253607868373  1.0000
  H   H9        1.0  0.3523440108335834  0.3463127798772163  0.9290173729203064  1.0000
  H   H10       1.0  0.14765467195262974  0.6536857462039479  0.42901798572172833  1.0000
  H   H11       1.0  0.6476560548034627  0.6536857462039479  0.0709838526825379  1.0000
  H   H12       1.0  0.8523490067766559  0.3463127798772163  0.5709838526825379  1.0000
  H   H13       1.0  0.3170692788570618  0.8269891279846108  0.0978754174709664  1.0000
  H   H14       1.0  0.1829269988508884  0.173011258752787  0.5978735790667002  1.0000
  H   H15       1.0  0.6829307867799841  0.1730093980965535  0.9021264209333  1.0000
  H   H16       1.0  0.8170718660719841  0.8269891279846108  0.4021251953304557  1.0000
  H   H17       1.0  0.45985622514388785  0.8097724759021077  0.23193798449612765  1.0000
  H   H18       1.0  0.04014486637048259  0.1902260501790565  0.7319373716947055  1.0000
  H   H19       1.0  0.540142636129076  0.1902260501790565  0.7680638539081386  1.0000
  H   H20       1.0  0.9598564054555965  0.8097734062302209  0.2680626283052945  1.0000
  H   H21       1.0  0.585906854979271  0.9949226558897665  0.2964518797683625  1.0000
  H   H22       1.0  0.9140933927944345  0.0050777308476313  0.7964512669669404  1.0000
  H   H23       1.0  0.4140895993904863  0.0050768005195181  0.7035505714373258  1.0000
  H   H24       1.0  0.0859090852206776  0.9949226558897665  0.2035487330330596  1.0000
  H   H25       1.0  0.573685325625533  0.20247754111575494  0.22999662959217915  1.0000
  H   H26       1.0  0.9263137159591394  0.7975219152935297  0.7299966295921791  1.0000
  H   H27       1.0  0.4263123349332574  0.7975228456216429  0.770004596010665  1.0000
  H   H28       1.0  0.0736887602310148  0.20247754111575494  0.270004596010665  1.0000
  H   H29       1.0  0.2936673312564082  0.9013046680798525  0.948019119404357  1.0000
  H   H30       1.0  0.2063325540689362  0.0986929276732056  0.4480203450072012  1.0000
  H   H31       1.0  0.706332732555687  0.0986929276732056  0.0519790421913768  1.0000
  H   H32       1.0  0.7936663072040346  0.9013055984079658  0.551980880595643  1.0000
  H   H33       1.0  0.2079638539893125  0.0320721314110131  0.9001305267028243  1.0000
  H   H34       1.0  0.2920384455390419  0.9679282553263846  0.4001317523056684  1.0000
  H   H35       1.0  0.7920422389429902  0.9679291856544978  0.0998682476943316  1.0000
  H   H36       1.0  0.7079628281119881  0.0320721314110131  0.5998694732971759  1.0000
  H   H37       1.0  0.9994639636479122  0.8844917783989389  0.9438214296657179  1.0000
  H   H38       1.0  0.5005338717477343  0.1155067476822325  0.44382694487850943  1.0000
  H   H39       1.0  0.0005348994500095999  0.1155076780103457  0.056169991114380514  1.0000
  H   H40       1.0  0.4994637888110561  0.8844936390551652  0.556177344731438  1.0000
  H   H41       1.0  0.0679615019855007  0.8861747419576318  0.0455881361644757  1.0000
  H   H42       1.0  0.4320323688192431  0.1138265751078791  0.54559242577443  1.0000
  H   H43       1.0  0.9320313392920169  0.11382471445165271  0.9544051230198889  1.0000
  H   H44       1.0  0.5679628848363336  0.8861747419576318  0.4544112510341023  1.0000
  H   H45       1.0  0.7908043234564062  0.5953402185181105  0.8624456904740045  1.0000
  H   H46       1.0  0.709193513764184  0.404659237891174  0.3624444648711602  1.0000
  H   H47       1.0  0.2091921363881966  0.4046620288755208  0.13755676073168396  1.0000
  H   H48       1.0  0.2908089642509282  0.5953411488462237  0.6375530839231516  1.0000
  H   H49       1.0  0.9863884553918395  0.357849778822164  0.8263719091828321  1.0000
  H   H50       1.0  0.5136142011100304  0.6421506079152337  0.3263725219842541  1.0000
  H   H51       1.0  0.0136152397620108  0.6421571202120333  0.17362809081716793  1.0000
  H   H52       1.0  0.48638224595992335  0.3578451271815908  0.6736256396114868  1.0000
  H   H53       1.0  0.8096408492360395  0.3118273773378135  0.0627196127095004  1.0000
  H   H54       1.0  0.690361810915725  0.6881748700558106  0.5627159359009681  1.0000
  H   H55       1.0  0.1903616306040163  0.6881739397276974  0.9372834512976098  1.0000
  H   H56       1.0  0.3096382601961736  0.3118264470097003  0.4372810000919217  1.0000
  H   H57       1.0  0.8179900315930624  0.341568106494492  0.1614229249011885  1.0000
  H   H58       1.0  0.6820102198305449  0.6584341408991393  0.6614198608940782  1.0000
  H   H59       1.0  0.1820076326156226  0.6584341408991393  0.8385795263044997  1.0000
  H   H60       1.0  0.31798864691727863  0.3415671761663788  0.3385770750988115  1.0000
  C   C1        1.0  0.2758682520573998  0.2647350985220598  0.93780800931458  1.0000
  C   C2        1.0  0.2241304307288132  0.7352634275591045  0.4378086221160018  1.0000
  C   C3        1.0  0.7241294030265379  0.7352624972309911  0.0621926034868423  1.0000
  C   C4        1.0  0.7758744523645548  0.2647350985220598  0.5621926034868425  1.0000
  C   C5        1.0  0.3331227643122432  0.1893440991267425  0.0079155559640895  1.0000
  C   C6        1.0  0.1668771210131013  0.8106534966263155  0.5079155559640895  1.0000
  C   C7        1.0  0.6668748907716946  0.8106534966263155  0.9920862824401766  1.0000
  C   C8        1.0  0.8331277602553157  0.1893440991267425  0.4920856696387546  1.0000
  C   C9        1.0  0.4375944281879995  0.1324015062372013  0.1263032754236022  1.0000
  C   C10       1.0  0.0624042582481152  0.8675988805001964  0.6263032754236022  1.0000
  C   C11       1.0  0.5624068436380795  0.8675979501720832  0.8736973373778198  1.0000
  C   C12       1.0  0.9375958110388326  0.1324015062372013  0.3736973373778198  1.0000
  C   C13       1.0  0.3665568325296674  0.025885449451180906  0.0904519410485065  1.0000
  C   C14       1.0  0.1334394451782828  0.9741149372862169  0.5904501026442404  1.0000
  C   C15       1.0  0.6334420269183525  0.9741121463018703  0.9095492845543376  1.0000
  C   C16       1.0  0.8665594197445827  0.025885449451180906  0.4095486717529156  1.0000
  C   C17       1.0  0.3717319803719406  0.9081490920164655  0.126731623617367  1.0000
  C   C18       1.0  0.1282630947968855  0.0918522250490454  0.6267291724116788  1.0000
  C   C19       1.0  0.6282668809010303  0.09184943406470582  0.8732702147868994  1.0000
  C   C20       1.0  0.8717333632227735  0.9081490920164655  0.3732683763826331  1.0000
  C   C21       1.0  0.4513003886536922  0.9000077906885694  0.20175628887459143  1.0000
  C   C22       1.0  0.048695890879209  0.0999935263769416  0.7017544504703255  1.0000
  C   C23       1.0  0.5486984762691732  0.0999925960488284  0.7982455495296747  1.0000
  C   C24       1.0  0.9513017696795744  0.9000068603604561  0.2982449367282527  1.0000
  C   C25       1.0  0.5223082429874778  0.0053363620633959  0.23841835953059135  1.0000
  C   C26       1.0  0.9776920047862278  0.994664024674002  0.7384171339277544  1.0000
  C   C27       1.0  0.47769062193538764  0.994664024674002  0.761583478873668  1.0000
  C   C28       1.0  0.0223104732288846  0.0053363620633959  0.2615822532708307  1.0000
  C   C29       1.0  0.5171661536095441  0.1222674420885639  0.2016545638385878  1.0000
  C   C30       1.0  0.982831683611046  0.8777320143207207  0.701654563838588  1.0000
  C   C31       1.0  0.4828327094883704  0.8777320143207207  0.7983466617642563  1.0000
  C   C32       1.0  0.017169588215033102  0.1222674420885639  0.2983460489628342  1.0000
  C   C33       1.0  0.2185892481453706  0.983354025788934  0.9588779605968654  1.0000
  C   C34       1.0  0.2814094364657933  0.0166454306203505  0.4588797990011316  1.0000
  C   C35       1.0  0.7814120236807084  0.0166454306203505  0.04111958819744641  1.0000
  C   C36       1.0  0.7185894266321284  0.983354025788934  0.5411214266017128  1.0000
  C   C37       1.0  0.0539178055143097  0.9447016836257589  0.9908453595612344  1.0000
  C   C38       1.0  0.44608088092179804  0.05529870311163881  0.4908484235683446  1.0000
  C   C39       1.0  0.9460798532195226  0.0552977727835255  0.009149125225967204  1.0000
  C   C40       1.0  0.5539179840010676  0.9447016836257589  0.5091534148359218  1.0000
  C   C41       1.0  0.7763093686742124  0.4293492157155329  0.9419628029537039  1.0000
  C   C42       1.0  0.7236908754495914  0.5706493103656385  0.4419634157551258  1.0000
  C   C43       1.0  0.2236894980736039  0.5706521013499781  0.0580378098477183  1.0000
  C   C44       1.0  0.2763079858233723  0.4293492157155329  0.5580359714434522  1.0000
  C   C45       1.0  0.8391875617181128  0.5021808824685223  0.8719024420136634  1.0000
  C   C46       1.0  0.6608126842306418  0.49781857394075507  0.3719024420136634  1.0000
  C   C47       1.0  0.1608101043155301  0.49782229525321503  0.12809878358918075  1.0000
  C   C48       1.0  0.33918738140640414  0.5021799521404091  0.6280963323834925  1.0000
  C   C49       1.0  0.9445870453434608  0.4534540171560195  0.8186438704537764  1.0000
  C   C50       1.0  0.5554144086192778  0.5465472999094914  0.3186438704537764  1.0000
  C   C51       1.0  0.05541183235406069  0.5465528818781779  0.18135735514906065  1.0000
  C   C52       1.0  0.4445868632068013  0.45345215649979315  0.6813530655391133  1.0000
  C   C53       1.0  0.00045277596092319994  0.5242919907601546  0.7453148267304002  1.0000
  C   C54       1.0  0.4995471221390702  0.475712117289703  0.2453148267304002  1.0000
  C   C55       1.0  0.9995497184787397  0.4757167689302761  0.2546863988724439  1.0000
  C   C56       1.0  0.5004517391338935  0.5242864087914683  0.754683947666756  1.0000
  N   N1        1.0  0.30285656126225996  0.06505133273343232  0.01608297331249991  1.0000
  N   N2        1.0  0.19714332406307727  0.9349462630196258  0.5160823605110778  1.0000
  N   N3        1.0  0.6971435007248843  0.9349453326915054  0.9839176394889223  1.0000
  N   N4        1.0  0.8028579459380509  0.0650522630615455  0.4839176394889223  1.0000
  N   N5        1.0  0.4157167847486321  0.23290299176452586  0.07274259276281472  1.0000
  N   N6        1.0  0.0842831042266141  0.7670964646447518  0.5727425927628149  1.0000
  N   N7        1.0  0.5842808739852074  0.7670964646447518  0.9272580200386076  1.0000
  N   N8        1.0  0.9157205763276295  0.23290299176452586  0.4272586328400294  1.0000
  O   O1        1.0  0.6450412073086441  0.47125026365370815  0.9764586205839978  1.0000
  O   O2        1.0  0.854955425547871  0.5287491927555763  0.4764598461868417  1.0000
  O   O3        1.0  0.3549564477752938  0.5287473320993428  0.02354076661458041  1.0000
  O   O4        1.0  0.1450422350109193  0.4712511939818215  0.5235389282103144  1.0000
  O   O5        1.0  0.8490494064356184  0.33298769029666897  0.9653289211630991  1.0000
  O   O6        1.0  0.6509544526053759  0.6670117661126156  0.4653270827588329  1.0000
  O   O7        1.0  0.1509542814184215  0.6670154874250755  0.0346735300425891  1.0000
  O   O8        1.0  0.349045614856621  0.33298769029666897  0.5346704660354789  1.0000
  O   O9        1.0  0.0862727071042002  0.6197417946270463  0.7543015595796163  1.0000
  O   O10       1.0  0.4137259884566618  0.38026324375092463  0.2542984955725132  1.0000
  O   O11       1.0  0.9137297836855608  0.380265104407151  0.24570150442748684  1.0000
  O   O12       1.0  0.5862776884476731  0.6197343520021336  0.7456978276189616  1.0000
  O   O13       1.0  0.9514646004345622  0.4820206722325011  0.6758164046940607  1.0000
  O   O14       1.0  0.5485356564638977  0.5179843661454697  0.1758164046940607  1.0000
  O   O15       1.0  0.0485391001941338  0.5179890177860358  0.3241848209087834  1.0000
  O   O16       1.0  0.4514607997308103  0.48201602059192794  0.8241823697030952  1.0000
  O   O17       1.0  0.7493458882117138  0.3076939295261525  0.115783313417289  1.0000
  O   O18       1.0  0.7506555694009193  0.6923092481955848  0.6157796366087567  1.0000
  O   O19       1.0  0.2506541810752339  0.6923064572112452  0.8842191377883994  1.0000
  O   O20       1.0  0.2493445035359301  0.30769299919803933  0.38421668658271113  1.0000
