data_image0
_chemical_formula_structural       Y2H32C16Cl6O4
_chemical_formula_sum              "Y2 H32 C16 Cl6 O4"
_cell_length_a       8.102070239772612
_cell_length_b       8.40428585894578
_cell_length_c       9.748302963329028
_cell_angle_alpha    81.14893088130322
_cell_angle_beta     69.2959292099209
_cell_angle_gamma    82.07658517957162

_space_group_name_H-M_alt    "P 1"
_space_group_IT_number       1

loop_
  _space_group_symop_operation_xyz
  'x, y, z'

loop_
  _atom_site_type_symbol
  _atom_site_label
  _atom_site_symmetry_multiplicity
  _atom_site_fract_x
  _atom_site_fract_y
  _atom_site_fract_z
  _atom_site_occupancy
  Y   Y1        1.0  0.9992124762332677  0.7606181186490847  0.927154342337957  1.0000
  Y   Y2        1.0  0.0007851658099866932  0.23937862042593852  0.0728436780926387  1.0000
  H   H1        1.0  0.6640236549076517  0.7623496933455701  0.7775503744590111  1.0000
  H   H2        1.0  0.33597328115462227  0.2376388943187281  0.2224395195635935  1.0000
  H   H3        1.0  0.7087408743773267  0.9702011843561141  0.7494641212641753  1.0000
  H   H4        1.0  0.2912560246867741  0.029787130520013208  0.2505350491570084  1.0000
  H   H5        1.0  0.8056162727455812  0.9685945904401195  0.478983832002541  1.0000
  H   H6        1.0  0.1943978223729985  0.031412643766252316  0.5210062059398055  1.0000
  H   H7        1.0  0.631223345958382  0.8390843699008104  0.5407200746798823  1.0000
  H   H8        1.0  0.3687679946090157  0.1609093682213684  0.4592647116007953  1.0000
  H   H9        1.0  0.8407427541366771  0.5980071595431796  0.539405984664768  1.0000
  H   H10       1.0  0.15926469852169584  0.4019807026246341  0.46059633611491085  1.0000
  H   H11       1.0  0.9617187578365504  0.7175668458991641  0.3764185131308365  1.0000
  H   H12       1.0  0.03830115995576479  0.28243327590910655  0.623561392104051  1.0000
  H   H13       1.0  0.10026095084425174  0.6161732976007531  0.6010060589628595  1.0000
  H   H14       1.0  0.8997369230282216  0.38381969535433325  0.3989964146339133  1.0000
  H   H15       1.0  0.1345120477223318  0.811955850266699  0.5003020645958145  1.0000
  H   H16       1.0  0.8654976398238073  0.18803801596644126  0.4996979164588353  1.0000
  H   H17       1.0  0.7737824039084912  0.8312599170847008  0.24387219787181633  1.0000
  H   H18       1.0  0.22623574860478604  0.16870743988701523  0.7561200636672184  1.0000
  H   H19       1.0  0.5782216392242533  0.9373389873701615  0.21975213227187135  1.0000
  H   H20       1.0  0.4218084975604127  0.0626636701048184  0.7802522379291618  1.0000
  H   H21       1.0  0.4551733097579812  0.7381914201167137  0.43895789242522915  1.0000
  H   H22       1.0  0.544821057246743  0.2618327798493638  0.5610503433037195  1.0000
  H   H23       1.0  0.6241978157369347  0.5865381731887995  0.359694132880108  1.0000
  H   H24       1.0  0.3757786245668768  0.4134587741775421  0.6403212931854227  1.0000
  H   H25       1.0  0.39903260591067624  0.5190235882449418  0.2788594272555542  1.0000
  H   H26       1.0  0.6009516418423926  0.4809951745105181  0.7211410550974194  1.0000
  H   H27       1.0  0.3051966580920577  0.722338050549098  0.2657572989483938  1.0000
  H   H28       1.0  0.6948084796245909  0.27770297298999946  0.7342387671538686  1.0000
  H   H29       1.0  0.4798033648828265  0.7520849778701478  0.018350974638764204  1.0000
  H   H30       1.0  0.5201943498568369  0.2479297911328474  0.9816470763634939  1.0000
  H   H31       1.0  0.6054433230765708  0.5607850009501334  0.03600787956029443  1.0000
  H   H32       1.0  0.39454454588918253  0.4392190733307544  0.9639972884491498  1.0000
  C   C1        1.0  0.750190392932552  0.8536463450987882  0.7046078210171346  1.0000
  C   C2        1.0  0.24980689114326537  0.14633571614085383  0.2953991149180055  1.0000
  C   C3        1.0  0.7606004247129615  0.8550149488589229  0.5460836394054313  1.0000
  C   C4        1.0  0.23940145300507956  0.14497821531575994  0.4539084200775534  1.0000
  C   C5        1.0  0.9000773668878633  0.7133855246124982  0.4965992338413942  1.0000
  C   C6        1.0  0.09992732913215718  0.28660521588221866  0.5033902259577872  1.0000
  C   C7        1.0  0.03378922290758616  0.7307881193515018  0.5689074170031105  1.0000
  C   C8        1.0  0.9662094561471047  0.26921193795991627  0.43109917026529143  1.0000
  C   C9        1.0  0.6504895306611898  0.817152576422686  0.22625887486742619  1.0000
  C   C10       1.0  0.3495108263718834  0.18284279571697942  0.7737415893266757  1.0000
  C   C11       1.0  0.5383347332532721  0.6916811808659633  0.33476804639542473  1.0000
  C   C12       1.0  0.46165428836881245  0.30832524583610177  0.6652375528716591  1.0000
  C   C13       1.0  0.42998934643731695  0.6452037428536955  0.24799712744491126  1.0000
  C   C14       1.0  0.5699973598109053  0.3548172172275629  0.752007529771106  1.0000
  C   C15       1.0  0.5485441075298212  0.6728803235654015  0.08584219758486705  1.0000
  C   C16       1.0  0.4514522684837415  0.32713435805460034  0.9141603554996041  1.0000
  Cl  Cl1       1.0  0.8877516381512007  0.08139852560711351  0.8962779002663339  1.0000
  Cl  Cl2       1.0  0.11224779394385813  0.9185907176816459  0.10372761654726761  1.0000
  Cl  Cl3       1.0  0.9331945950039894  0.4701894162413398  0.8677073522995401  1.0000
  Cl  Cl4       1.0  0.06680168775862678  0.5298070839017086  0.13230032376803544  1.0000
  Cl  Cl5       1.0  0.31796757550058874  0.7475098448014494  0.7500317904796747  1.0000
  Cl  Cl6       1.0  0.6820305283617072  0.2524987008748453  0.24997299532558503  1.0000
  O   O1        1.0  0.931791547580495  0.8068813396899588  0.7036437845515594  1.0000
  O   O2        1.0  0.06821039288006861  0.19310865015264517  0.2963742629201747  1.0000
  O   O3        1.0  0.6992726467438144  0.7537723313844186  0.08425721310027962  1.0000
  O   O4        1.0  0.3007327717008151  0.2462266817602129  0.9157362502630805  1.0000
