data_image0
_chemical_formula_structural       Cu2H16C24Br2N4
_chemical_formula_sum              "Cu2 H16 C24 Br2 N4"
_cell_length_a       3.9588009180231367
_cell_length_b       9.897791820504404
_cell_length_c       12.828123024668317
_cell_angle_alpha    89.97031587405874
_cell_angle_beta     89.81393515224632
_cell_angle_gamma    78.46804878289277

_space_group_name_H-M_alt    "P 1"
_space_group_IT_number       1

loop_
  _space_group_symop_operation_xyz
  'x, y, z'

loop_
  _atom_site_type_symbol
  _atom_site_label
  _atom_site_symmetry_multiplicity
  _atom_site_fract_x
  _atom_site_fract_y
  _atom_site_fract_z
  _atom_site_occupancy
  Cu  Cu1       1.0  0.5375530968585878  0.343734818777648  0.1832664077396515  1.0000
  Cu  Cu2       1.0  0.8841370725721946  0.6565980163258303  0.6835082021694348  1.0000
  H   H1        1.0  0.8853434985935351  0.002977332666198201  0.5608832137623027  1.0000
  H   H2        1.0  0.8906146432687696  0.9967397430077084  0.061594321754569095  1.0000
  H   H3        1.0  0.14916008578813947  0.9307058660475606  0.3915902768882731  1.0000
  H   H4        1.0  0.08209990549399751  0.06933400156987803  0.8924457762906144  1.0000
  H   H5        1.0  0.003156276596392592  0.08692458408341963  0.2355980764189312  1.0000
  H   H6        1.0  0.09245630031718126  0.9134499818975145  0.7362169107253109  1.0000
  H   H7        1.0  0.11582800997262407  0.431622525525377  0.33172253908845317  1.0000
  H   H8        1.0  0.5488938458561208  0.568710071041764  0.8318563349980721  1.0000
  H   H9        1.0  0.8766083655248524  0.5393695939514204  0.5010510282823262  1.0000
  H   H10       1.0  0.4155642311426321  0.46111180223002907  0.0010076149590930008  1.0000
  H   H11       1.0  0.07400271820827692  0.44456513928020797  0.8475822289666368  1.0000
  H   H12       1.0  0.5168869363692605  0.5553587936676723  0.3476932763742653  1.0000
  H   H13       1.0  0.454592610822914  0.21600766694094625  0.8618752217032438  1.0000
  H   H14       1.0  0.6713917027710253  0.783466175098191  0.3623293370411531  1.0000
  H   H15       1.0  0.6907413506606872  0.09129860341177931  0.6989075222219155  1.0000
  H   H16       1.0  0.7845638546675956  0.9081387584331396  0.1995463874635988  1.0000
  C   C1        1.0  0.8089567300916158  0.0679221302438862  0.49301739223908214  1.0000
  C   C2        1.0  0.8790339587248044  0.9319336425676428  0.9936247971407113  1.0000
  C   C3        1.0  0.9579624806860424  0.0261923807195288  0.39758905205643913  1.0000
  C   C4        1.0  0.986238323909355  0.973863513493079  0.8982621198574137  1.0000
  C   C5        1.0  0.8700837308445704  0.11009085358090691  0.3101535403959019  1.0000
  C   C6        1.0  0.9824087147359891  0.890121033989381  0.8106990422377933  1.0000
  C   C7        1.0  0.20615808885061435  0.3872840754268126  0.4070160614606735  1.0000
  C   C8        1.0  0.5951309237726153  0.6128724524064355  0.9072052199463769  1.0000
  C   C9        1.0  0.074259999175446  0.4450976268261187  0.4987806173008593  1.0000
  C   C10       1.0  0.5201321206842807  0.555121814969965  0.998881834393714  1.0000
  C   C11       1.0  0.17262818975042651  0.38923908710319216  0.776913933533102  1.0000
  C   C12       1.0  0.5613455907634731  0.6106216765331426  0.2771220356548838  1.0000
  C   C13       1.0  0.3882198720920444  0.2592037962221596  0.7846477825143269  1.0000
  C   C14       1.0  0.6483528810537534  0.7403969926144216  0.2850369390552672  1.0000
  C   C15       1.0  0.5174649773813585  0.19130054775975222  0.6944528889790007  1.0000
  C   C16       1.0  0.7105004128863186  0.8083013046664294  0.19493357590989296  1.0000
  C   C17       1.0  0.4253410019949656  0.25329644041585203  0.5970843875670795  1.0000
  C   C18       1.0  0.680296876127784  0.7465127603773568  0.09746605158672139  1.0000
  C   C19       1.0  0.5684376421303342  0.19332847146897345  0.49959310902970333  1.0000
  C   C20       1.0  0.7638677150564638  0.8065583481191112  3.9259021626499695e-05  1.0000
  C   C21       1.0  0.471234817416132  0.26645582202989715  0.4052810446384285  1.0000
  C   C22       1.0  0.7398909883438733  0.7335767727266147  0.9056148996952444  1.0000
  C   C23       1.0  0.19294188549723404  0.38343827445980594  0.5959033831149227  1.0000
  C   C24       1.0  0.5770666459999064  0.6165697116527298  0.0961150394863211  1.0000
  Br  Br1       1.0  0.10393802229792468  0.2578310205103521  0.0771373844197285  1.0000
  Br  Br2       1.0  0.3646436259473447  0.7425061251403948  0.5773174909132736  1.0000
  N   N1        1.0  0.6283535582296124  0.22603800340652216  0.3118877889710774  1.0000
  N   N2        1.0  0.856772758444272  0.7741231723799943  0.8122732359494692  1.0000
  N   N3        1.0  0.07703882935481228  0.4524440343154483  0.6861830921761153  1.0000
  N   N4        1.0  0.5286912439271704  0.547643748358297  0.1862902962227153  1.0000
