data_image0
_chemical_formula_structural       Cd2H38C58N8O8
_chemical_formula_sum              "Cd2 H38 C58 N8 O8"
_cell_length_a       8.637117472401641
_cell_length_b       10.237388116971637
_cell_length_c       14.428774640621167
_cell_angle_alpha    84.96314970837724
_cell_angle_beta     77.15207852403462
_cell_angle_gamma    71.33972935693131

_space_group_name_H-M_alt    "P 1"
_space_group_IT_number       1

loop_
  _space_group_symop_operation_xyz
  'x, y, z'

loop_
  _atom_site_type_symbol
  _atom_site_label
  _atom_site_symmetry_multiplicity
  _atom_site_fract_x
  _atom_site_fract_y
  _atom_site_fract_z
  _atom_site_occupancy
  Cd  Cd1       1.0  0.15553445963929152  0.8337916882992288  0.4455762797651986  1.0000
  Cd  Cd2       1.0  0.8444639790634981  0.16620954239105856  0.5544233813585893  1.0000
  H   H1        1.0  0.161571855160986  0.30376041502928786  0.4424605511277947  1.0000
  H   H2        1.0  0.8384288910074961  0.696237709876463  0.5575390127129367  1.0000
  H   H3        1.0  0.08587481814280556  0.6108352281911208  0.22072673419418015  1.0000
  H   H4        1.0  0.9141239855727009  0.38916497836230945  0.7792736398138944  1.0000
  H   H5        1.0  0.4084114652514259  0.891541861496087  0.2308156413916365  1.0000
  H   H6        1.0  0.5915904662837477  0.10845625779680289  0.7691844605441889  1.0000
  H   H7        1.0  0.15720132482233148  0.6154983587759872  0.07033043603218661  1.0000
  H   H8        1.0  0.8428022541860115  0.3845017906246184  0.9296686228174738  1.0000
  H   H9        1.0  0.8403101324422906  0.6843953051062924  0.3434410848671022  1.0000
  H   H10       1.0  0.15968909955363136  0.31560697186908726  0.6565611754985243  1.0000
  H   H11       1.0  0.2619998409922104  0.6302591831363457  0.6480080422170932  1.0000
  H   H12       1.0  0.7379989694885084  0.3697410164768087  0.3519916382832308  1.0000
  H   H13       1.0  0.06768319154989651  0.20305777238485226  0.18157300977587457  1.0000
  H   H14       1.0  0.9323191953265424  0.7969423895688903  0.8184262044864569  1.0000
  H   H15       1.0  0.5626711097303315  0.6378782483054196  0.46123364871244404  1.0000
  H   H16       1.0  0.43732774372244876  0.3621250666873621  0.5387692857844046  1.0000
  H   H17       1.0  0.9236726537173329  0.8675300430479208  0.2721763931096604  1.0000
  H   H18       1.0  0.07632853426198949  0.13247013839922767  0.7278236700730931  1.0000
  H   H19       1.0  0.0884729819191322  0.9679912046871023  0.14777128801480904  1.0000
  H   H20       1.0  0.9115281427924843  0.0320058822012399  0.8522276016946935  1.0000
  H   H21       1.0  0.778932509714231  0.949386813906706  0.9534218644879576  1.0000
  H   H22       1.0  0.22106778111299258  0.05060926833819219  0.046578587026274904  1.0000
  H   H23       1.0  0.5180456675105918  0.35297560492913493  0.8771246228217893  1.0000
  H   H24       1.0  0.4819574764521236  0.647022480989797  0.12287324317809124  1.0000
  H   H25       1.0  0.6151739012973042  0.84450229644581  0.08007096973766177  1.0000
  H   H26       1.0  0.38482802347266454  0.15549582978735538  0.9199298257059286  1.0000
  H   H27       1.0  0.9014825864339213  0.31221066619442434  0.08697115037742262  1.0000
  H   H28       1.0  0.09851822976747118  0.6877905463298644  0.9130288934287879  1.0000
  H   H29       1.0  0.40596492031284  0.8589569251749438  0.8523970218333264  1.0000
  H   H30       1.0  0.5940354473124998  0.1410422377482163  0.14760321613862712  1.0000
  H   H31       1.0  0.3502173941438116  0.0025918691950864  0.5410061827478005  1.0000
  H   H32       1.0  0.6497774749284702  0.9974093922143296  0.4589932511062146  1.0000
  H   H33       1.0  0.45618432434442  0.7398560652637087  0.0018122024329940798  1.0000
  H   H34       1.0  0.5438148646794402  0.26014309633203675  0.9981868039361006  1.0000
  H   H35       1.0  0.4766627716799619  0.472058845655269  0.7264741038714677  1.0000
  H   H36       1.0  0.5233384365949972  0.5279413149710593  0.2735238787879979  1.0000
  H   H37       1.0  0.5088311241654679  0.9094244492803226  0.6936468816196355  1.0000
  H   H38       1.0  0.4911661291706295  0.09057678702282598  0.3063522414090515  1.0000
  C   C1        1.0  0.13802284979631452  0.33369594607874825  0.3713847545999089  1.0000
  C   C2        1.0  0.8619787167261495  0.6663031973509986  0.6286146344516157  1.0000
  C   C3        1.0  0.09576499808837019  0.5053403122789177  0.24527996344009761  1.0000
  C   C4        1.0  0.9042346259811183  0.49466091279850133  0.7547202357787769  1.0000
  C   C5        1.0  0.12779769289319634  0.4670560224691229  0.3363146232996003  1.0000
  C   C6        1.0  0.8722026747321509  0.5329431404540299  0.6636856146723533  1.0000
  C   C7        1.0  0.487282650919262  0.8242919574114396  0.2757045514320495  1.0000
  C   C8        1.0  0.5127189088379822  0.17570719295858336  0.7242955311272399  1.0000
  C   C9        1.0  0.08629344254404724  0.5649430551297738  0.04064339606996011  1.0000
  C   C10       1.0  0.9137101364642957  0.43505709427082445  0.9593556627797002  1.0000
  C   C11       1.0  0.7107839564379362  0.7160790418124706  0.33677219926639884  1.0000
  C   C12       1.0  0.28921527555797877  0.2839232351629093  0.6632300610992206  1.0000
  C   C13       1.0  0.30667322885631176  0.7191561934625239  0.6384771898598489  1.0000
  C   C14       1.0  0.6933243894924954  0.2808440187037676  0.3615226460531319  1.0000
  C   C15       1.0  0.08408899580371104  0.27929133911567305  0.22349512307550165  1.0000
  C   C16       1.0  0.9159121989408234  0.720708835391207  0.7765042465994869  1.0000
  C   C17       1.0  0.07295658301696055  0.41297607756255417  0.18704827362376622  1.0000
  C   C18       1.0  0.9270449699750717  0.5870230797477445  0.8129525024432811  1.0000
  C   C19       1.0  0.5707624491472529  0.6967625054958333  0.39503994862069913  1.0000
  C   C20       1.0  0.429237603202651  0.3032407900035423  0.6049621369557203  1.0000
  C   C21       1.0  0.03572454137714948  0.4570318829419263  0.09181506004167521  1.0000
  C   C22       1.0  0.964277838734077  0.5429682859520923  0.9081848477284142  1.0000
  C   C23       1.0  0.1150800007748884  0.2398733711299172  0.31480564285983803  1.0000
  C   C24       1.0  0.8849215657475683  0.7601257722998298  0.6851937461916863  1.0000
  C   C25       1.0  0.8918980383603454  0.8845753183142194  0.2022309252346376  1.0000
  C   C26       1.0  0.10810196425227762  0.11542486874579788  0.7977685998530222  1.0000
  C   C27       1.0  0.9864798304011797  0.9418400343999166  0.12946687212928512  1.0000
  C   C28       1.0  0.013522107899206005  0.0581580779526973  0.8705325362987825  1.0000
  C   C29       1.0  0.8122971052724214  0.9332594793468018  0.022971421191066075  1.0000
  C   C30       1.0  0.1877040059087705  0.06673762142209232  0.9770288555339592  1.0000
  C   C31       1.0  0.7563341089441522  0.85075527725661  0.1851867406560715  1.0000
  C   C32       1.0  0.24366663045911718  0.14924285458941705  0.8148135166924179  1.0000
  C   C33       1.0  0.49378496609318734  0.46418746010698436  0.8737107616754403  1.0000
  C   C34       1.0  0.5062150365194356  0.5358127269530328  0.12628876341221232  1.0000
  C   C35       1.0  0.7174127179207801  0.8745223250277687  0.09487712422566838  1.0000
  C   C36       1.0  0.28258959215754226  0.1254747562477121  0.9051223035789351  1.0000
  C   C37       1.0  0.9478843016551013  0.3934456908887114  0.0489438837510079  1.0000
  C   C38       1.0  0.05211770667820301  0.6065555090824334  0.9510560046425385  1.0000
  C   C39       1.0  0.9493879167608275  0.9687565769574531  0.03818757166820314  1.0000
  C   C40       1.0  0.05061282940765473  0.031241547948297893  0.9618119921725212  1.0000
  C   C41       1.0  0.4341477364499158  0.7473630734923302  0.8575309224276213  1.0000
  C   C42       1.0  0.5658510672655908  0.2526371330610999  0.14246945158046032  1.0000
  C   C43       1.0  0.1460822627876226  0.5720585798306317  0.39624646673594555  1.0000
  C   C44       1.0  0.8539169127058129  0.42794059564565856  0.6037539266486718  1.0000
  C   C45       1.0  0.12218924194945663  0.0970813467503291  0.35116910751948194  1.0000
  C   C46       1.0  0.8778119595602832  0.9029188208162752  0.6488295686477485  1.0000
  C   C47       1.0  0.3559242705173559  0.911553261083604  0.5862754903223788  1.0000
  C   C48       1.0  0.6440709568024232  0.08844698312923778  0.41372534992369486  1.0000
  C   C49       1.0  0.48908449459668185  0.5356415419624482  0.9539037959190256  1.0000
  C   C50       1.0  0.5109143091188245  0.46435866459097497  0.046096578089056095  1.0000
  C   C51       1.0  0.4611021748311189  0.6786705769591136  0.9426218369864474  1.0000
  C   C52       1.0  0.5388981995594335  0.32132857902377043  0.057377707477748244  1.0000
  C   C53       1.0  0.4687602469910244  0.5309549980854059  0.7876367395846489  1.0000
  C   C54       1.0  0.5312393838436691  0.46904622005174446  0.21236276612647492  1.0000
  C   C55       1.0  0.43654971481180377  0.6736935396515378  0.7799173725046133  1.0000
  C   C56       1.0  0.5634487171257732  0.32630769797902553  0.2200829821269323  1.0000
  C   C57       1.0  0.4323163611510098  0.8682292417762978  0.6620138504206851  1.0000
  C   C58       1.0  0.5676796932879571  0.13177201402026376  0.3379861215284309  1.0000
  N   N1        1.0  0.2778294287307476  0.8179882667406202  0.5729096462599799  1.0000
  N   N2        1.0  0.7221673692640778  0.18201092690167536  0.42709036444220777  1.0000
  N   N3        1.0  0.6569038648766181  0.7964222512638912  0.26040946078639854  1.0000
  N   N4        1.0  0.3430961174403749  0.20357795661694666  0.7395921448245348  1.0000
  N   N5        1.0  0.43250392440837276  0.7658011059081318  0.3566331631901677  1.0000
  N   N6        1.0  0.5674960579086132  0.23419910197270602  0.6433684424207656  1.0000
  N   N7        1.0  0.3998913076580807  0.7462550411474351  0.6951392468237219  1.0000
  N   N8        1.0  0.6001063039255143  0.2537451779591322  0.30486128259702383  1.0000
  O   O1        1.0  0.1356965592597987  0.0051354397616307996  0.294530014379511  1.0000
  O   O2        1.0  0.8643073915264808  0.9948636785618415  0.7054690638466924  1.0000
  O   O3        1.0  0.06343090765310688  0.6985505613963311  0.3775525982311693  1.0000
  O   O4        1.0  0.9365675175192578  0.301450683174501  0.6224484499081343  1.0000
  O   O5        1.0  0.2350111092773304  0.5368530818515751  0.45740564006139556  1.0000
  O   O6        1.0  0.7649880526856805  0.46314610750527396  0.5425961403387449  1.0000
  O   O7        1.0  0.11603196884315284  0.07247963366781109  0.4414599308443315  1.0000
  O   O8        1.0  0.8839660280487962  0.9275195404810714  0.5585392309374344  1.0000
