data_image0
_chemical_formula_structural       Mo8H40C28N24O24
_chemical_formula_sum              "Mo8 H40 C28 N24 O24"
_cell_length_a       9.346593442000025
_cell_length_b       11.71689847300003
_cell_length_c       11.939449129000057
_cell_angle_alpha    90.00000774059117
_cell_angle_beta     90.00000792819382
_cell_angle_gamma    89.99999729070882

_space_group_name_H-M_alt    "P 1"
_space_group_IT_number       1

loop_
  _space_group_symop_operation_xyz
  'x, y, z'

loop_
  _atom_site_type_symbol
  _atom_site_label
  _atom_site_symmetry_multiplicity
  _atom_site_fract_x
  _atom_site_fract_y
  _atom_site_fract_z
  _atom_site_occupancy
  Mo  Mo1       1.0  0.37314779121300035  0.0744318658792977  0.8640214625401299  1.0000
  Mo  Mo2       1.0  0.12685263928951684  0.9255683397006111  0.36402188791790735  1.0000
  Mo  Mo3       1.0  0.6268530247275665  0.5744310570622062  0.6359783248120578  1.0000
  Mo  Mo4       1.0  0.8731480668217277  0.4255690982041644  0.1359778729503773  1.0000
  Mo  Mo5       1.0  0.3729337469996139  0.09530594265296342  0.1687582310494662  1.0000
  Mo  Mo6       1.0  0.12706664873962842  0.9046950894643402  0.6687587266393962  1.0000
  Mo  Mo7       1.0  0.6270669786872889  0.595305160758585  0.3312414861136332  1.0000
  Mo  Mo8       1.0  0.8729330777168303  0.404694167970476  0.8312419419774884  1.0000
  H   H1        1.0  0.2835108343992446  0.7649234696978983  0.8622785419217892  1.0000
  H   H2        1.0  0.2164895957929646  0.2350767356416199  0.3622788855635619  1.0000
  H   H3        1.0  0.7164899702502369  0.26492338088332457  0.6377204330794584  1.0000
  H   H4        1.0  0.7835111216092944  0.7350767746233801  0.1377208500960805  1.0000
  H   H5        1.0  0.36072286452611024  0.7803276705332037  0.21167064080908918  1.0000
  H   H6        1.0  0.13927753885281655  0.2196725140342934  0.7116693719410422  1.0000
  H   H7        1.0  0.6392767802855206  0.2803284588715442  0.2883299383983839  1.0000
  H   H8        1.0  0.8607232684789212  0.7196717174073228  0.7883304346314758  1.0000
  H   H9        1.0  0.48484622640221886  0.3985039688381349  0.8058353883949465  1.0000
  H   H10       1.0  0.015155263649717199  0.6014962287166412  0.3058349213149612  1.0000
  H   H11       1.0  0.5151545703296989  0.8985040257279665  0.6941652794027676  1.0000
  H   H12       1.0  0.9848454616702541  0.10149613756360054  0.19416479666737269  1.0000
  H   H13       1.0  0.47453225079557637  0.39557396821806645  0.1597084251166692  1.0000
  H   H14       1.0  0.02546814333252461  0.604426209182904  0.6597088700445752  1.0000
  H   H15       1.0  0.5254673871850954  0.8955740448727316  0.3402921693418079  1.0000
  H   H16       1.0  0.9745316009217435  0.1044252851045613  0.8402917588364076  1.0000
  H   H17       1.0  0.2332100948409704  0.595201884640183  0.1297112289853288  1.0000
  H   H18       1.0  0.2667902939465706  0.4047982886235034  0.6297108358884316  1.0000
  H   H19       1.0  0.7667906308520573  0.0952026794721164  0.3702884881641069  1.0000
  H   H20       1.0  0.7332094325036637  0.9047983615786849  0.8702889951825981  1.0000
  H   H21       1.0  0.4107100551608199  0.5801509667206731  0.0827300080031321  1.0000
  H   H22       1.0  0.08929032526263112  0.41984834659521675  0.5827304353686955  1.0000
  H   H23       1.0  0.5892906714242515  0.08015177472810821  0.4172688695949702  1.0000
  H   H24       1.0  0.9107094002955237  0.9198492728022533  0.9172693976940277  1.0000
  H   H25       1.0  0.3034828241957541  0.5668394804767658  0.8790891882227284  1.0000
  H   H26       1.0  0.19651760898923246  0.4331607271812246  0.3790887183704043  1.0000
  H   H27       1.0  0.6965179921948207  0.06683939009712962  0.6209105981247731  1.0000
  H   H28       1.0  0.8034830966720109  0.9331607630911594  0.12091104350255931  1.0000
  H   H29       1.0  0.1343035448874943  0.5557597642827192  0.9445050942829879  1.0000
  H   H30       1.0  0.36569689994367144  0.444240452397466  0.444504644090884  1.0000
  H   H31       1.0  0.8656972721598071  0.055759658498885804  0.5554946905982803  1.0000
  H   H32       1.0  0.6343027351523178  0.94424048566723  0.05549511924825619  1.0000
  H   H33       1.0  0.22866619307585279  0.3862677487670255  0.0572187581331463  1.0000
  H   H34       1.0  0.2713341828057595  0.6137315610303418  0.5572192307336152  1.0000
  H   H35       1.0  0.7713334454563495  0.8862678302821864  0.44278099753421424  1.0000
  H   H36       1.0  0.7286655608969073  0.11373236729865252  0.9427813993789017  1.0000
  H   H37       1.0  0.23019302907930955  0.36364577996763364  0.9095151977060779  1.0000
  H   H38       1.0  0.26980740952261334  0.6363535784186142  0.40951560018457656  1.0000
  H   H39       1.0  0.7698077697186606  0.8636466664196623  0.5904846279191744  1.0000
  H   H40       1.0  0.7301933137313412  0.136353482572261  0.090484959970162  1.0000
  C   C1        1.0  0.31031953876224355  0.7965077718125144  0.9453753440810287  1.0000
  C   C2        1.0  0.18967983631532803  0.2034924449877167  0.4453748431003887  1.0000
  C   C3        1.0  0.6896801941066714  0.2965085260167584  0.5546244726594907  1.0000
  C   C4        1.0  0.8103198130505053  0.7034924714975123  0.0546248883795002  1.0000
  C   C5        1.0  0.34927055520770983  0.8061612930819212  0.1251138846490676  1.0000
  C   C6        1.0  0.15072983276147772  0.19383973301598448  0.6251151262727532  1.0000
  C   C7        1.0  0.6507301579811158  0.30616038598969203  0.3748850228578604  1.0000
  C   C8        1.0  0.8492699061929871  0.6938389487587101  0.8748855144407274  1.0000
  C   C9        1.0  0.5194106990190337  0.39461642660063495  0.8923854467732042  1.0000
  C   C10       1.0  0.9805893682707139  0.6053829105614313  0.3923858678212966  1.0000
  C   C11       1.0  0.4805890280346859  0.8946173263254735  0.6076143829504659  1.0000
  C   C12       1.0  0.019410286910478206  0.10538369735891003  0.10761552579454302  1.0000
  C   C13       1.0  0.5147929010466897  0.3940949012365424  0.07460986115919609  1.0000
  C   C14       1.0  0.9852081795770503  0.605904392097699  0.5746095181648272  1.0000
  C   C15       1.0  0.48520887683854863  0.8940949911466591  0.4253890579844963  1.0000
  C   C16       1.0  0.014791564589408807  0.10590522289709982  0.9253894357927308  1.0000
  C   C17       1.0  0.30378874364894415  0.6089256466409978  0.05747004477928639  1.0000
  C   C18       1.0  0.19621163227739663  0.3910736631910225  0.5574704798355724  1.0000
  C   C19       1.0  0.6962119812305617  0.10892645409887788  0.44252883662669257  1.0000
  C   C20       1.0  0.803788094986338  0.8910737434471727  0.9425293494192175  1.0000
  C   C21       1.0  0.2491614362716774  0.542330441207156  0.9573097104321774  1.0000
  C   C22       1.0  0.2508390108391296  0.45766977723904745  0.4573092496651156  1.0000
  C   C23       1.0  0.7508393815716233  0.042330337990122806  0.542690072671931  1.0000
  C   C24       1.0  0.7491606234608669  0.9576698044099745  0.042690515451191395  1.0000
  C   C25       1.0  0.2750735564226332  0.4147446306165962  0.9776582133838474  1.0000
  C   C26       1.0  0.2249258244023977  0.5852564441043384  0.4776586042736993  1.0000
  C   C27       1.0  0.7249261694380138  0.9147438024269621  0.5223407814437877  1.0000
  C   C28       1.0  0.7750738319717245  0.08525548369842542  0.022341949119017098  1.0000
  N   N1        1.0  0.337337937849192  0.9043229942369069  0.9713179231039959  1.0000
  N   N2        1.0  0.16266251175555624  0.09567637267313961  0.47131740495007074  1.0000
  N   N3        1.0  0.6626628585378003  0.4043237458824009  0.5286827454638185  1.0000
  N   N4        1.0  0.8373382139093694  0.5956763945857163  0.028682312262105804  1.0000
  N   N5        1.0  0.3610823385897533  0.9102075957019976  0.0841496906619028  1.0000
  N   N6        1.0  0.13891697217788856  0.08979257127789  0.5841500796867152  1.0000
  N   N7        1.0  0.6389172985234383  0.41020840164159017  0.4158500681735688  1.0000
  N   N8        1.0  0.8610827729436609  0.5897926456930309  0.9158497096982215  1.0000
  N   N9        1.0  0.31684055258045873  0.7325496574546406  0.0406543699697934  1.0000
  N   N10       1.0  0.18315982035204573  0.2674505035262699  0.5406539497032198  1.0000
  N   N11       1.0  0.6831612348800891  0.23255046772413832  0.4593453653555386  1.0000
  N   N12       1.0  0.8168388443307039  0.7674497321412517  0.9593458631918637  1.0000
  N   N13       1.0  0.6527298636551891  0.39450718263333334  0.9282639936706615  1.0000
  N   N14       1.0  0.8472712799306168  0.6054930129452744  0.4282644003958254  1.0000
  N   N15       1.0  0.3472709333135598  0.8945072289708237  0.571735836038556  1.0000
  N   N16       1.0  0.15272944515245263  0.10549293629685509  0.0717353181154223  1.0000
  N   N17       1.0  0.6502219192955466  0.3940351537384288  0.0431251662591023  1.0000
  N   N18       1.0  0.849779155722928  0.6059649887216666  0.5431256462678746  1.0000
  N   N19       1.0  0.34977771877625946  0.8940352530998509  0.4568745904361506  1.0000
  N   N20       1.0  0.15022058844010644  0.10596496528644651  0.9568749828167994  1.0000
  N   N21       1.0  0.4296122146364852  0.39383892496289274  0.9819925911377254  1.0000
  N   N22       1.0  0.07038823686868062  0.606161296887585  0.48199213061504753  1.0000
  N   N23       1.0  0.5703885823718765  0.8938389554733777  0.518007238483058  1.0000
  N   N24       1.0  0.9296114182662549  0.10616118352244541  0.0180075879845774  1.0000
  O   O1        1.0  0.4239170135604695  0.12025365939764751  0.014671561917346298  1.0000
  O   O2        1.0  0.07608335474632362  0.8797464979997687  0.5146720487229004  1.0000
  O   O3        1.0  0.5760826407392444  0.6202537541464965  0.4853289961067802  1.0000
  O   O4        1.0  0.9239174430974091  0.37974644930250895  0.9853286165925467  1.0000
  O   O5        1.0  0.5379297503678587  0.022712541664113  0.8213176552237725  1.0000
  O   O6        1.0  0.9620703042694745  0.9772876391644307  0.3213181234960132  1.0000
  O   O7        1.0  0.4620699987297173  0.5227125984210661  0.6786821252841619  1.0000
  O   O8        1.0  0.037929328867790005  0.47728758159676954  0.1786824817759864  1.0000
  O   O9        1.0  0.358181901213932  0.20652995955718728  0.800646687282473  1.0000
  O   O10       1.0  0.14181851800572082  0.7934702372819873  0.300646259229012  1.0000
  O   O11       1.0  0.6418189068968446  0.7065300123844482  0.6993539551104746  1.0000
  O   O12       1.0  0.8581821959352639  0.29346929815442735  0.1993518090388733  1.0000
  O   O13       1.0  0.24910042165296892  0.9864266208129209  0.7700255547694183  1.0000
  O   O14       1.0  0.250899992115258  0.013573571803078704  0.27002671035887  1.0000
  O   O15       1.0  0.750899299958846  0.48642654342386765  0.7299734495442606  1.0000
  O   O16       1.0  0.7491007384162388  0.5135727713382539  0.2299738335478096  1.0000
  O   O17       1.0  0.5386882611172086  0.0583465037268027  0.2221183208101394  1.0000
  O   O18       1.0  0.9613117758593221  0.94165366342007  0.7221180196770689  1.0000
  O   O19       1.0  0.4613124667604681  0.5583457207258462  0.2778822290215359  1.0000
  O   O20       1.0  0.038687948406391115  0.4416536195054591  0.77788181627119  1.0000
  O   O21       1.0  0.3453868122971003  0.2337026393380839  0.2157511940904087  1.0000
  O   O22       1.0  0.15461359180837775  0.7662975457922698  0.715750836768528  1.0000
  O   O23       1.0  0.6546139051867075  0.7337018499233213  0.2842493789469173  1.0000
  O   O24       1.0  0.8453861428512044  0.26629747232451  0.7842489759740799  1.0000
