data_image0
_chemical_formula_structural       Zn4H32C48N16Cl8O4
_chemical_formula_sum              "Zn4 H32 C48 N16 Cl8 O4"
_cell_length_a       7.327750224287242
_cell_length_b       11.74172816000494
_cell_length_c       16.151205479149976
_cell_angle_alpha    90.0001031176083
_cell_angle_beta     100.57058209137163
_cell_angle_gamma    89.9999628110161

_space_group_name_H-M_alt    "P 1"
_space_group_IT_number       1

loop_
  _space_group_symop_operation_xyz
  'x, y, z'

loop_
  _atom_site_type_symbol
  _atom_site_label
  _atom_site_symmetry_multiplicity
  _atom_site_fract_x
  _atom_site_fract_y
  _atom_site_fract_z
  _atom_site_occupancy
  Zn  Zn1       1.0  0.23579482287437506  0.758509032436152  0.5132977699602108  1.0000
  Zn  Zn2       1.0  0.735798121435721  0.7414869695189097  0.01329854350703389  1.0000
  Zn  Zn3       1.0  0.7642034054856879  0.24149130150147616  0.4867022709970215  1.0000
  Zn  Zn4       1.0  0.2642070657984235  0.2585108094263476  0.9867008582560217  1.0000
  H   H1        1.0  0.318102923958527  0.9904415769260454  0.4501577655469688  1.0000
  H   H2        1.0  0.8180945683115654  0.5095495069968123  0.9501626895347569  1.0000
  H   H3        1.0  0.6819022989681612  0.0095553503527626  0.5498391626420229  1.0000
  H   H4        1.0  0.18190226292084324  0.49044742028815597  0.04983785029485689  1.0000
  H   H5        1.0  0.15132515724980064  0.14020464130896937  0.3555846930156433  1.0000
  H   H6        1.0  0.6513152673218984  0.35978782407649856  0.8555874688588573  1.0000
  H   H7        1.0  0.8486814538825626  0.8597914343063098  0.6444123546916457  1.0000
  H   H8        1.0  0.34868016678176167  0.6402099548727592  0.1444135698458453  1.0000
  H   H9        1.0  0.8202386791826298  0.10532880381673952  0.28642620744348324  1.0000
  H   H10       1.0  0.3202325067761862  0.3946710871020187  0.7864272230192242  1.0000
  H   H11       1.0  0.17976652589679532  0.8946723817805377  0.7135719575349739  1.0000
  H   H12       1.0  0.6797643155322604  0.605329246837272  0.213573935205936  1.0000
  H   H13       1.0  0.8549130434391472  0.7800456475939086  0.41406159047576807  1.0000
  H   H14       1.0  0.35491950909498365  0.719956403921444  0.9140597493989375  1.0000
  H   H15       1.0  0.14508096676519944  0.21995809300226915  0.585941802287401  1.0000
  H   H16       1.0  0.6450842720864499  0.28004563334242505  0.08594076963474608  1.0000
  H   H17       1.0  0.9813032325852046  0.8997066033404978  0.18723420107646396  1.0000
  H   H18       1.0  0.4812916601337561  0.6002956889875011  0.6872343645958521  1.0000
  H   H19       1.0  0.018699133621758797  0.10029458226240712  0.8127680536179794  1.0000
  H   H20       1.0  0.5186996271992612  0.3997037932874151  0.31276507876664533  1.0000
  H   H21       1.0  0.7565607800863958  0.017872959056418804  0.08556357720674868  1.0000
  H   H22       1.0  0.25655319193213444  0.4821281658908846  0.5855633475830544  1.0000
  H   H23       1.0  0.2434429832486558  0.9821299298723646  0.9144381786142333  1.0000
  H   H24       1.0  0.7434422510946065  0.5178696130576128  0.41443707272826197  1.0000
  H   H25       1.0  0.42200421157498613  0.10737012256353042  0.12450586498312079  1.0000
  H   H26       1.0  0.921998451373774  0.3926335859085769  0.6245102778902875  1.0000
  H   H27       1.0  0.5780010470451273  0.8926225463952735  0.87548858962964  1.0000
  H   H28       1.0  0.0779998037539755  0.6073727096704858  0.37548790789059433  1.0000
  H   H29       1.0  0.8812832903709306  0.176792374784867  0.0080241948889892  1.0000
  H   H30       1.0  0.38128131966905693  0.3232085080913763  0.5080254782333568  1.0000
  H   H31       1.0  0.11872048188764239  0.8232088108163683  0.9919769425375335  1.0000
  H   H32       1.0  0.6187182879740406  0.6767892708567161  0.491975300634479  1.0000
  C   C1        1.0  0.17427259367265435  0.9785208354780013  0.4190702981445611  1.0000
  C   C2        1.0  0.6742684410698985  0.5214736371158394  0.9190725038684348  1.0000
  C   C3        1.0  0.8257270407392382  0.02147864679457001  0.5809286255442174  1.0000
  C   C4        1.0  0.32572838123943626  0.47852329016989625  0.0809286543545653  1.0000
  C   C5        1.0  0.0807384409559901  0.06136959517277773  0.36592819752680583  1.0000
  C   C6        1.0  0.5807340629346455  0.4386271828292012  0.8659315516014914  1.0000
  C   C7        1.0  0.9192653937645829  0.9386298870963331  0.6340686111449614  1.0000
  C   C8        1.0  0.4192669329136863  0.5613714477821433  0.13406934678572208  1.0000
  C   C9        1.0  0.897845251035875  0.04150688741383141  0.32737775210770786  1.0000
  C   C10       1.0  0.3978404604817598  0.45849222115555943  0.8273771131020878  1.0000
  C   C11       1.0  0.1021557626577305  0.9584951498495329  0.6726219094949143  1.0000
  C   C12       1.0  0.6021591382380437  0.5415064094566804  0.17262428415967426  1.0000
  C   C13       1.0  0.8132565998401092  0.9382573728342579  0.3428906573969215  1.0000
  C   C14       1.0  0.3132533944751045  0.56174366852634  0.8428902522662511  1.0000
  C   C15       1.0  0.18674439600712128  0.061745516094028105  0.657110240992999  1.0000
  C   C16       1.0  0.686743418910268  0.43825666541371805  0.1571115243522883  1.0000
  C   C17       1.0  0.9158002899929726  0.8600006261046219  0.3980721160258582  1.0000
  C   C18       1.0  0.4158026146825692  0.6399979544943976  0.8980710516009154  1.0000
  C   C19       1.0  0.0841979205204879  0.14000141116131465  0.6019291617192195  1.0000
  C   C20       1.0  0.5841984168576388  0.3600023794406653  0.10192737321386147  1.0000
  C   C21       1.0  0.6225863756056711  0.9129059007969432  0.3049124068597209  1.0000
  C   C22       1.0  0.12258314816013889  0.5870968280302051  0.8049126523304366  1.0000
  C   C23       1.0  0.3774132052664213  0.08709869146055385  0.695090227192587  1.0000
  C   C24       1.0  0.877412277020447  0.4129009509198199  0.1950890047676381  1.0000
  C   C25       1.0  0.3564501690213646  0.938818569112698  0.22684302393726336  1.0000
  C   C26       1.0  0.8564446165293161  0.5611838718140376  0.7268445421924028  1.0000
  C   C27       1.0  0.6435522150319812  0.06118176482528532  0.7731579939698818  1.0000
  C   C28       1.0  0.14355220577913025  0.4388164621252529  0.2731566160327574  1.0000
  C   C29       1.0  0.2183643035169851  0.9983012490698118  0.1665756194756369  1.0000
  C   C30       1.0  0.7183559965608877  0.501703654576211  0.6665774415202462  1.0000
  C   C31       1.0  0.781638107306257  0.0016965298757157005  0.8334235432497364  1.0000
  C   C32       1.0  0.28163805825906973  0.49829923435275  0.3334228592754727  1.0000
  C   C33       1.0  0.028693717663671202  0.9713444225492651  0.1539117921242692  1.0000
  C   C34       1.0  0.528689561334417  0.5286579722560774  0.6539140069702042  1.0000
  C   C35       1.0  0.9713031581830336  0.028656763048829203  0.8460856557411489  1.0000
  C   C36       1.0  0.47130311420383453  0.47134236168209764  0.3460855559116709  1.0000
  C   C37       1.0  0.9048415733444128  0.03662657134350411  0.09748852177387587  1.0000
  C   C38       1.0  0.40483257102543746  0.46337367085666165  0.5974906223793964  1.0000
  C   C39       1.0  0.09516223460714462  0.963372059264508  0.9025101420774959  1.0000
  C   C40       1.0  0.5951628809241569  0.5366249597544555  0.4025091795390735  1.0000
  C   C41       1.0  0.2754463953332476  0.08663810387443503  0.11907195207909639  1.0000
  C   C42       1.0  0.7754406600649729  0.41336479932044784  0.6190739177505333  1.0000
  C   C43       1.0  0.724558818670367  0.9133588234051334  0.8809255945032672  1.0000
  C   C44       1.0  0.22455619793513654  0.5866380896059555  0.3809247669027229  1.0000
  C   C45       1.0  0.9726992157227768  0.12439893236991402  0.053667892664449775  1.0000
  C   C46       1.0  0.47269445034168456  0.37560202575838997  0.5536683851393178  1.0000
  C   C47       1.0  0.02730458330569971  0.8755996982388585  0.946331389580301  1.0000
  C   C48       1.0  0.5273037780185987  0.6243974565158511  0.4463316558173815  1.0000
  N   N1        1.0  0.09218704344321078  0.8801494922042256  0.4350933959923892  1.0000
  N   N2        1.0  0.5921856429667472  0.619847608372645  0.9350941105480857  1.0000
  N   N3        1.0  0.9078125820456009  0.11984999006911325  0.5649061460897613  1.0000
  N   N4        1.0  0.40781537072730595  0.38015272556394564  0.0649055510534566  1.0000
  N   N5        1.0  0.5160117180419307  0.8289847352368229  0.32093039375421745  1.0000
  N   N6        1.0  0.016012602735891297  0.6710180765637334  0.8209317227897515  1.0000
  N   N7        1.0  0.48398786283038925  0.17101900535728734  0.6790722402975503  1.0000
  N   N8        1.0  0.983986995983905  0.3289805540485062  0.17906967447201078  1.0000
  N   N9        1.0  0.3429121224835399  0.8461678691354421  0.270681773947544  1.0000
  N   N10       1.0  0.8429078922660621  0.6538363887371974  0.770684766214451  1.0000
  N   N11       1.0  0.657090252646057  0.15383501979346903  0.7293198623546004  1.0000
  N   N12       1.0  0.15708893004216407  0.34616479686548024  0.22931639201124907  1.0000
  N   N13       1.0  0.15566731595532698  0.14693838264992823  0.06342696312183449  1.0000
  N   N14       1.0  0.655660205930353  0.3530644322041639  0.5634299694546385  1.0000
  N   N15       1.0  0.8443392862539624  0.8530576929661182  0.9365707029788408  1.0000
  N   N16       1.0  0.34433802242926964  0.646937605060238  0.43657007150368077  1.0000
  Cl  Cl1       1.0  0.010816823607555596  0.6607296612378376  0.5592297533984336  1.0000
  Cl  Cl2       1.0  0.5108173217807915  0.8392682490773211  0.05922855694920769  1.0000
  Cl  Cl3       1.0  0.9891841811638498  0.3392689693727392  0.44077052659540067  1.0000
  Cl  Cl4       1.0  0.48918923581265267  0.16072952986932174  0.9407722011194508  1.0000
  Cl  Cl5       1.0  0.4730988138609859  0.8322597356782285  0.6015417838585789  1.0000
  Cl  Cl6       1.0  0.9730979593114882  0.6677389420486082  0.1015439603365849  1.0000
  Cl  Cl7       1.0  0.5269007937816781  0.16773974659663793  0.398458995010337  1.0000
  Cl  Cl8       1.0  0.026903009766939996  0.3322622435551922  0.8984587932324003  1.0000
  O   O1        1.0  0.5308870302273335  0.9853313007352684  0.2453887221711  1.0000
  O   O2        1.0  0.030879657906503207  0.5146730220592417  0.7453897538626177  1.0000
  O   O3        1.0  0.4691153627484256  0.014671588192122404  0.754611677344286  1.0000
  O   O4        1.0  0.9691171554788623  0.4853273118808161  0.2546120227559214  1.0000
