data_image0
_chemical_formula_structural       Zn4H28C40N4O16
_chemical_formula_sum              "Zn4 H28 C40 N4 O16"
_cell_length_a       9.667222512225413
_cell_length_b       9.667244178444777
_cell_length_c       14.23545887607565
_cell_angle_alpha    76.98607381066654
_cell_angle_beta     76.98608701743741
_cell_angle_gamma    64.17469335618519

_space_group_name_H-M_alt    "P 1"
_space_group_IT_number       1

loop_
  _space_group_symop_operation_xyz
  'x, y, z'

loop_
  _atom_site_type_symbol
  _atom_site_label
  _atom_site_symmetry_multiplicity
  _atom_site_fract_x
  _atom_site_fract_y
  _atom_site_fract_z
  _atom_site_occupancy
  Zn  Zn1       1.0  0.09402728318274713  0.5913565308926038  0.48541651155422016  1.0000
  Zn  Zn2       1.0  0.40863925842681686  0.9059751320982132  0.014585040473910712  1.0000
  Zn  Zn3       1.0  0.9059731346677753  0.4086441576684052  0.5145836147107016  1.0000
  Zn  Zn4       1.0  0.5913542875501393  0.09402685736421292  0.9854187507835375  1.0000
  H   H1        1.0  0.5859441591643701  0.7417469176304509  0.7303619518909342  1.0000
  H   H2        1.0  0.2582506032881113  0.41405739465594144  0.7696394535247817  1.0000
  H   H3        1.0  0.41405788843724184  0.2582468270449638  0.2696396925309513  1.0000
  H   H4        1.0  0.7417510574130476  0.5859455719739728  0.23036153724541455  1.0000
  H   H5        1.0  0.8383738163520607  0.8659529079135523  0.7079919941577159  1.0000
  H   H6        1.0  0.13406447137789712  0.16161408322746948  0.792004275503153  1.0000
  H   H7        1.0  0.16161685832400247  0.13405374866501774  0.2920108189815238  1.0000
  H   H8        1.0  0.8659565022707484  0.838374645153543  0.20798891162284144  1.0000
  H   H9        1.0  0.055403018158834604  0.863953033351926  0.5658705164563853  1.0000
  H   H10       1.0  0.13604223876821214  0.9445986641228856  0.9341275423964104  1.0000
  H   H11       1.0  0.9445985820693112  0.1360418751525287  0.43413382788044425  1.0000
  H   H12       1.0  0.8639545129546633  0.05540325030603552  0.06586874360208843  1.0000
  H   H13       1.0  0.20849546425768756  0.0136780325360419  0.5667084624482397  1.0000
  H   H14       1.0  0.9863205008489475  0.7915024813063098  0.9332892123369727  1.0000
  H   H15       1.0  0.7915041646198022  0.9863192206243236  0.43329512211661114  1.0000
  H   H16       1.0  0.013677150824165124  0.2084971106623712  0.06670729200775578  1.0000
  H   H17       1.0  0.5873746980867907  0.6930679966323012  0.3900580275579344  1.0000
  H   H18       1.0  0.30693014768448995  0.4126292946924509  0.10994161170956569  1.0000
  H   H19       1.0  0.41262420033942976  0.3069338773036777  0.6099435549241645  1.0000
  H   H20       1.0  0.6930667754885889  0.5873749200010466  0.8900549973684588  1.0000
  H   H21       1.0  0.41234458268665725  0.5624427272841716  0.3928455307977855  1.0000
  H   H22       1.0  0.43755443131151156  0.587661043550611  0.10715329571305429  1.0000
  H   H23       1.0  0.5876564565891869  0.43755910031129025  0.60715502771977  1.0000
  H   H24       1.0  0.5624418710866622  0.4123420327581613  0.8928435833843548  1.0000
  H   H25       1.0  0.6289681038281432  0.894652434359287  0.42999035139456504  1.0000
  H   H26       1.0  0.1053476240841391  0.37103276361025195  0.07001154206771788  1.0000
  H   H27       1.0  0.37103079719972953  0.10534944217562273  0.5700140401755858  1.0000
  H   H28       1.0  0.894649127638736  0.6289691508186623  0.9299847439307878  1.0000
  C   C1        1.0  0.7831267476222126  0.6900422233624467  0.6106941178405305  1.0000
  C   C2        1.0  0.30995777404535124  0.21687410491937698  0.8893070759705282  1.0000
  C   C3        1.0  0.2168751935550973  0.30995728372197107  0.3893087658392956  1.0000
  C   C4        1.0  0.6900415724047451  0.783126605837289  0.11069250886863805  1.0000
  C   C5        1.0  0.6889923223947749  0.7642935905780561  0.6979210764009449  1.0000
  C   C6        1.0  0.23571052560478023  0.3110054284913986  0.8020785151594648  1.0000
  C   C7        1.0  0.31100640653248496  0.23570598504255005  0.3020822898176759  1.0000
  C   C8        1.0  0.7642931031949801  0.6889951902339534  0.19791972402263255  1.0000
  C   C9        1.0  0.7354732403152442  0.8435314438434318  0.7409487596994352  1.0000
  C   C10       1.0  0.15647898051953044  0.26451964073248047  0.7590484956593568  1.0000
  C   C11       1.0  0.26452047581108223  0.15647284458410132  0.25905395009350224  1.0000
  C   C12       1.0  0.8435374303033002  0.7354726392253498  0.2409441442140689  1.0000
  C   C13       1.0  0.653525085789042  0.9032022581598653  0.8346013428372526  1.0000
  C   C14       1.0  0.09680672452090287  0.3464678832699448  0.6653974906039151  1.0000
  C   C15       1.0  0.3464695309379239  0.09679970845716208  0.16540228757393285  1.0000
  C   C16       1.0  0.9032014658038395  0.6535291825791274  0.33459989128672146  1.0000
  C   C17       1.0  0.17389521601085536  0.8315384868017973  0.5277752390833114  1.0000
  C   C18       1.0  0.16846025697117992  0.8261061386050701  0.9722237790438651  1.0000
  C   C19       1.0  0.8261061050419659  0.16845988254762284  0.4722286168879108  1.0000
  C   C20       1.0  0.8315390875276732  0.1738945702024068  0.027773698979253053  1.0000
  C   C21       1.0  0.2612490826934818  0.9128464075071179  0.52855610953911  1.0000
  C   C22       1.0  0.08715268656543167  0.738753292083736  0.9714405922954581  1.0000
  C   C23       1.0  0.7387522377089227  0.08715196119257479  0.4714470441601008  1.0000
  C   C24       1.0  0.9128468267819727  0.26124971438937905  0.028554399719126967  1.0000
  C   C25       1.0  0.4141967951409173  0.8651649752122026  0.47846767727591544  1.0000
  C   C26       1.0  0.13483310197570836  0.585807886108249  0.02153037722217018  1.0000
  C   C27       1.0  0.5858055966619276  0.13483337129182624  0.521536017849044  1.0000
  C   C28       1.0  0.865166412022113  0.4141951210146004  0.9784653170644261  1.0000
  C   C29       1.0  0.46908497387921966  0.7367236870446519  0.4286250241731082  1.0000
  C   C30       1.0  0.2632733945947835  0.5309161262027473  0.0713737776632399  1.0000
  C   C31       1.0  0.5309154452721359  0.2632770028158191  0.5713765066358363  1.0000
  C   C32       1.0  0.7367231863283124  0.469083488611325  0.9286228875277585  1.0000
  C   C33       1.0  0.37372208487871467  0.662360634949849  0.4305560592995332  1.0000
  C   C34       1.0  0.3376345126517039  0.6262804020230276  0.06944352386575763  1.0000
  C   C35       1.0  0.6262772635226244  0.3376400777560137  0.5694456323556805  1.0000
  C   C36       1.0  0.6623609981717848  0.37371923628617765  0.9305540044435145  1.0000
  C   C37       1.0  0.5165024825964367  0.9410086013135556  0.475561930735111  1.0000
  C   C38       1.0  0.05899280515540546  0.4834982997113286  0.024437622618727103  1.0000
  C   C39       1.0  0.48349686710572837  0.05899211269176872  0.5244411654641323  1.0000
  C   C40       1.0  0.9410127923933587  0.5164999717591953  0.9755585672472898  1.0000
  N   N1        1.0  0.22833254060526537  0.7081959133728122  0.47970451402635195  1.0000
  N   N2        1.0  0.2918001653402343  0.7716683032507489  0.020295131642726033  1.0000
  N   N3        1.0  0.7716672590720037  0.2918036394023956  0.5202986913460066  1.0000
  N   N4        1.0  0.7081957961087755  0.22833017447806722  0.9797032081116793  1.0000
  O   O1        1.0  0.8915398072774255  0.7307006049027224  0.5641913410384375  1.0000
  O   O2        1.0  0.2693008824346564  0.1084604092434915  0.935808333333213  1.0000
  O   O3        1.0  0.1084601618988117  0.2693012461878653  0.4358100805973918  1.0000
  O   O4        1.0  0.7307015035144675  0.891537931412948  0.06418904134361006  1.0000
  O   O5        1.0  0.7500808729179695  0.5856073770691594  0.5920007864143101  1.0000
  O   O6        1.0  0.4143880029637685  0.24992345348733377  0.9080034102652234  1.0000
  O   O7        1.0  0.24992410905919385  0.4143897612144939  0.40800129164720994  1.0000
  O   O8        1.0  0.5856031255898841  0.7500820457595054  0.09200372567921279  1.0000
  O   O9        1.0  0.6991750153192771  0.9923241872103574  0.8607471278640941  1.0000
  O   O10       1.0  0.007680646044136125  0.3008193572570618  0.6392528188934747  1.0000
  O   O11       1.0  0.3008143061793761  0.007685949809911102  0.13925184639572305  1.0000
  O   O12       1.0  0.9923278241063402  0.6991742483967798  0.36074575363478795  1.0000
  O   O13       1.0  0.547369050628788  0.8589972816059301  0.8815254468177824  1.0000
  O   O14       1.0  0.141000545513272  0.4526316285709057  0.6184760077317575  1.0000
  O   O15       1.0  0.45263040809932426  0.14099767258932164  0.11847921921157216  1.0000
  O   O16       1.0  0.8590020125364648  0.5473690129998445  0.3815223922966025  1.0000
