data_image0
_chemical_formula_structural       Hf6H16C40N12O32
_chemical_formula_sum              "Hf6 H16 C40 N12 O32"
_cell_length_a       15.423769456869417
_cell_length_b       18.926179021248043
_cell_length_c       18.93493076853655
_cell_angle_alpha    88.77997473702916
_cell_angle_beta     89.8861813329575
_cell_angle_gamma    89.9060769525119

_space_group_name_H-M_alt    "P 1"
_space_group_IT_number       1

loop_
  _space_group_symop_operation_xyz
  'x, y, z'

loop_
  _atom_site_type_symbol
  _atom_site_label
  _atom_site_symmetry_multiplicity
  _atom_site_fract_x
  _atom_site_fract_y
  _atom_site_fract_z
  _atom_site_occupancy
  Hf  Hf1       1.0  0.9935601512554867  0.09863716531899773  0.010301869196346996  1.0000
  Hf  Hf2       1.0  0.9968916684495425  0.9608065821018814  0.8873876830546618  1.0000
  Hf  Hf3       1.0  0.9965201375613191  0.9729678322060878  0.1504911305028429  1.0000
  Hf  Hf4       1.0  0.993774284231904  0.8355852219031306  0.027892629581337796  1.0000
  Hf  Hf5       1.0  0.8345234400379412  0.9674403041883936  0.019224574639764597  1.0000
  Hf  Hf6       1.0  0.15615510264863988  0.9671242528347863  0.019196679559527797  1.0000
  H   H1        1.0  0.1124608812185741  0.0781536114896326  0.909029585230037  1.0000
  H   H2        1.0  0.8746001131108443  0.8575224931662503  0.9145117518331811  1.0000
  H   H3        1.0  0.11173165665420733  0.8558534325777316  0.12989216629922137  1.0000
  H   H4        1.0  0.8780050733723073  0.0758293529781682  0.12695725855498097  1.0000
  H   H5        1.0  0.9431192843245527  0.8697535393566727  0.7870729919873439  1.0000
  H   H6        1.0  0.05106470847692889  0.7329793620937437  0.9450147923672528  1.0000
  H   H7        1.0  0.9615713619480745  0.7333995531888179  0.12221138713429977  1.0000
  H   H8        1.0  0.03998359568267059  0.9011540391932871  0.274685405442284  1.0000
  H   H9        1.0  0.028445238885964803  0.06682171746646051  0.2490409458548583  1.0000
  H   H10       1.0  0.9470860538274266  0.2212706879078965  0.07787970124164897  1.0000
  H   H11       1.0  0.9603827737193316  0.19986905703053282  0.9153580047888422  1.0000
  H   H12       1.0  0.04545671192216359  0.031067101485462004  0.7673695422616686  1.0000
  H   H13       1.0  0.9392883709833342  0.8937779599092865  0.25908258405319623  1.0000
  H   H14       1.0  0.04780770903549581  0.20637339572677857  0.0874258547410989  1.0000
  H   H15       1.0  0.9442626183013517  0.042386000238074914  0.7770186281081735  1.0000
  H   H16       1.0  0.9531535035233459  0.7119334138516323  0.9593328309223851  1.0000
  C   C1        1.0  0.49395197352792053  0.35977631510357366  0.020129309388366292  1.0000
  C   C2        1.0  0.4213716769404598  0.2560323058152676  0.0256859857102327  1.0000
  C   C3        1.0  0.568056885608179  0.25673152924042597  0.017050367564444  1.0000
  C   C4        1.0  0.49539655129280646  0.5746665691875279  0.018408757275750493  1.0000
  C   C5        1.0  0.5697068543025877  0.6773598274698571  0.0224572776747536  1.0000
  C   C6        1.0  0.4231499846953284  0.6787634622168285  0.013006054567433999  1.0000
  C   C7        1.0  0.4965125689915481  0.9702877751789887  0.6264431975757248  1.0000
  C   C8        1.0  0.42244226960102793  0.9701141417987031  0.7296694442752808  1.0000
  C   C9        1.0  0.5692297744489636  0.9763728126345871  0.7296825477873694  1.0000
  C   C10       1.0  0.4949183380057605  0.9649001719255138  0.4118477237852146  1.0000
  C   C11       1.0  0.42008544106090534  0.9658904155227294  0.3092584175682162  1.0000
  C   C12       1.0  0.5668565104777201  0.958531982954149  0.30792827374215637  1.0000
  C   C13       1.0  0.7835517415741436  0.13165273247720677  0.009901891469631599  1.0000
  C   C14       1.0  0.20779984731584727  0.9644688504544022  0.8559608754647668  1.0000
  C   C15       1.0  0.7828870263898792  0.9768078038135286  0.8563768378065074  1.0000
  C   C16       1.0  0.20733330365299454  0.12950511430474176  0.028071514192369293  1.0000
  C   C17       1.0  0.2052863318343654  0.9719912068477828  0.18379055445290493  1.0000
  C   C18       1.0  0.7844039041700553  0.8028028651827483  0.028717387067239  1.0000
  C   C19       1.0  0.20813620157748153  0.8048059747374199  0.010611021860974297  1.0000
  C   C20       1.0  0.7814948367402437  0.9567060112720542  0.18144382065657536  1.0000
  C   C21       1.0  0.2764589955144459  0.9710546107008331  0.23367387916273683  1.0000
  C   C22       1.0  0.3405324997370869  0.9688587769963777  0.2708798715506048  1.0000
  C   C23       1.0  0.6454894799606876  0.9548012573285761  0.2683007071779356  1.0000
  C   C24       1.0  0.7093330502655277  0.9535211593628219  0.23066504323985976  1.0000
  C   C25       1.0  0.34330533744824976  0.9675520858825593  0.7686604621254246  1.0000
  C   C26       1.0  0.27957620564627206  0.9655518613491054  0.8064218077294212  1.0000
  C   C27       1.0  0.648006975890695  0.9796601496527729  0.7688972507700382  1.0000
  C   C28       1.0  0.7112658680354829  0.9805718005738059  0.8069843860392536  1.0000
  C   C29       1.0  0.4966392063981004  0.968318500243207  0.5511812496233686  1.0000
  C   C30       1.0  0.4959401999908337  0.9667395235042169  0.48711138283953653  1.0000
  C   C31       1.0  0.280327939874411  0.7557214135271979  0.0074101482278123975  1.0000
  C   C32       1.0  0.3444128794026114  0.7183070279547507  0.008925589996437104  1.0000
  C   C33       1.0  0.6490857180321612  0.7158018188914781  0.0266770003587382  1.0000
  C   C34       1.0  0.7130285518897139  0.7530593283301031  0.02918433278741619  1.0000
  C   C35       1.0  0.3426308883178918  0.21667526206985602  0.02965414783780319  1.0000
  C   C36       1.0  0.2790009990759472  0.17889997305320554  0.03106803615308  1.0000
  C   C37       1.0  0.7118437058849453  0.181229273454953  0.010428057787812896  1.0000
  C   C38       1.0  0.6474688020102735  0.2181379974614971  0.013081322439973097  1.0000
  C   C39       1.0  0.4937332947933156  0.4351399452455239  0.019377519021368503  1.0000
  C   C40       1.0  0.49452850579932317  0.4993044366034739  0.0189106007474535  1.0000
  N   N1        1.0  0.4164294314187629  0.32719727284695915  0.025191338801313592  1.0000
  N   N2        1.0  0.4950942328706915  0.2178331425886171  0.0219862394135788  1.0000
  N   N3        1.0  0.5720123637840117  0.32788814656232296  0.0157483895908825  1.0000
  N   N4        1.0  0.5734952690220112  0.6061688951713009  0.0234927607256097  1.0000
  N   N5        1.0  0.49690311426737577  0.7166009790893285  0.0174100935548438  1.0000
  N   N6        1.0  0.4180775301078796  0.607629445597091  0.012912189589648902  1.0000
  N   N7        1.0  0.4184624088344933  0.9678112120137213  0.6586318465262195  1.0000
  N   N8        1.0  0.4956363679202483  0.9746091705348761  0.7681435708381058  1.0000
  N   N9        1.0  0.574232686591678  0.9744515889118474  0.6586477423807935  1.0000
  N   N10       1.0  0.4165917697134489  0.9681896219044289  0.3803230547438331  1.0000
  N   N11       1.0  0.49287672029151963  0.9610029368300417  0.27011885985056944  1.0000
  N   N12       1.0  0.5722663123722143  0.9600480975246766  0.3789620519039615  1.0000
  O   O1        1.0  0.8603499235267763  0.1563784681604332  0.0082565327566186  1.0000
  O   O2        1.0  0.7615590170249219  0.0669746169306293  0.012093458435842296  1.0000
  O   O3        1.0  0.13138343215591416  0.9659739337895061  0.8311779000386678  1.0000
  O   O4        1.0  0.22980470822674448  0.9628383225648707  0.920723249512967  1.0000
  O   O5        1.0  0.8594310765563903  0.9830896184918956  0.8321679859292245  1.0000
  O   O6        1.0  0.7609919801087982  0.965025949471716  0.9204725416014127  1.0000
  O   O7        1.0  0.13081236599111887  0.152930778354758  0.035298040277176285  1.0000
  O   O8        1.0  0.2296419919775872  0.0659227790989831  0.016332408790688598  1.0000
  O   O9        1.0  0.007588466127707199  0.1707654168537545  0.9330255613316393  1.0000
  O   O10       1.0  0.9895147813483758  0.1862026829988537  0.09391212008620187  1.0000
  O   O11       1.0  0.0008578805539016999  0.0479595194955067  0.7997149271814405  1.0000
  O   O12       1.0  0.9909808815745578  0.8886762118676541  0.8134884910201163  1.0000
  O   O13       1.0  0.9254484936216228  0.021169120155065  0.9607271363754674  1.0000
  O   O14       1.0  0.0836521252584959  0.0438698132465802  0.9399903133162651  1.0000
  O   O15       1.0  0.1282290620579829  0.9728550713612237  0.2083275974087044  1.0000
  O   O16       1.0  0.22791927057882333  0.9711115514115677  0.11931163231357535  1.0000
  O   O17       1.0  0.861340099084316  0.7780853268829163  0.0299343491334412  1.0000
  O   O18       1.0  0.76207186217799  0.867461822480017  0.025783417248433697  1.0000
  O   O19       1.0  0.1319045289852667  0.7813821858995811  0.0024261281844389017  1.0000
  O   O20       1.0  0.22961283082067038  0.8682055640314774  0.023722069276253397  1.0000
  O   O21       1.0  0.8576948104893417  0.9483860086287024  0.20520950581749275  1.0000
  O   O22       1.0  0.7600572619870575  0.9697805169502091  0.11744469482911767  1.0000
  O   O23       1.0  0.9977393674985964  0.8870519143845571  0.23942721618923454  1.0000
  O   O24       1.0  0.9816592674527342  0.04938785040396711  0.22022232690336097  1.0000
  O   O25       1.0  0.0084213705598017  0.7628134221799955  0.10446491628034235  1.0000
  O   O26       1.0  0.9907515260216329  0.7499002562242937  0.9419981037592104  1.0000
  O   O27       1.0  0.0827164255977806  0.8906070247468351  0.09958662147130329  1.0000
  O   O28       1.0  0.924972681163716  0.9128816428310388  0.07680780170481677  1.0000
  O   O29       1.0  0.0648962738803789  0.0233149409206561  0.07242062165315129  1.0000
  O   O30       1.0  0.9075199158393873  0.888043469516127  0.9449832646339188  1.0000
  O   O31       1.0  0.9068881559418288  0.045957074996295005  0.09294277540990949  1.0000
  O   O32       1.0  0.06521112504135118  0.9107094298253317  0.9658770086995286  1.0000
