data_image0
_chemical_formula_structural       Zn4H53C71N19O4
_chemical_formula_sum              "Zn4 H53 C71 N19 O4"
_cell_length_a       18.581219686626174
_cell_length_b       19.996289046924193
_cell_length_c       20.22064012684532
_cell_angle_alpha    112.33742324054542
_cell_angle_beta     106.77494266271701
_cell_angle_gamma    108.50665760566334

_space_group_name_H-M_alt    "P 1"
_space_group_IT_number       1

loop_
  _space_group_symop_operation_xyz
  'x, y, z'

loop_
  _atom_site_type_symbol
  _atom_site_label
  _atom_site_symmetry_multiplicity
  _atom_site_fract_x
  _atom_site_fract_y
  _atom_site_fract_z
  _atom_site_occupancy
  Zn  Zn1       1.0  0.9973118062649604  0.6254629584379714  0.12859425312562675  1.0000
  Zn  Zn2       1.0  0.015800182916436284  0.4161599243552984  0.9173781155261194  1.0000
  Zn  Zn3       1.0  0.1110449504412472  0.623690677935727  0.024714484673601926  1.0000
  Zn  Zn4       1.0  0.905847016624129  0.4114758786084137  0.010447511857179728  1.0000
  H   H1        1.0  0.9634541755047579  0.782429042213856  0.13631929426595954  1.0000
  H   H2        1.0  0.389251477812671  0.8243907150763192  0.5208792013823638  1.0000
  H   H3        1.0  0.16725073971784343  0.5875698022799297  0.6613687926815784  1.0000
  H   H4        1.0  0.9257302887862623  0.3619048842647032  0.4940090907215051  1.0000
  H   H5        1.0  0.9386502284458161  0.37559016565211306  0.3802227887344003  1.0000
  H   H6        1.0  0.8020256563919117  0.878308086620663  0.9449529683845197  1.0000
  H   H7        1.0  0.0032738973661778207  0.9957368687118587  0.8537123039095958  1.0000
  H   H8        1.0  0.7304564714401991  0.37656934974815204  0.888294535599968  1.0000
  H   H9        1.0  0.9174371122181029  0.37596867805201833  0.7512320940549841  1.0000
  H   H10       1.0  0.8427560905638246  0.6426449575128713  0.032211293553736205  1.0000
  H   H11       1.0  0.7225523602793729  0.21298028070444988  0.8608423795577308  1.0000
  H   H12       1.0  0.1708092969699351  0.3959190011255984  0.8821460358718055  1.0000
  H   H13       1.0  0.0747686293006851  0.7412318408669307  0.9737933274248504  1.0000
  H   H14       1.0  0.9933882304554232  0.6380745050829546  0.30057788999860685  1.0000
  H   H15       1.0  0.885314533048131  0.30472947483242757  0.07152166399477265  1.0000
  H   H16       1.0  0.8239838394465125  0.18473935641996053  0.06687467574661102  1.0000
  H   H17       1.0  0.9247435820857532  0.18874908142839786  0.07893826744704296  1.0000
  H   H18       1.0  0.8346117275846937  0.12846191349510147  0.9814889508859679  1.0000
  H   H19       1.0  0.7861265915333034  0.17274254042572318  0.6307628927057252  1.0000
  H   H20       1.0  0.8383148357209648  0.11614444663199207  0.6494256786799184  1.0000
  H   H21       1.0  0.9635210416129637  0.20313091771183167  0.6398396769384007  1.0000
  H   H22       1.0  0.8657035493069926  0.15117957713411556  0.5493414167025249  1.0000
  H   H23       1.0  0.26844117043857096  0.6197663528668541  0.13808925414959813  1.0000
  H   H24       1.0  0.9099625090368094  0.2581883800853504  0.6195433799530717  1.0000
  H   H25       1.0  0.4174792289034243  0.8724952033171433  0.6527891612489255  1.0000
  H   H26       1.0  0.3902159917010548  0.9344044876323706  0.6167713624225752  1.0000
  H   H27       1.0  0.47810030824690136  0.05792747689534391  0.7589170122150646  1.0000
  H   H28       1.0  0.3963788035163133  0.9758525389554861  0.7529886609259291  1.0000
  H   H29       1.0  0.5047341916627345  0.9957790228998744  0.7945915382521419  1.0000
  H   H30       1.0  0.20225652417357054  0.541347149890541  0.45130409394353416  1.0000
  H   H31       1.0  0.29075961468500816  0.582281689448969  0.5463872003641227  1.0000
  H   H32       1.0  0.3332906377171766  0.7256135605995409  0.569475883276695  1.0000
  H   H33       1.0  0.33221848421509736  0.6602848211856197  0.47963832259244993  1.0000
  H   H34       1.0  0.07788685658699276  0.2899726717622001  0.9248699772016806  1.0000
  H   H35       1.0  0.24570114593360864  0.682411192549189  0.4730178316911306  1.0000
  H   H36       1.0  0.7332463722344968  0.9483465590074615  0.9159208834286117  1.0000
  H   H37       1.0  0.674536350672106  0.9997440311428174  0.8419767487346517  1.0000
  H   H38       1.0  0.6933554478479849  0.9269678029808192  0.7742558751398361  1.0000
  H   H39       1.0  0.7663453398902574  0.03469504456492699  0.8283978474912175  1.0000
  H   H40       1.0  0.018011829240720104  0.8364687545320207  0.8956760230007885  1.0000
  H   H41       1.0  0.09455586129136843  0.8552028064438061  0.8251494953529457  1.0000
  H   H42       1.0  0.11825560618625973  0.9601968154097943  0.8801076744220208  1.0000
  H   H43       1.0  0.02976452677217603  0.8906539030934437  0.7809808635772482  1.0000
  H   H44       1.0  0.0718117075566482  0.6529882020696718  0.7728898667292653  1.0000
  H   H45       1.0  0.14768410082063338  0.6681346475704115  0.29208777335226427  1.0000
  H   H46       1.0  0.16139388255583503  0.6380982345551801  0.8095862035609683  1.0000
  H   H47       1.0  0.24418170860228364  0.784600359687296  0.9272418873921847  1.0000
  H   H48       1.0  0.2096485100724903  0.7819868659868587  0.834074534693016  1.0000
  H   H49       1.0  0.15457800169744468  0.7998531156134662  0.8923289146786857  1.0000
  H   H50       1.0  0.9818593810585696  0.4040828689664976  0.16745544212266586  1.0000
  H   H51       1.0  0.3056550220002165  0.6634144956625363  0.016761523206348255  1.0000
  H   H52       1.0  0.6716904918224601  0.9375241539103668  0.525156770856121  1.0000
  H   H53       1.0  0.5476428346946206  0.8082273737036089  0.40251152642469606  1.0000
  C   C1        1.0  0.9968786219512182  0.765691176344802  0.10213748648134657  1.0000
  C   C2        1.0  0.1639007966268694  0.6517331654065545  0.2428876174494192  1.0000
  C   C3        1.0  0.9750885979066553  0.4593056786339247  0.18614591694372953  1.0000
  C   C4        1.0  0.8552180376921753  0.2446824563365694  0.78481596542899  1.0000
  C   C5        1.0  0.26029685341245573  0.5981793263851858  0.9856181955102342  1.0000
  C   C6        1.0  0.9998928817690922  0.5195216213584429  0.26521511960864774  1.0000
  C   C7        1.0  0.27004150607011457  0.5292422378527204  0.9443741666759775  1.0000
  C   C8        1.0  0.24216789334762012  0.6567022404486665  0.24526417829597585  1.0000
  C   C9        1.0  0.9800011886066928  0.2387706539749601  0.9610988504474064  1.0000
  C   C10       1.0  0.6697271520102531  0.5032601135107697  0.9218723042901968  1.0000
  C   C11       1.0  0.6028647212841776  0.5064502873810071  0.9138352479677606  1.0000
  C   C12       1.0  0.7780363153358537  0.18722292372770968  0.7743333841738219  1.0000
  C   C13       1.0  0.5319957708612506  0.5111283391260102  0.9119061107648107  1.0000
  C   C14       1.0  0.46901808530429173  0.5170325155512714  0.9162729178484385  1.0000
  C   C15       1.0  0.40165867851854375  0.5227091993303857  0.9240778914629856  1.0000
  C   C16       1.0  0.04517745329462017  0.5761980081448569  0.8539504200918413  1.0000
  C   C17       1.0  0.3405010728919607  0.5273000843882657  0.9335894246319895  1.0000
  C   C18       1.0  0.540855516512863  0.8397530657810605  0.4557585846935621  1.0000
  C   C19       1.0  0.4599900103476741  0.8088060465970839  0.45337159155978646  1.0000
  C   C20       1.0  0.45174100288203084  0.8490888480508687  0.5231703996202625  1.0000
  C   C21       1.0  0.5215116777832234  0.9208531747554786  0.5920373608618305  1.0000
  C   C22       1.0  0.6018215596223369  0.9554382028482704  0.5927337551872467  1.0000
  C   C23       1.0  0.004063033902099239  0.501543333882651  0.778200154341988  1.0000
  C   C24       1.0  0.6099137228967351  0.9118994185977627  0.5242469961347708  1.0000
  C   C25       1.0  0.3857630235969083  0.7435486416772576  0.380366615575042  1.0000
  C   C26       1.0  0.6680836400353485  0.033654595185417684  0.6585438223983289  1.0000
  C   C27       1.0  0.7207090531682638  0.10498118896094867  0.7123499996120088  1.0000
  C   C28       1.0  0.7712530807242075  0.4425607452272045  0.929952218363759  1.0000
  C   C29       1.0  0.3199507109538258  0.6965678649481005  0.3159934192271051  1.0000
  C   C30       1.0  0.11653989055574247  0.5406049783468063  0.5999922067137788  1.0000
  C   C31       1.0  0.0427174024892665  0.4764382443629671  0.5860665952859134  1.0000
  C   C32       1.0  0.9811856091772171  0.41361004696109654  0.5055348551198263  1.0000
  C   C33       1.0  0.9887981487751883  0.4210208265032378  0.4422349316856112  1.0000
  C   C34       1.0  0.7501559798080278  0.5069331123339821  0.9458860531513691  1.0000
  C   C35       1.0  0.05756714871900927  0.48999510566739685  0.455923465289416  1.0000
  C   C36       1.0  0.12511506769825317  0.5470658458839136  0.5361524652524847  1.0000
  C   C37       1.0  0.028384688671302175  0.4784997517854989  0.6515489451447677  1.0000
  C   C38       1.0  0.0507033825787246  0.5047806222319053  0.391875360682114  1.0000
  C   C39       1.0  0.029920360945162428  0.5148324049168806  0.33472130319651666  1.0000
  C   C40       1.0  0.9572219204012242  0.4422534805633517  0.7923921440062216  1.0000
  C   C41       1.0  0.013963806770860301  0.48786182690142976  0.7088125958647494  1.0000
  C   C42       1.0  0.8372693427501332  0.9594578367512693  0.9004249763745374  1.0000
  C   C43       1.0  0.9027039252400043  0.9997304776448247  0.8843516035893298  1.0000
  C   C44       1.0  0.9570469198341839  0.9666046553516521  0.8702383479466531  1.0000
  C   C45       1.0  0.982895580740383  0.5798129591550774  0.2550267008120314  1.0000
  C   C46       1.0  0.9588220071325751  0.9044016236246647  0.8854475932636843  1.0000
  C   C47       1.0  0.908744076832015  0.8798880841175247  0.9224453716639401  1.0000
  C   C48       1.0  0.8448806061088092  0.903143813874088  0.9231477353486282  1.0000
  C   C49       1.0  0.9233625777500123  0.07931888816006699  0.8968474916516413  1.0000
  C   C50       1.0  0.9304031057627922  0.8383953774192249  0.9612895942650325  1.0000
  C   C51       1.0  0.9633645422833724  0.8123984345931773  0.0003246009588336941  1.0000
  C   C52       1.0  0.8294342451992165  0.5789406301856276  0.0037976712108331225  1.0000
  C   C53       1.0  0.9523934719357285  0.15389395568074352  0.9256629863874437  1.0000
  C   C54       1.0  0.7719306444037669  0.23336152708449015  0.8437610696082273  1.0000
  C   C55       1.0  0.054516851425191165  0.7455126425624953  0.019802366228283498  1.0000
  C   C56       1.0  0.19120686647500656  0.46126899834378315  0.916945712987285  1.0000
  C   C57       1.0  0.002168045944706801  0.7788472433501282  0.039547613511565737  1.0000
  C   C58       1.0  0.8673581268560326  0.1862535952620732  0.039771578712034794  1.0000
  C   C59       1.0  0.8491051362426346  0.17595520581483015  0.6553361814675043  1.0000
  C   C60       1.0  0.9003378806003824  0.19879362599717612  0.6139445198404657  1.0000
  C   C61       1.0  0.4395663935622665  0.9358969589223347  0.6643763943307516  1.0000
  C   C62       1.0  0.4557947949345049  0.9949870366840514  0.7477516400591923  1.0000
  C   C63       1.0  0.2453348154749192  0.5960721052056285  0.5123537234913511  1.0000
  C   C64       1.0  0.29179302954884884  0.6705914692900095  0.5084960536707468  1.0000
  C   C65       1.0  0.7243949138501405  0.9853563222694247  0.8326296697228343  1.0000
  C   C66       1.0  0.06588990029136713  0.8957237135905345  0.8380998868717241  1.0000
  C   C67       1.0  0.22618727279405695  0.627018717588868  0.16440709887406502  1.0000
  C   C68       1.0  0.12844077192228545  0.6732654868391633  0.8275460019066755  1.0000
  C   C69       1.0  0.1876194073131713  0.7652963071901481  0.8732307068377593  1.0000
  C   C70       1.0  0.9491332781551876  0.28405509595883416  0.007728383693681566  1.0000
  C   C71       1.0  0.039175823555005644  0.2984656283413257  0.9553864598797116  1.0000
  N   N1        1.0  0.040804179414578826  0.726212715163264  0.11687906589785499  1.0000
  N   N2        1.0  0.02451454831125937  0.5611286241754172  0.9071280581774487  1.0000
  N   N3        1.0  0.85574121357687  0.47470991686731157  0.9768786995369537  1.0000
  N   N4        1.0  0.9709808569392137  0.4779458140515728  0.8696904474875138  1.0000
  N   N5        1.0  0.8913555672531571  0.5582972017378508  0.022043867331596766  1.0000
  N   N6        1.0  0.8387158436833031  0.30976506056907027  0.8902848278573285  1.0000
  N   N7        1.0  0.07689714005768167  0.7140132929812069  0.06531233750715859  1.0000
  N   N8        1.0  0.9497044290583858  0.5565336033634621  0.17624229446051484  1.0000
  N   N9        1.0  0.8881143240154401  0.2579773699304937  0.030604959163128  1.0000
  N   N10       1.0  0.7730085030780812  0.981774557400591  0.9015911717305796  1.0000
  N   N11       1.0  0.009222629732626142  0.8694668153986453  0.8694760170539124  1.0000
  N   N12       1.0  0.13980469479331956  0.4878688841219087  0.939800954686788  1.0000
  N   N13       1.0  0.14530871496154416  0.6081174038130754  0.11863870463826484  1.0000
  N   N14       1.0  0.9864603101805043  0.36335739320144705  0.025610315157741963  1.0000
  N   N15       1.0  0.04217802199836033  0.37213833521796863  0.9924095157412297  1.0000
  N   N16       1.0  0.10763501333584449  0.6235038734953944  0.16730014177199573  1.0000
  N   N17       1.0  0.9443406449516658  0.4808734993637671  0.13347916230190285  1.0000
  N   N18       1.0  0.1827557140548847  0.5727493124468451  0.982498771584815  1.0000
  N   N19       1.0  0.8903777432547386  0.3169208297690389  0.8535269558380348  1.0000
  O   O1        1.0  0.8979489120612385  0.23964190818335845  0.7405979045836872  1.0000
  O   O2        1.0  0.5191469087147808  0.9644753024341595  0.6614006928129326  1.0000
  O   O3        1.0  0.19616438151085439  0.6136953895589058  0.55455869617883  1.0000
  O   O4        1.0  0.1003770481451838  0.6550770126130061  0.8815317712610662  1.0000
