data_image0
_chemical_formula_structural       Cd2H16C12S4N20
_chemical_formula_sum              "Cd2 H16 C12 S4 N20"
_cell_length_a       5.864980430504132
_cell_length_b       9.131829576259875
_cell_length_c       12.767619868650574
_cell_angle_alpha    103.20125586205235
_cell_angle_beta     90.00015071920365
_cell_angle_gamma    89.99852520250907

_space_group_name_H-M_alt    "P 1"
_space_group_IT_number       1

loop_
  _space_group_symop_operation_xyz
  'x, y, z'

loop_
  _atom_site_type_symbol
  _atom_site_label
  _atom_site_symmetry_multiplicity
  _atom_site_fract_x
  _atom_site_fract_y
  _atom_site_fract_z
  _atom_site_occupancy
  Cd  Cd1       1.0  0.5000305073532445  0.5000034045238096  0.4999947982267373  1.0000
  Cd  Cd2       1.0  3.5805945820800003e-05  0.9999899155771741  3.6972060930473324e-08  1.0000
  H   H1        1.0  0.4652272041647478  0.10690582937854738  0.7542417033085728  1.0000
  H   H2        1.0  0.9651890841548011  0.393130074806443  0.7457872230045269  1.0000
  H   H3        1.0  0.5347656089098791  0.8931150966646156  0.24577588479579052  1.0000
  H   H4        1.0  0.03478838392939561  0.6068726126275761  0.2542174149997862  1.0000
  H   H5        1.0  0.8486387019517567  0.1513528710598706  0.4828958439128784  1.0000
  H   H6        1.0  0.34864732899074374  0.3486456668874496  0.017098627589540196  1.0000
  H   H7        1.0  0.15133706127487304  0.8486380809305626  0.5170866470490055  1.0000
  H   H8        1.0  0.6513284342467571  0.6513468047696519  0.9829005440530312  1.0000
  H   H9        1.0  0.928718784693608  0.023972476316110696  0.7139007950597218  1.0000
  H   H10       1.0  0.42870663845791773  0.47602429770794435  0.7861057022675269  1.0000
  H   H11       1.0  0.0712535681513558  0.9760369401756104  0.28610408034796825  1.0000
  H   H12       1.0  0.5712827651215235  0.5239660938553001  0.2139002039165803  1.0000
  H   H13       1.0  0.7773813573858489  0.8850399323695937  0.6401327533606391  1.0000
  H   H14       1.0  0.2773582948735153  0.6149816081783185  0.8598844303392358  1.0000
  H   H15       1.0  0.22260975063922933  0.11498082438998837  0.35987775899565133  1.0000
  H   H16       1.0  0.7226242881908433  0.3850278834691564  0.1401235898386233  1.0000
  C   C1        1.0  0.5200754993803045  0.14849369842224996  0.6853049256073477  1.0000
  C   C2        1.0  0.0200735389986875  0.3515272498282584  0.8147165065498286  1.0000
  C   C3        1.0  0.4798985587389168  0.85150471622228  0.3147084643357303  1.0000
  C   C4        1.0  0.979932914652039  0.6484763738849894  0.1852804400891799  1.0000
  C   C5        1.0  0.7185357107249929  0.17198861822622288  0.5453077262743591  1.0000
  C   C6        1.0  0.218547303713585  0.32801472768981194  0.9546822863866284  1.0000
  C   C7        1.0  0.2814417575028543  0.8280033078996922  0.4546686457303936  1.0000
  C   C8        1.0  0.7814557398910581  0.6719878090371267  0.04531606204452029  1.0000
  C   C9        1.0  0.004990206116964701  0.4118659809395879  0.3671339042999834  1.0000
  C   C10       1.0  0.5050096444497782  0.08811263352004767  0.13285870602643973  1.0000
  C   C11       1.0  0.995028183175684  0.5881187871873763  0.6328711488683681  1.0000
  C   C12       1.0  0.4950206797388788  0.9118900910816305  0.8671475043289121  1.0000
  S   S1        1.0  0.2578683316847119  0.3606062914692031  0.3188980050086982  1.0000
  S   S2        1.0  0.7578433508165646  0.1393951570360699  0.18110620093454344  1.0000
  S   S3        1.0  0.7421875679666812  0.6393983624020477  0.6810951812222258  1.0000
  S   S4        1.0  0.24218697343611947  0.8606027868521123  0.8188875341092656  1.0000
  N   N1        1.0  0.8622697175508591  0.9832272008245299  0.6382306758652518  1.0000
  N   N2        1.0  0.3622573726131506  0.5167881565329039  0.8617762700038655  1.0000
  N   N3        1.0  0.13772309553007736  0.0167910244817833  0.36176770237631223  1.0000
  N   N4        1.0  0.6377337356725477  0.4832190857664358  0.1382314089698795  1.0000
  N   N5        1.0  0.8195634581792605  0.4485966740000506  0.39819528331309345  1.0000
  N   N6        1.0  0.3195194804588938  0.05138159789901659  0.10182114654158173  1.0000
  N   N7        1.0  0.1804856216061452  0.5513974295592234  0.6018252861240684  1.0000
  N   N8        1.0  0.6804835636451259  0.94859503454488  0.8981717057234991  1.0000
  N   N9        1.0  0.4267549302661635  0.2586768057393484  0.6493971088487172  1.0000
  N   N10       1.0  0.9267335653434259  0.24134718152081544  0.8506213476065839  1.0000
  N   N11       1.0  0.5732464082420776  0.7413291613473163  0.3506041099637898  1.0000
  N   N12       1.0  0.07326265824863039  0.7586485886291499  0.14937519104097421  1.0000
  N   N13       1.0  0.5531197218809822  0.2732291189596694  0.5604919304180598  1.0000
  N   N14       1.0  0.053123313988613995  0.22677405321569202  0.9395127441132163  1.0000
  N   N15       1.0  0.4468696816782015  0.7267610280616735  0.43950375523929364  1.0000
  N   N16       1.0  0.9468729096861637  0.7732171619517487  0.0604807535551899  1.0000
  N   N17       1.0  0.7028801658554613  0.09081803972896547  0.6223990153482789  1.0000
  N   N18       1.0  0.2028864609435388  0.4091926428854151  0.8776054085476946  1.0000
  N   N19       1.0  0.2970990073782005  0.9091776929456757  0.37759595092271786  1.0000
  N   N20       1.0  0.797116582598676  0.5908133053756898  0.12239502406923458  1.0000
