data_image0
_chemical_formula_structural       Zn4H52C74N16F4
_chemical_formula_sum              "Zn4 H52 C74 N16 F4"
_cell_length_a       15.409718454504443
_cell_length_b       17.69683988811881
_cell_length_c       19.12696904283201
_cell_angle_alpha    106.8668335881119
_cell_angle_beta     116.17899523292677
_cell_angle_gamma    96.77233097839935

_space_group_name_H-M_alt    "P 1"
_space_group_IT_number       1

loop_
  _space_group_symop_operation_xyz
  'x, y, z'

loop_
  _atom_site_type_symbol
  _atom_site_label
  _atom_site_symmetry_multiplicity
  _atom_site_fract_x
  _atom_site_fract_y
  _atom_site_fract_z
  _atom_site_occupancy
  Zn  Zn1       1.0  0.6147282086187713  0.1044012445116564  0.9865183742468631  1.0000
  Zn  Zn2       1.0  0.40354299873342114  0.9476730245167602  0.01540984172615372  1.0000
  Zn  Zn3       1.0  0.6389812748138155  0.9963701333398305  0.106370523747529  1.0000
  Zn  Zn4       1.0  0.3692998956169546  0.056404798791618325  0.8996010701905348  1.0000
  H   H1        1.0  0.8051496955794518  0.0759059591341398  0.9525427654484204  1.0000
  H   H2        1.0  0.32149330515520097  0.8393567228954881  0.5851455278175735  1.0000
  H   H3        1.0  0.6445839083267514  0.9442966305182736  0.7293237585923364  1.0000
  H   H4        1.0  0.6510765182627621  0.9076846789306573  0.5975627649370169  1.0000
  H   H5        1.0  0.6078198406603194  0.7950173512145186  0.4497280516233388  1.0000
  H   H6        1.0  0.3943809831188646  0.9444832362891875  0.2958574157855196  1.0000
  H   H7        1.0  0.37451212455869864  0.9169568375952509  0.4078953457668035  1.0000
  H   H8        1.0  0.15083454923747996  0.4490204084971979  0.6220085000796303  1.0000
  H   H9        1.0  0.22784682319221616  0.5773390097134552  0.7468974907880863  1.0000
  H   H10       1.0  0.15969088972016712  0.7159225885686241  0.5874867419218717  1.0000
  H   H11       1.0  0.08186179371033833  0.5879507158720474  0.46263425085061277  1.0000
  H   H12       1.0  0.3631586142401559  0.8994285071590513  0.15269948840374784  1.0000
  H   H13       1.0  0.04267922565026079  0.47108886386403986  0.3616593128103318  1.0000
  H   H14       1.0  0.6741196639860689  0.8409046226854713  0.01076849223703384  1.0000
  H   H15       1.0  0.9952689739216539  0.37088866179321667  0.5280961369832867  1.0000
  H   H16       1.0  0.3710705622990246  0.6090205456764152  0.8646714004261327  1.0000
  H   H17       1.0  0.6934355557768513  0.7177783358208885  0.0192939822492662  1.0000
  H   H18       1.0  0.29829528892514673  0.45976751850696473  0.8217985219793748  1.0000
  H   H19       1.0  0.7164727861760483  0.5834096406151944  0.021346274886084905  1.0000
  H   H20       1.0  0.32069142051030747  0.32752789635999596  0.8332180527748676  1.0000
  H   H21       1.0  0.6426160511072678  0.43718798935967135  0.9903840178045513  1.0000
  H   H22       1.0  0.1886960431369077  0.8423479009559571  0.9800452837042144  1.0000
  H   H23       1.0  0.737498838570531  0.13753727646179212  0.2835396041469523  1.0000
  H   H24       1.0  0.3212824340452372  0.9527330693776296  0.7004770848196102  1.0000
  H   H25       1.0  0.06475806993248062  0.9016709116205492  0.7590326182105471  1.0000
  H   H26       1.0  0.9460268189735503  0.9600171005765291  0.7985966342752138  1.0000
  H   H27       1.0  0.0035683867149103794  0.9317039736546423  0.11720095264138312  1.0000
  H   H28       1.0  0.8773832737096469  0.9893220442696772  0.8937648284147526  1.0000
  H   H29       1.0  0.35330973057133963  0.745517594870556  0.9095161743287931  1.0000
  H   H30       1.0  0.6299149678748538  0.9563295807262835  0.8549216643004701  1.0000
  H   H31       1.0  0.28220212759921287  0.8314548609724642  0.7149947239788689  1.0000
  H   H32       1.0  0.6491238417957065  0.28631068027413425  0.9513418101178249  1.0000
  H   H33       1.0  0.041233754002803595  0.5385590468320132  0.8161723304442462  1.0000
  H   H34       1.0  0.19905631678838645  0.13428577680596024  0.9313188361414647  1.0000
  H   H35       1.0  0.01926262915490897  0.6185527829699852  0.8816994533738196  1.0000
  H   H36       1.0  0.9191395535856658  0.553220274702227  0.7792249753990677  1.0000
  H   H37       1.0  0.9879522053615445  0.6915635806734386  0.7808948765888601  1.0000
  H   H38       1.0  0.008297522670702141  0.6115614214267211  0.7144946857931629  1.0000
  H   H39       1.0  0.18319651648710794  0.6404848587297707  0.8329829589445765  1.0000
  H   H40       1.0  0.16349136054274988  0.7198402268090619  0.8988273890822569  1.0000
  H   H41       1.0  0.6794889643122487  0.7546435760261617  0.18664615243215377  1.0000
  H   H42       1.0  0.700381015703968  0.6819123778373638  0.23539887840551912  1.0000
  H   H43       1.0  0.596369963864099  0.6534040841937525  0.13234215202962937  1.0000
  H   H44       1.0  0.5330500528135432  0.6795134706741452  0.23477604610880592  1.0000
  H   H45       1.0  0.3169213057816335  0.03665494348290821  0.12570631744971195  1.0000
  H   H46       1.0  0.5196337483913993  0.7544555611409509  0.19006589697490034  1.0000
  H   H47       1.0  0.6916691193785452  0.8467909648455175  0.3216638062339854  1.0000
  H   H48       1.0  0.6821500284454629  0.7747063164145516  0.3664282539319786  1.0000
  H   H49       1.0  0.7286263915757728  0.2786724587583436  0.1306399540676395  1.0000
  H   H50       1.0  0.34232884327224156  0.23491251058520396  0.904667663756797  1.0000
  H   H51       1.0  0.6875051777167372  0.9440128725852192  0.2801335610590954  1.0000
  H   H52       1.0  0.3282566303517172  0.8056186066673662  0.4534375879316457  1.0000
  C   C1        1.0  0.8021496805012873  0.048188273383239305  0.9954996986044192  1.0000
  C   C2        1.0  0.7183565095092986  0.23333998153736962  0.15624829678982632  1.0000
  C   C3        1.0  0.4177487451133218  0.2345077169492455  0.9157633601909226  1.0000
  C   C4        1.0  0.18135032910711146  0.7469217653301925  0.8037051561143187  1.0000
  C   C5        1.0  0.6084016900010597  0.9353164546692485  0.23799154119710414  1.0000
  C   C6        1.0  0.4928108237146134  0.29491590878772916  0.9232628493439421  1.0000
  C   C7        1.0  0.5229537935126133  0.9091554052935537  0.24409676967232502  1.0000
  C   C8        1.0  0.7718470510668212  0.23704762985523334  0.23960963455445491  1.0000
  C   C9        1.0  0.2299487415281405  0.10188360990785841  0.04442308810285312  1.0000
  C   C10       1.0  0.3979076059028088  0.8360888667555246  0.5140963485444416  1.0000
  C   C11       1.0  0.3941753312276149  0.8556045417227269  0.5884469202036016  1.0000
  C   C12       1.0  0.21316054708972845  0.734250293904836  0.7442598904382507  1.0000
  C   C13       1.0  0.4820430703015008  0.8981902783725317  0.6675081768865782  1.0000
  C   C14       1.0  0.5748141381737425  0.9119664861878789  0.6690390554156381  1.0000
  C   C15       1.0  0.5787224223068536  0.8912283858224799  0.5946962208009268  1.0000
  C   C16       1.0  0.5940555555898541  0.8306673433510811  0.9888355275842786  1.0000
  C   C17       1.0  0.4898453727971275  0.8569638887727467  0.5156299887536236  1.0000
  C   C18       1.0  0.5608656359166063  0.8281898324236963  0.41591256879251415  1.0000
  C   C19       1.0  0.5704975203623591  0.840058411071489  0.35004599782663354  1.0000
  C   C20       1.0  0.5125320256811463  0.8857977699575345  0.3082514943970337  1.0000
  C   C21       1.0  0.4400201043320139  0.9099684935527181  0.3283463130977254  1.0000
  C   C22       1.0  0.42857169750212176  0.8945214845756624  0.3913364653224037  1.0000
  C   C23       1.0  0.5177830731178048  0.7563508988117108  0.9519891674454257  1.0000
  C   C24       1.0  0.4922050491524388  0.8564371617780682  0.43902170747217184  1.0000
  C   C25       1.0  0.15061909524057193  0.5074120347297467  0.6136365097625572  1.0000
  C   C26       1.0  0.1945839120509875  0.5804548837599058  0.6847413238521156  1.0000
  C   C27       1.0  0.19382943485769033  0.6570634622618955  0.677120173347582  1.0000
  C   C28       1.0  0.3958916036223884  0.9593065918822961  0.7501611338406065  1.0000
  C   C29       1.0  0.159276084323075  0.6574134722352127  0.5956547724233374  1.0000
  C   C30       1.0  0.11504171469944419  0.584602136608325  0.5247456206747358  1.0000
  C   C31       1.0  0.10334125846281948  0.507509437308535  0.5316770765202747  1.0000
  C   C32       1.0  0.002470227919488349  0.4266668876099899  0.37422252713815846  1.0000
  C   C33       1.0  0.9200447936824432  0.3634896724639561  0.306259160897426  1.0000
  C   C34       1.0  0.47677691371477227  0.9343904945265181  0.7442843848081893  1.0000
  C   C35       1.0  0.8602788774749685  0.3015189952562665  0.31223215585851705  1.0000
  C   C36       1.0  0.8970206012192322  0.3075074832039135  0.3959093185561216  1.0000
  C   C37       1.0  0.9780750062632038  0.3697621827451912  0.4661059414893103  1.0000
  C   C38       1.0  0.03130806686171888  0.43282532383776134  0.4568754704406075  1.0000
  C   C39       1.0  0.5295077545105259  0.6737204259256375  0.9425737862136644  1.0000
  C   C40       1.0  0.43033677571298784  0.7819525526191455  0.9369163200182627  1.0000
  C   C41       1.0  0.4838596143214814  0.3732657934075832  0.9140942575976609  1.0000
  C   C42       1.0  0.37380081577325797  0.4549950557576424  0.8588456105036073  1.0000
  C   C43       1.0  0.3863262966535926  0.38131975869359996  0.8656929944664853  1.0000
  C   C44       1.0  0.5671295101584591  0.4413084480475149  0.9522214167751316  1.0000
  C   C45       1.0  0.5746449690510502  0.26103712021271974  0.940778922907427  1.0000
  C   C46       1.0  0.5567636595219696  0.5178637141465785  0.9460929462470133  1.0000
  C   C47       1.0  0.4578612002278745  0.5259917363904947  0.8999455111874326  1.0000
  C   C48       1.0  0.44708651551114553  0.6040220661299076  0.899109826335213  1.0000
  C   C49       1.0  0.6276045529359208  0.6639451543740194  0.9850326660658199  1.0000
  C   C50       1.0  0.640728467150602  0.5888320554886164  0.9866566963650245  1.0000
  C   C51       1.0  0.1315587656832165  0.8669944781426794  0.8662649991058302  1.0000
  C   C52       1.0  0.5539699977531855  0.9624828138117467  0.8288170753206217  1.0000
  C   C53       1.0  0.9310999372053745  0.9653675712317384  0.0076446873357414145  1.0000
  C   C54       1.0  0.06526580816981925  0.9006118154975129  0.036171856776355954  1.0000
  C   C55       1.0  0.0005415648546220006  0.9320476586852425  0.05936923952270233  1.0000
  C   C56       1.0  0.4433526885523946  0.9144753996578316  0.17364459835165746  1.0000
  C   C57       1.0  0.9307315376999554  0.9649782448874974  0.9348537174335547  1.0000
  C   C58       1.0  0.9973960086660725  0.9327633057325073  0.911232056276674  1.0000
  C   C59       1.0  0.06727049250872591  0.8985692462862718  0.9625098440472185  1.0000
  C   C60       1.0  0.13468514709394724  0.8663496538860544  0.9392654843209202  1.0000
  C   C61       1.0  0.06342526393761719  0.9012883467074888  0.8153450107227372  1.0000
  C   C62       1.0  0.9981707071677806  0.9332712739433904  0.8375128822885146  1.0000
  C   C63       1.0  0.24597189515294116  0.8143605149181002  0.7477845743690069  1.0000
  C   C64       1.0  0.8240373460852554  0.9851603452577327  0.08148783644607262  1.0000
  C   C65       1.0  0.8596583021696845  0.998270480112844  0.028829280427437935  1.0000
  C   C66       1.0  0.14298913409146516  0.6878919869680333  0.8327667605142821  1.0000
  C   C67       1.0  0.7229028116047118  0.16140849088692732  0.23450381721007585  1.0000
  C   C68       1.0  0.02902518853198184  0.6447463778623401  0.780514465071171  1.0000
  C   C69       1.0  0.00021319284008565785  0.5854643127913661  0.8161228411471058  1.0000
  C   C70       1.0  0.6369726994468652  0.8004719802479416  0.32127370948374095  1.0000
  C   C71       1.0  0.575962286081513  0.7319583098761486  0.2321228600472481  1.0000
  C   C72       1.0  0.6415658626843881  0.7037689377928658  0.1947528569214399  1.0000
  C   C73       1.0  0.235333277765548  0.10348739551478302  0.973442444113509  1.0000
  C   C74       1.0  0.2941005143657236  0.05445652860153422  0.07161026998183223  1.0000
  N   N1        1.0  0.7386757482072497  0.06145919768420071  0.02529048436742447  1.0000
  N   N2        1.0  0.5553728094780014  0.8953164496121747  0.9962311942582859  1.0000
  N   N3        1.0  0.42393538219123184  0.9987478056805087  0.8316499492701582  1.0000
  N   N4        1.0  0.45386703643438836  0.8647242294017659  0.9633286263651256  1.0000
  N   N5        1.0  0.521793228369475  0.0017535062500328988  0.8806655103938396  1.0000
  N   N6        1.0  0.23254821079837024  0.8721717626722808  0.8011657435062816  1.0000
  N   N7        1.0  0.7523938786800315  0.021413402441531598  0.0797699941908904  1.0000
  N   N8        1.0  0.5489631687165258  0.1859560487973795  0.9417495439499107  1.0000
  N   N9        1.0  0.4786772807314393  0.9408718986372194  0.12944675634615524  1.0000
  N   N10       1.0  0.6489567601034949  0.11619371880296825  0.15429348545869478  1.0000
  N   N11       1.0  0.2944235899120926  0.0577919994751923  0.9567145782437763  1.0000
  N   N12       1.0  0.3324682989781281  0.027119533870980195  0.01925584803495894  1.0000
  N   N13       1.0  0.6459944758106531  0.16087261429456137  0.10625080139040947  1.0000
  N   N14       1.0  0.4519908921684817  0.170152613649158  0.9270178830721109  1.0000
  N   N15       1.0  0.5808262946634813  0.9535808912183797  0.16887548489819448  1.0000
  N   N16       1.0  0.19286046606219306  0.8308245167155451  0.8358621789393085  1.0000
  F   F1        1.0  0.8951090005391152  0.36201882459396745  0.22767537536264387  1.0000
  F   F2        1.0  0.8471819830539006  0.24953162220005262  0.4099969892625098  1.0000
  F   F3        1.0  0.13251381572072768  0.8693534487171348  0.08689501950064475  1.0000
  F   F4        1.0  0.8509415053967827  0.939839715626789  0.12950890147554628  1.0000
