data_image0
_chemical_formula_structural       Cu4H52C46N4O16
_chemical_formula_sum              "Cu4 H52 C46 N4 O16"
_cell_length_a       8.593998644717008
_cell_length_b       13.212526284258855
_cell_length_c       15.247770465578924
_cell_angle_alpha    115.65593093848713
_cell_angle_beta     103.16984319187115
_cell_angle_gamma    90.01421722666127

_space_group_name_H-M_alt    "P 1"
_space_group_IT_number       1

loop_
  _space_group_symop_operation_xyz
  'x, y, z'

loop_
  _atom_site_type_symbol
  _atom_site_label
  _atom_site_symmetry_multiplicity
  _atom_site_fract_x
  _atom_site_fract_y
  _atom_site_fract_z
  _atom_site_occupancy
  Cu  Cu1       1.0  0.9177795064628925  0.0044594290978352625  0.4200244281251813  1.0000
  Cu  Cu2       1.0  0.5822680453291299  0.5844412331483682  0.5799468800524253  1.0000
  Cu  Cu3       1.0  0.08222216526682766  0.9955435641867537  0.5799816105987149  1.0000
  Cu  Cu4       1.0  0.4177283958025981  0.41554958066066655  0.4200444195976872  1.0000
  H   H1        1.0  0.7999225951691857  0.19318834200679882  0.3618498524446423  1.0000
  H   H2        1.0  0.7003210860700834  0.8312835974110512  0.6381755553218298  1.0000
  H   H3        1.0  0.2000734689965072  0.8068125234131783  0.6381489791450863  1.0000
  H   H4        1.0  0.2996787096806058  0.16872049002221684  0.3618273492219259  1.0000
  H   H5        1.0  0.5817216661106742  0.22229906043462927  0.23977995829304186  1.0000
  H   H6        1.0  0.9185438123129119  0.9824017711385193  0.7602322438273036  1.0000
  H   H7        1.0  0.418276650647485  0.7777019661989611  0.7602181878240588  1.0000
  H   H8        1.0  0.08145505897154239  0.017601140990855375  0.23977117594503036  1.0000
  H   H9        1.0  0.43918077492222113  0.8617485398802882  0.09716358612283227  1.0000
  H   H10       1.0  0.060626115281841975  0.7645517506245906  0.9030758896164529  1.0000
  H   H11       1.0  0.5608223109370414  0.13824982082004292  0.9028318874145498  1.0000
  H   H12       1.0  0.9393759219388402  0.2354492220986444  0.09692304740294592  1.0000
  H   H13       1.0  0.6654690983326644  0.8491294676943112  0.22635861166477167  1.0000
  H   H14       1.0  0.83432172589675  0.6227876287711566  0.773865968424154  1.0000
  H   H15       1.0  0.3345318813514454  0.15087149631290922  0.7736411631952578  1.0000
  H   H16       1.0  0.16567912071703012  0.3772145018239427  0.226134129047928  1.0000
  H   H17       1.0  0.2965252001915388  0.12702902666175217  0.1162105320946338  1.0000
  H   H18       1.0  0.2035190235319035  0.010721608139952661  0.8837453989679603  1.0000
  H   H19       1.0  0.703476834804647  0.872971290876755  0.883787748514422  1.0000
  H   H20       1.0  0.7964815435942328  0.9892789245225231  0.11625140526616214  1.0000
  H   H21       1.0  0.4263110297698206  0.0928293841016199  0.0371891371299213  1.0000
  H   H22       1.0  0.0737441543233217  0.05554818263477278  0.9627615766428833  1.0000
  H   H23       1.0  0.5736895373563158  0.9071711485608559  0.9628076671042011  1.0000
  H   H24       1.0  0.926255630304887  0.9444526288748492  0.037238045849143545  1.0000
  H   H25       1.0  0.18328551042318966  0.9250693500565176  0.03945675248571236  1.0000
  H   H26       1.0  0.3168010112270779  0.8856832970389589  0.9606843028791802  1.0000
  H   H27       1.0  0.8167141389101928  0.07493197285625537  0.960542536208024  1.0000
  H   H28       1.0  0.68319862920832  0.11431540513488868  0.03931236017317016  1.0000
  H   H29       1.0  0.32364304963223833  0.8583574434619975  0.2835323520773939  1.0000
  H   H30       1.0  0.1763938999526999  0.5746932445686922  0.7164503262701204  1.0000
  H   H31       1.0  0.6763590009354206  0.14164746036961862  0.7164705234040696  1.0000
  H   H32       1.0  0.8236166312805935  0.42530631868040547  0.2835480418925442  1.0000
  H   H33       1.0  0.4618312929120947  0.9678459663613522  0.38581752774895495  1.0000
  H   H34       1.0  0.038277916655374646  0.5819846724168584  0.6141748855922062  1.0000
  H   H35       1.0  0.5381663855409543  0.032157448455158916  0.6141863960657191  1.0000
  H   H36       1.0  0.9617176289285609  0.4180134834897728  0.3858254626209714  1.0000
  H   H37       1.0  0.5557274300637829  0.785533534273071  0.3646253526595444  1.0000
  H   H38       1.0  0.9442455155424768  0.42080409387911266  0.635333553856384  1.0000
  H   H39       1.0  0.44427687087184603  0.21447087558743763  0.6353761809389483  1.0000
  H   H40       1.0  0.055757750454141365  0.5791955521394384  0.3646716693993568  1.0000
  H   H41       1.0  0.5068889816151841  0.8550336313521926  0.48134015549109693  1.0000
  H   H42       1.0  0.99307112150386  0.37371426583442247  0.5186059040706185  1.0000
  H   H43       1.0  0.4931134659389756  0.14496711753105976  0.518661095743859  1.0000
  H   H44       1.0  0.006935071334865532  0.6262823291972736  0.4813996462935963  1.0000
  H   H45       1.0  0.29372268238066124  0.6595353400080342  0.2926377783537149  1.0000
  H   H46       1.0  0.20620124830183076  0.3667606205094812  0.7072794144697242  1.0000
  H   H47       1.0  0.7062797336779597  0.34046754326223533  0.7073579954232514  1.0000
  H   H48       1.0  0.7938006940175414  0.6332413499688131  0.2927272918507598  1.0000
  H   H49       1.0  0.2329511053207797  0.7411774405005074  0.40405915619074045  1.0000
  H   H50       1.0  0.266998428620802  0.33711287516913296  0.5958682858730101  1.0000
  H   H51       1.0  0.7670522555771343  0.25882120776299183  0.5959382977639153  1.0000
  H   H52       1.0  0.7330079106352302  0.6628864843830654  0.40414088034121676  1.0000
  C   C1        1.0  0.7181732131121593  0.12182074462945275  0.3008877802453114  1.0000
  C   C2        1.0  0.7819668505503189  0.8208602938992157  0.6991605319298132  1.0000
  C   C3        1.0  0.28182537646016215  0.8781799143825709  0.6991116898787127  1.0000
  C   C4        1.0  0.21803174347098772  0.17914167548226348  0.3008402510149041  1.0000
  C   C5        1.0  0.5961312582671496  0.136940208915874  0.23173661052666017  1.0000
  C   C6        1.0  0.9040489708289032  0.905093643496201  0.7682901426821332  1.0000
  C   C7        1.0  0.4038685219120738  0.8630592922242926  0.7682616991446737  1.0000
  C   C8        1.0  0.09594736837543391  0.09490750948693717  0.23171066932486892  1.0000
  C   C9        1.0  0.4926403427309793  0.04332939366422287  0.15465253615391822  1.0000
  C   C10       1.0  0.0074347993368207395  0.888591743831483  0.8454348538466546  1.0000
  C   C11       1.0  0.5073615569703808  0.9566714352774282  0.8453454106568402  1.0000
  C   C12       1.0  0.9925602072923001  0.11140911287246513  0.15456481558370427  1.0000
  C   C13       1.0  0.5166954248041054  0.9380322643476475  0.1535952635481551  1.0000
  C   C14       1.0  0.9832458849782171  0.7843975385203873  0.8465772002420096  1.0000
  C   C15       1.0  0.48330886278454716  0.06196821440448005  0.8464023315882658  1.0000
  C   C16       1.0  0.016754037169320713  0.21560341677081843  0.15342341245865038  1.0000
  C   C17       1.0  0.6429376269339715  0.9299613336197863  0.2253082722543382  1.0000
  C   C18       1.0  0.8569874450966851  0.7046284982470822  0.7748558881972799  1.0000
  C   C19       1.0  0.3570644191846953  0.07004225984236692  0.7746932904064396  1.0000
  C   C20       1.0  0.14301739256926285  0.2953725556313742  0.22514566777368125  1.0000
  C   C21       1.0  0.3655586764891937  0.0591874913306043  0.07699241219251722  1.0000
  C   C22       1.0  0.1345196705118994  0.9821332915158435  0.9230294497259239  1.0000
  C   C23       1.0  0.6344445535628864  0.9408129787055087  0.9230060207845414  1.0000
  C   C24       1.0  0.8654799765969868  0.017867376212194596  0.07696918255746249  1.0000
  C   C25       1.0  0.25004449300428183  0.9552396118503806  4.8037882308390405e-05  1.0000
  C   C26       1.0  0.7499575419919041  0.04476070568812642  0.9999502427267473  1.0000
  C   C27       1.0  0.2362788533750405  0.9432056526521888  0.4148317881655075  1.0000
  C   C28       1.0  0.26376541874014264  0.528347386825608  0.5851434067045461  1.0000
  C   C29       1.0  0.7637229469760244  0.05679486367505857  0.585172615125643  1.0000
  C   C30       1.0  0.7362360865518057  0.4716469452759071  0.41485310847622975  1.0000
  C   C31       1.0  0.37238365719181843  0.8965188466830722  0.3655241711988779  1.0000
  C   C32       1.0  0.1276620281080056  0.5309257597664612  0.6344573498619114  1.0000
  C   C33       1.0  0.6276164024750416  0.10348225238971043  0.6344774317104225  1.0000
  C   C34       1.0  0.8723413394633968  0.4690748540512287  0.3655420733237805  1.0000
  C   C35       1.0  0.45517078297069  0.8125329234908207  0.39980162208096465  1.0000
  C   C36       1.0  0.044804455023495435  0.41265645438571835  0.6001438276061962  1.0000
  C   C37       1.0  0.5448290038820219  0.18746854320352918  0.6001986568214123  1.0000
  C   C38       1.0  0.955197205583744  0.5873432629752173  0.39985892906597803  1.0000
  C   C39       1.0  0.3383680651127606  0.7107389334016289  0.3743064176448812  1.0000
  C   C40       1.0  0.16158233167542593  0.3363463264218393  0.6256079338517964  1.0000
  C   C41       1.0  0.661633827915111  0.2892599299858388  0.6256895599348412  1.0000
  C   C42       1.0  0.838422539710564  0.6636532482543273  0.3743997559875041  1.0000
  C   C43       1.0  0.4027270765611063  0.6328433565797197  0.42020758367456784  1.0000
  C   C44       1.0  0.0972773047679354  0.2125617832547561  0.5797196521771256  1.0000
  C   C45       1.0  0.5972725638742916  0.36715534559412766  0.5797890793777825  1.0000
  C   C46       1.0  0.9027266488253004  0.7874385816717079  0.42029052212178897  1.0000
  N   N1        1.0  0.7438867174902911  0.019720344062427758  0.29739031116509557  1.0000
  N   N2        1.0  0.7561472830886444  0.7222742839241715  0.7026942201136634  1.0000
  N   N3        1.0  0.2561154661476977  0.9802833931813097  0.7026122417043156  1.0000
  N   N4        1.0  0.24385158374681745  0.27772731783574045  0.2973078868379773  1.0000
  O   O1        1.0  0.11103051139020449  0.9614232909038661  0.3624544655936647  1.0000
  O   O2        1.0  0.38900561053051774  0.5989540165187889  0.6374735012610985  1.0000
  O   O3        1.0  0.8889710046716317  0.03858562409453004  0.6375490439256738  1.0000
  O   O4        1.0  0.6109924315415897  0.40103541557839856  0.36251895215188773  1.0000
  O   O5        1.0  0.2571102507116407  0.9596533103109336  0.5055346991045084  1.0000
  O   O6        1.0  0.24293678754392545  0.45403669251694345  0.4944697788030155  1.0000
  O   O7        1.0  0.7428801043152334  0.04034445944528635  0.4944627254210945  1.0000
  O   O8        1.0  0.7570450445518804  0.545953969311924  0.5055196812448345  1.0000
  O   O9        1.0  0.4962876588735982  0.677179205074033  0.5084967703217985  1.0000
  O   O10       1.0  0.0038490126743439975  0.1685912845982712  0.49138858215366815  1.0000
  O   O11       1.0  0.5036988451975118  0.32280913339191375  0.4914971300370752  1.0000
  O   O12       1.0  0.9961417749309689  0.831412813165258  0.5086177206909568  1.0000
  O   O13       1.0  0.3533900044034724  0.527806259099158  0.3671460514951121  1.0000
  O   O14       1.0  0.14656119887576588  0.1606342539931446  0.6328408648465783  1.0000
  O   O15       1.0  0.646605753580623  0.4721851461714336  0.6328416099325126  1.0000
  O   O16       1.0  0.8534408698404548  0.8393645843430801  0.3671635496308171  1.0000
