data_image0
_chemical_formula_structural       Cu2H8C12I2N2Cl2O4
_chemical_formula_sum              "Cu2 H8 C12 I2 N2 Cl2 O4"
_cell_length_a       4.08029659727462
_cell_length_b       6.675030054589015
_cell_length_c       15.882632476005163
_cell_angle_alpha    94.98858317713359
_cell_angle_beta     91.9988764642909
_cell_angle_gamma    96.73739454516966

_space_group_name_H-M_alt    "P 1"
_space_group_IT_number       1

loop_
  _space_group_symop_operation_xyz
  'x, y, z'

loop_
  _atom_site_type_symbol
  _atom_site_label
  _atom_site_symmetry_multiplicity
  _atom_site_fract_x
  _atom_site_fract_y
  _atom_site_fract_z
  _atom_site_occupancy
  Cu  Cu1       1.0  0.24527696055962167  0.9826035628735355  0.9449667931682272  1.0000
  Cu  Cu2       1.0  0.7546575654862834  0.017406072387892397  0.055035536279042716  1.0000
  H   H1        1.0  0.03145109516341187  0.3627702507075197  0.8914822420077968  1.0000
  H   H2        1.0  0.968519248653422  0.6372458188324186  0.10851129477376281  1.0000
  H   H3        1.0  0.9431125192608646  0.5143649623076314  0.7560526575069418  1.0000
  H   H4        1.0  0.0568861517211872  0.485631683687103  0.24393407474114787  1.0000
  H   H5        1.0  0.4508300183940719  0.8871400411324898  0.7690742405185348  1.0000
  H   H6        1.0  0.5491558241371025  0.11285726225582239  0.2309381989602386  1.0000
  H   H7        1.0  0.864993937189567  0.5821787162852416  0.5525131846612865  1.0000
  H   H8        1.0  0.13506193747407746  0.41783597465915523  0.4474824707372776  1.0000
  C   C1        1.0  0.1053824207905834  0.2915830807835107  0.8318699025288083  1.0000
  C   C2        1.0  0.8945811990526311  0.7084115737987631  0.16812896462043622  1.0000
  C   C3        1.0  0.05771934092722121  0.3751820662917353  0.7561665871127943  1.0000
  C   C4        1.0  0.9422663094459268  0.6248248281364255  0.2438305086569841  1.0000
  C   C5        1.0  0.1542645965113323  0.2817272144099903  0.6798510470303186  1.0000
  C   C6        1.0  0.8457564079748322  0.7182599468900506  0.3201493816355665  1.0000
  C   C7        1.0  0.30183282492217245  0.10203061128731147  0.685138952192574  1.0000
  C   C8        1.0  0.6981631017233171  0.8979657455131829  0.31485655421713693  1.0000
  C   C9        1.0  0.33792251254494227  0.0262807067407991  0.7638500581566633  1.0000
  C   C10       1.0  0.6620553908471437  0.9737123212926663  0.2361533019915854  1.0000
  C   C11       1.0  0.0923029633297645  0.3751660477452603  0.5997029282238416  1.0000
  C   C12       1.0  0.9077314541023327  0.6248149426601373  0.4003017943016688  1.0000
  I   I1        1.0  0.30617287776787094  0.27199554824429834  0.0687625164362728  1.0000
  I   I2        1.0  0.6937760298698594  0.7280235662901263  0.9312290286807894  1.0000
  N   N1        1.0  0.24136612467023613  0.11766512578057588  0.8358581906058762  1.0000
  N   N2        1.0  0.758608095471935  0.8823340121669361  0.16414349618912644  1.0000
  Cl  Cl1       1.0  0.44191628390987603  0.964837886757877  0.6003230443830248  1.0000
  Cl  Cl2       1.0  0.5581175661517292  0.035153559998626294  0.3996865166281439  1.0000
  O   O1        1.0  0.20831882940763083  0.32041259881260936  0.5312966314902354  1.0000
  O   O2        1.0  0.7917724757004122  0.6795946751680333  0.46869657514324814  1.0000
  O   O3        1.0  0.9023351573068085  0.5224605054118071  0.6092642977690305  1.0000
  O   O4        1.0  0.0976971517279068  0.47753552123165116  0.3907441786357069  1.0000
