data_image0
_chemical_formula_structural       Cd2H56C52N8O12
_chemical_formula_sum              "Cd2 H56 C52 N8 O12"
_cell_length_a       10.34874737291083
_cell_length_b       10.474580479162006
_cell_length_c       13.69822705357407
_cell_angle_alpha    98.13140523269581
_cell_angle_beta     105.92483778573168
_cell_angle_gamma    106.27436095107318

_space_group_name_H-M_alt    "P 1"
_space_group_IT_number       1

loop_
  _space_group_symop_operation_xyz
  'x, y, z'

loop_
  _atom_site_type_symbol
  _atom_site_label
  _atom_site_symmetry_multiplicity
  _atom_site_fract_x
  _atom_site_fract_y
  _atom_site_fract_z
  _atom_site_occupancy
  Cd  Cd1       1.0  0.6053432167129671  0.8868392164446134  0.9315427560670884  1.0000
  Cd  Cd2       1.0  0.39465812931650396  0.11316156134765977  0.06845773932768405  1.0000
  H   H1        1.0  0.7086762034991096  0.20359549424968285  0.5184002178648158  1.0000
  H   H2        1.0  0.2913241374080827  0.7964052828014588  0.48160007014997325  1.0000
  H   H3        1.0  0.5257650602621453  0.44343464331146987  0.2787760260511051  1.0000
  H   H4        1.0  0.4742356373684373  0.5565671573258725  0.7212244462360716  1.0000
  H   H5        1.0  0.10431715301072593  0.7706324176231263  0.6974291954998719  1.0000
  H   H6        1.0  0.8956854914448158  0.2293663150125909  0.3025720765259621  1.0000
  H   H7        1.0  0.1617463063416054  0.6261968751203851  0.7062735441766393  1.0000
  H   H8        1.0  0.8382553329916576  0.3738018567742003  0.29372752046921147  1.0000
  H   H9        1.0  0.9106250475331094  0.5579470171564296  0.5924387616064523  1.0000
  H   H10       1.0  0.08937659017185953  0.4420517142045668  0.4075615726235355  1.0000
  H   H11       1.0  0.9836242717920454  0.39576343771689443  0.6941328304190293  1.0000
  H   H12       1.0  0.01637772589289455  0.6042363182975024  0.3058691489150719  1.0000
  H   H13       1.0  0.8043871103870045  0.3830578909077643  0.6827081729121076  1.0000
  H   H14       1.0  0.19561287379679732  0.6169418625571693  0.3172919308303008  1.0000
  H   H15       1.0  0.9424983637123887  0.3923665175337376  0.866482350779876  1.0000
  H   H16       1.0  0.05749996857854002  0.607634258568737  0.13351825289082342  1.0000
  H   H17       1.0  0.183395891123304  0.5318417546056153  0.8672099286050567  1.0000
  H   H18       1.0  0.8166037412219821  0.4681569768739068  0.13279218211255997  1.0000
  H   H19       1.0  0.1400792019602477  0.6074351681755771  0.9727150634785887  1.0000
  H   H20       1.0  0.8599187736072835  0.39256458434069685  0.027285355919723094  1.0000
  H   H21       1.0  0.04198899440382314  0.8804799716517021  0.8478055547508278  1.0000
  H   H22       1.0  0.9580123516256478  0.11952080614056372  0.15219494064393765  1.0000
  H   H23       1.0  0.05607131796423919  0.8170405958293473  0.9608211996441299  1.0000
  H   H24       1.0  0.9439296713418415  0.18295915837671828  0.039179111478262044  1.0000
  H   H25       1.0  0.7228834802915429  0.5847447949191109  0.6706817352734051  1.0000
  H   H26       1.0  0.2771165006356782  0.41525495747863056  0.3293169076372777  1.0000
  H   H27       1.0  0.8425722196568443  0.7450415657987008  0.674970130138803  1.0000
  H   H28       1.0  0.1574307766372129  0.25495818882243526  0.3250291349118157  1.0000
  H   H29       1.0  0.8810434428863656  0.5841024268670978  0.9520306211049531  1.0000
  H   H30       1.0  0.11895488614797509  0.4158983481681774  0.04796852173401334  1.0000
  H   H31       1.0  0.7441217295359054  0.48995012103551977  0.8325537695722929  1.0000
  H   H32       1.0  0.2558769562218259  0.5100516775859631  0.167445557539061  1.0000
  H   H33       1.0  0.3847373012837352  0.019647921747861098  0.8025583804795745  1.0000
  H   H34       1.0  0.6152599575804416  0.9803497825288049  0.19744020954224345  1.0000
  H   H35       1.0  0.3416796268332689  0.11863271797901828  0.6427358109261263  1.0000
  H   H36       1.0  0.6583220108717001  0.8813660133819781  0.35726452330385433  1.0000
  H   H37       1.0  0.7631926406565553  0.13086509073604446  0.645197866792806  1.0000
  H   H38       1.0  0.23680698680385598  0.8691336391426813  0.35480205267721493  1.0000
  H   H39       1.0  0.7869516832614352  0.0326294498214992  0.801102261433073  1.0000
  H   H40       1.0  0.2130455772310285  0.9673682549887627  0.1988970590046151  1.0000
  H   H41       1.0  0.4789159998785096  0.23046364225321272  0.3481008578704846  1.0000
  H   H42       1.0  0.5210849894275711  0.7695361119528528  0.6518994532519076  1.0000
  H   H43       1.0  0.6539064624601495  0.24156321727568297  0.34821989270888315  1.0000
  H   H44       1.0  0.3460948835693216  0.7584375605165833  0.6517806026858894  1.0000
  H   H45       1.0  0.5774328693377201  0.4570329520527353  0.4763365256809991  1.0000
  H   H46       1.0  0.4225657497438321  0.5429657760176667  0.5236617255773197  1.0000
  H   H47       1.0  0.7524155456588416  0.47104702511735047  0.4754748271508761  1.0000
  H   H48       1.0  0.24758343340268144  0.528952727606459  0.5245250692115562  1.0000
  H   H49       1.0  0.4449153914142555  0.6322453972799593  0.009897953078265687  1.0000
  H   H50       1.0  0.5550866030141036  0.36775435766723763  0.9901025654241027  1.0000
  H   H51       1.0  0.4760112735238097  0.5125009165738063  0.15529976137901264  1.0000
  H   H52       1.0  0.5239890673833827  0.48749986047733534  0.8447005266357837  1.0000
  H   H53       1.0  0.9093763142284885  0.7917291568455768  0.2887976829228408  1.0000
  H   H54       1.0  0.09062237315752951  0.20827264230950254  0.7112023746043763  1.0000
  H   H55       1.0  0.8612545045477019  0.8955055336535552  0.13128574373727986  1.0000
  H   H56       1.0  0.13874482798063068  0.10449524158926239  0.8687128760657999  1.0000
  C   C1        1.0  0.28499531413133644  0.8070967577515445  0.890281098312336  1.0000
  C   C2        1.0  0.7150053184513608  0.1929019728683201  0.10971902853766845  1.0000
  C   C3        1.0  0.08986518868901078  0.6767323514885604  0.7270623976810883  1.0000
  C   C4        1.0  0.9101358038736577  0.32326740378469754  0.27293937427302944  1.0000
  C   C5        1.0  0.9348861904325928  0.5817441383701335  0.6775634657103354  1.0000
  C   C6        1.0  0.0651131404674389  0.41825663633908067  0.3224344236768887  1.0000
  C   C7        1.0  0.9163707613604473  0.4504345568320856  0.7177972809370561  1.0000
  C   C8        1.0  0.08363022631734653  0.5495651968403834  0.282202299769466  1.0000
  C   C9        1.0  0.9551676706593923  0.48652165902794314  0.8372755970704449  1.0000
  C   C10       1.0  0.04483101835491961  0.5134801406607393  0.1627251908726421  1.0000
  C   C11       1.0  0.11055133629904661  0.5818898021312224  0.8868698774349825  1.0000
  C   C12       1.0  0.8894503713386824  0.41811200084804057  0.11313299347975916  1.0000
  C   C13       1.0  0.12920045685914522  0.7145742562094525  0.8474306561624305  1.0000
  C   C14       1.0  0.8708005324469353  0.28542549799661293  0.15256965495995445  1.0000
  C   C15       1.0  0.02874662015231888  0.7857718988631107  0.8755487484365291  1.0000
  C   C16       1.0  0.9712503486646397  0.21422785237843558  0.12445073316593637  1.0000
  C   C17       1.0  0.8727205634326366  0.6905457050259541  0.826085538521305  1.0000
  C   C18       1.0  0.12728042424515715  0.30945404864651493  0.17391404218522416  1.0000
  C   C19       1.0  0.8346684976113822  0.6526607185606963  0.7059429617152021  1.0000
  C   C20       1.0  0.1653324900664117  0.3473390351117729  0.2940566189913199  1.0000
  C   C21       1.0  0.8558628701638894  0.5582058467152181  0.8665644271221853  1.0000
  C   C22       1.0  0.1441400610822825  0.4417908378884333  0.13343449249126854  1.0000
  C   C23       1.0  0.7701729597544259  0.757998536109831  0.8534332369795836  1.0000
  C   C24       1.0  0.22982501255652468  0.2420012153392434  0.1465657215870024  1.0000
  C   C25       1.0  0.4648540713808202  0.04676667519341039  0.7644080275894964  1.0000
  C   C26       1.0  0.5351462711546588  0.9532341023913202  0.23559299084116256  1.0000
  C   C27       1.0  0.4415402346931003  0.10111853240712781  0.676923211025276  1.0000
  C   C28       1.0  0.5584604645657693  0.8988832687638182  0.3230779916777637  1.0000
  C   C29       1.0  0.5475978168210035  0.1328357846646142  0.6305885461806114  1.0000
  C   C30       1.0  0.45240180901112126  0.8671629446805228  0.36941064287355385  1.0000
  C   C31       1.0  0.6751059085220987  0.10953516516024561  0.6762041802859643  1.0000
  C   C32       1.0  0.32489235709264375  0.8904625403911482  0.3237953475317  1.0000
  C   C33       1.0  0.6906454662535068  0.054996907280141706  0.7640992862428319  1.0000
  C   C34       1.0  0.3093528009895295  0.9450007988048483  0.23590097199070215  1.0000
  C   C35       1.0  0.5129191917082212  0.18796133567963122  0.5341769279434487  1.0000
  C   C36       1.0  0.48708007577221935  0.8120363695457016  0.4658213464224661  1.0000
  C   C37       1.0  0.5923331604179295  0.2720948948220681  0.39520023255463604  1.0000
  C   C38       1.0  0.4076668221375784  0.7279048581092696  0.6047991407719097  1.0000
  C   C39       1.0  0.6392383502670784  0.42840898936925964  0.42830218996864045  1.0000
  C   C40       1.0  0.3607619873835333  0.5715917866146897  0.5716966372144228  1.0000
  C   C41       1.0  0.7293510157128154  0.5902744372276488  0.3315742282963329  1.0000
  C   C42       1.0  0.27065068704004613  0.4097273641508324  0.6684264513708201  1.0000
  C   C43       1.0  0.5465482562224722  0.6631854876373993  0.07305189950545105  1.0000
  C   C44       1.0  0.45345273471190234  0.3368142671022625  0.926949142032804  1.0000
  C   C45       1.0  0.5648491232203483  0.5984625294700692  0.15541365196566664  1.0000
  C   C46       1.0  0.4351508642200344  0.40153722506206446  0.8445879126084751  1.0000
  C   C47       1.0  0.6969164451188944  0.6457800435497204  0.23535262473565416  1.0000
  C   C48       1.0  0.303084254139975  0.35422175762122515  0.7646485779673784  1.0000
  C   C49       1.0  0.8061274059263965  0.7538545839606668  0.22698780025139342  1.0000
  C   C50       1.0  0.193871636554718  0.24614823824703075  0.7730117111323409  1.0000
  C   C51       1.0  0.7795998263345253  0.8113165258912289  0.1413045402835706  1.0000
  C   C52       1.0  0.22039986291719063  0.18868527293779644  0.8586942637918968  1.0000
  N   N1        1.0  0.5871843688748584  0.023300364347825602  0.8072763255684663  1.0000
  N   N2        1.0  0.412814900233876  0.9766973414110968  0.19272267921331132  1.0000
  N   N3        1.0  0.6125628240074618  0.21350530163017814  0.4858999707508788  1.0000
  N   N4        1.0  0.38743715854804617  0.7864944513011592  0.5140994025756671  1.0000
  N   N5        1.0  0.6211468297529025  0.4880699822540889  0.33877690009732936  1.0000
  N   N6        1.0  0.3788545146482747  0.5119307950045878  0.6612228648815731  1.0000
  N   N7        1.0  0.6511910494421116  0.7678274652878726  0.06612733425220799  1.0000
  N   N8        1.0  0.34880857639001306  0.23217126405725702  0.93387185480195  1.0000
  O   O1        1.0  0.37681441984705805  0.7497331262267865  0.8828328550174335  1.0000
  O   O2        1.0  0.6231875745813014  0.25026662872041067  0.11716766348493478  1.0000
  O   O3        1.0  0.3161490706765022  0.9351175129210317  0.923895109188145  1.0000
  O   O4        1.0  0.6838505567839093  0.06488121695769421  0.0761048102818833  1.0000
  O   O5        1.0  0.6366115101957703  0.6901002584088474  0.8192038326272668  1.0000
  O   O6        1.0  0.3633851653174034  0.30990153873037934  0.18079507972412762  1.0000
  O   O7        1.0  0.820006877200484  0.8797594863293057  0.9104372299022716  1.0000
  O   O8        1.0  0.17999245695613547  0.12024128944710097  0.08956212031667121  1.0000
  O   O9        1.0  0.3968037526792542  0.20596704884444958  0.5009521052935642  1.0000
  O   O10       1.0  0.60319551642948  0.7940306569144794  0.49904689948821374  1.0000
  O   O11       1.0  0.8499196473266436  0.6395756267041293  0.3991826148853832  1.0000
  O   O12       1.0  0.1500827688729984  0.3604282218467603  0.6008184333265377  1.0000
