data_image0
_chemical_formula_structural       Zn2H30C74Br4N4O12F2
_chemical_formula_sum              "Zn2 H30 C74 Br4 N4 O12 F2"
_cell_length_a       14.744023020000295
_cell_length_b       15.676753010354838
_cell_length_c       28.12184835179607
_cell_angle_alpha    89.58883789764961
_cell_angle_beta     73.4741864592482
_cell_angle_gamma    80.77782861584232

_space_group_name_H-M_alt    "P 1"
_space_group_IT_number       1

loop_
  _space_group_symop_operation_xyz
  'x, y, z'

loop_
  _atom_site_type_symbol
  _atom_site_label
  _atom_site_symmetry_multiplicity
  _atom_site_fract_x
  _atom_site_fract_y
  _atom_site_fract_z
  _atom_site_occupancy
  Zn  Zn1       1.0  0.5939944121068379  0.5165096825558564  0.4882268670148091  1.0000
  Zn  Zn2       1.0  0.4054491705091793  0.48422842684560397  0.5140029597039372  1.0000
  H   H1        1.0  0.3479859020300253  0.472505761741985  0.6719615520873744  1.0000
  H   H2        1.0  0.6509599422893615  0.5278604490441695  0.330081646745775  1.0000
  H   H3        1.0  0.5367733799385874  0.781266228141256  0.4720324577314513  1.0000
  H   H4        1.0  0.4603726873868368  0.22248687233616946  0.49493256418303827  1.0000
  H   H5        1.0  0.24364586030670665  0.75440902271545  0.5356353069456432  1.0000
  H   H6        1.0  0.7556970029377154  0.24815001788494584  0.44083891260390823  1.0000
  H   H7        1.0  0.6263119134955063  0.8539294459905592  0.4326994560576053  1.0000
  H   H8        1.0  0.36061282361480823  0.15410109926957458  0.4951083597490396  1.0000
  H   H9        1.0  0.0016169345219764974  0.301201428316034  0.566347367770973  1.0000
  H   H10       1.0  0.0029318067101443343  0.6927565821617989  0.4269528724405446  1.0000
  H   H11       1.0  0.7636223337470865  0.4671303859084972  0.5189493248029817  1.0000
  H   H12       1.0  0.2398073003511739  0.5319339819495783  0.48079899888585936  1.0000
  H   H13       1.0  0.6938634260372396  0.6432242158625529  0.42054467603180967  1.0000
  H   H14       1.0  0.3032292335602094  0.3558987276972019  0.5806459498909361  1.0000
  H   H15       1.0  0.14533228349513647  0.30233601941429816  0.5946280984218857  1.0000
  H   H16       1.0  0.8537588642753704  0.6948034645202981  0.4026943305426726  1.0000
  H   H17       1.0  0.3395632097204384  0.47206087955768083  0.7623319748273188  1.0000
  H   H18       1.0  0.660259796872978  0.527876543504327  0.23955679290961743  1.0000
  H   H19       1.0  0.4794145522730275  0.2876366671463657  0.8829002801447386  1.0000
  H   H20       1.0  0.520715438408871  0.7121771717870543  0.11879176266044308  1.0000
  H   H21       1.0  0.365038407778485  0.47057374434348986  0.3657661635115232  1.0000
  H   H22       1.0  0.6345988720914235  0.528366137667213  0.6356297797977745  1.0000
  H   H23       1.0  0.3736104314730254  0.4696343912578484  0.27536539820219014  1.0000
  H   H24       1.0  0.6264295333662702  0.5298531166871002  0.7259427538204761  1.0000
  H   H25       1.0  0.5252055269030009  0.2834212668622271  0.12099534623241943  1.0000
  H   H26       1.0  0.47427444080643966  0.7165566306870518  0.8807759342705734  1.0000
  H   H27       1.0  0.5137264596281454  0.28168740514397683  0.03553188720896829  1.0000
  H   H28       1.0  0.48573100802443736  0.7182526952991638  0.9662342356939105  1.0000
  H   H29       1.0  0.7498315770529587  0.9459575172144598  0.4105010262242458  1.0000
  H   H30       1.0  0.23755903486744498  0.06183233133050692  0.5173665129676905  1.0000
  C   C1        1.0  0.5753535149648813  0.3367244625768181  0.48537902391362303  1.0000
  C   C2        1.0  0.42616281221322067  0.664779062513496  0.5056843666412902  1.0000
  C   C3        1.0  0.48508437574523117  0.5014499734306953  0.901295921716631  1.0000
  C   C4        1.0  0.5145344358484535  0.49847720373752225  0.10044825407188539  1.0000
  C   C5        1.0  0.48221748847782925  0.4239914366849149  0.876582540270327  1.0000
  C   C6        1.0  0.5176426352713149  0.5759018449762225  0.12512672654318638  1.0000
  C   C7        1.0  0.4829726290410789  0.34746349594502846  0.9012780759199187  1.0000
  C   C8        1.0  0.5169458181853911  0.6524071392683766  0.10042101866923048  1.0000
  C   C9        1.0  0.4803270624871272  0.5797410625042829  0.876058457232446  1.0000
  C   C10       1.0  0.5192496736327428  0.4201937396040877  0.1256765091156424  1.0000
  C   C11       1.0  0.4917687752042  0.5000022213363593  0.6485830988363046  1.0000
  C   C12       1.0  0.5074632983164875  0.4996903583635018  0.35306390674561766  1.0000
  C   C13       1.0  0.5049202686943132  0.4195513789918906  0.026831823283849594  1.0000
  C   C14       1.0  0.4945103739549238  0.5804122649395039  0.9749516343501909  1.0000
  C   C15       1.0  0.5039198780872597  0.5796133905293742  0.02535462347560005  1.0000
  C   C16       1.0  0.4955946892660703  0.42034795191008817  0.9764134646164706  1.0000
  C   C17       1.0  0.5074694049990284  0.4995732289584113  0.050587255993761494  1.0000
  C   C18       1.0  0.49201061368636073  0.5003872382342536  0.9511876251198288  1.0000
  C   C19       1.0  0.5129717872218293  0.3432274206604262  0.05296596397406718  1.0000
  C   C20       1.0  0.48646377666967316  0.6567161651487153  0.9488090160899958  1.0000
  C   C21       1.0  0.5198209159757354  0.34342252777528154  0.10142205337720604  1.0000
  C   C22       1.0  0.47963754079747634  0.6565369230827401  0.9003435127580275  1.0000
  C   C23       1.0  0.49547426375472264  0.49987237935317813  0.5946810115576964  1.0000
  C   C24       1.0  0.5029915926210932  0.5000637917957604  0.40703020336450624  1.0000
  C   C25       1.0  0.488719958253526  0.34728094093301104  0.9497749463785821  1.0000
  C   C26       1.0  0.5109870102629087  0.6526554876923143  0.0519649464579075  1.0000
  C   C27       1.0  0.6042555229956788  0.24268907482309027  0.4698604742315027  1.0000
  C   C28       1.0  0.39412406645580234  0.7599851316609757  0.5030470193847946  1.0000
  C   C29       1.0  0.7241596905390892  0.11989684158172052  0.4334879225637849  1.0000
  C   C30       1.0  0.26950373208310197  0.8846863640425157  0.519525536125549  1.0000
  C   C31       1.0  0.7010695857925952  0.2067391082555758  0.44725834829917227  1.0000
  C   C32       1.0  0.29612476288761513  0.7963942594559369  0.5204699821864125  1.0000
  C   C33       1.0  0.5336337648512596  0.19138668113938448  0.47727145007374355  1.0000
  C   C34       1.0  0.46213348678881516  0.8123701244465309  0.48415125985227536  1.0000
  C   C35       1.0  0.5556647052929691  0.10264612477046602  0.4637172430190262  1.0000
  C   C36       1.0  0.4364795716075065  0.9026590555014311  0.4830313934289804  1.0000
  C   C37       1.0  0.6539501141377643  0.06464793962891952  0.44149663989510657  1.0000
  C   C38       1.0  0.3374808611015752  0.9410243897357448  0.5021628167527153  1.0000
  C   C39       1.0  0.48193154976245717  0.04852108507554931  0.4737593724299955  1.0000
  C   C40       1.0  0.5083634077978516  0.9577800084364937  0.46603897725816507  1.0000
  C   C41       1.0  0.6062961302919162  0.9230228767869093  0.44202068586676546  1.0000
  C   C42       1.0  0.38247882400416694  0.08414187149656269  0.4917977406513144  1.0000
  C   C43       1.0  0.6758949850210599  0.974228067224054  0.42941291977111007  1.0000
  C   C44       1.0  0.31299784387332596  0.032808814590985905  0.5043382901055722  1.0000
  C   C45       1.0  0.479462477526134  0.421899430466432  0.8243237898137605  1.0000
  C   C46       1.0  0.5205870791171847  0.577940578073303  0.17735566324427043  1.0000
  C   C47       1.0  0.16221828842022754  0.3563741176325763  0.5709556983994162  1.0000
  C   C48       1.0  0.8377201245795263  0.6410624063334183  0.42675926419714466  1.0000
  C   C49       1.0  0.24904264609497057  0.3839449588864453  0.5629737811353477  1.0000
  C   C50       1.0  0.7498708502180733  0.6148014924578861  0.43694209464582195  1.0000
  C   C51       1.0  0.2114653580999359  0.48629078895444894  0.5079654113933856  1.0000
  C   C52       1.0  0.7907354630452305  0.5120815248607117  0.4909785768286383  1.0000
  C   C53       1.0  0.1168628634681141  0.46919387943935925  0.5170655660039145  1.0000
  C   C54       1.0  0.8862465630052299  0.5277217984320971  0.47940108943757304  1.0000
  C   C55       1.0  0.0953109343440914  0.39701741994174716  0.5469517007302684  1.0000
  C   C56       1.0  0.9068216148409148  0.5995394907872157  0.4491812373226835  1.0000
  C   C57       1.0  0.045125305440201685  0.5158010141229356  0.4960094332909435  1.0000
  C   C58       1.0  0.959535298493215  0.48041123081801373  0.4990031592735986  1.0000
  C   C59       1.0  0.9516018460543735  0.39777943621133016  0.5216123288220302  1.0000
  C   C60       1.0  0.05359074685238601  0.5972996978273102  0.47200288890570613  1.0000
  C   C61       1.0  0.012331473977553707  0.36167808548545116  0.5478767532201445  1.0000
  C   C62       1.0  0.991558549336375  0.6332072256737786  0.446336613451713  1.0000
  C   C63       1.0  0.47649044136534957  0.5817267874933306  0.8240017311252359  1.0000
  C   C64       1.0  0.523232248300829  0.4181514318401369  0.17767631232754866  1.0000
  C   C65       1.0  0.5659432206110536  0.5166907535826014  0.7137947514828509  1.0000
  C   C66       1.0  0.4339148443866777  0.4828104298926092  0.2876652793962008  1.0000
  C   C67       1.0  0.5704085581483297  0.5160607557550564  0.6636774553715269  1.0000
  C   C68       1.0  0.4291788969621208  0.4831849248415523  0.33779414879102626  1.0000
  C   C69       1.0  0.40860683350287996  0.4844877561288428  0.6843115278870542  1.0000
  C   C70       1.0  0.5906644113688699  0.5155661953943281  0.3175292802378777  1.0000
  C   C71       1.0  0.4038418067081436  0.4846934928866986  0.7344586320711386  1.0000
  C   C72       1.0  0.5958841093405239  0.5151806968871143  0.26732492618535275  1.0000
  C   C73       1.0  0.4826462043993087  0.5009308065111214  0.7488987933275055  1.0000
  C   C74       1.0  0.5172742497682562  0.4988256493118898  0.2527281620843311  1.0000
  Br  Br1       1.0  0.8565398230436259  0.07385151095016342  0.4034746733818649  1.0000
  Br  Br2       1.0  0.13586460676583562  0.9311246744960898  0.54432677978253  1.0000
  Br  Br3       1.0  0.8648972482264554  0.3248264797376024  0.5129974979052391  1.0000
  Br  Br4       1.0  0.14341311217467026  0.6698671158237629  0.4766840783101073  1.0000
  N   N1        1.0  0.4791113516119553  0.5014080737343961  0.8007459957375787  1.0000
  N   N2        1.0  0.5209926450992769  0.4984067989009873  0.20088331672731383  1.0000
  N   N3        1.0  0.27369677048527313  0.4463693786577848  0.5303530532012743  1.0000
  N   N4        1.0  0.7263495939786891  0.5531097575177668  0.4702895658149159  1.0000
  O   O1        1.0  0.6406348242839499  0.3835604213363908  0.4778450925866196  1.0000
  O   O2        1.0  0.36203895469391506  0.616501589532831  0.5152829015863886  1.0000
  O   O3        1.0  0.4858735979141287  0.3625633888912106  0.5046340034775482  1.0000
  O   O4        1.0  0.5158534095497485  0.6399805435959253  0.4979810416387734  1.0000
  O   O5        1.0  0.5750621387673363  0.5077113359201135  0.5633028909569688  1.0000
  O   O6        1.0  0.42585804065516436  0.4849005262458093  0.4378066540460495  1.0000
  O   O7        1.0  0.4182971612971188  0.49214967899598616  0.58445897043714  1.0000
  O   O8        1.0  0.5772212472915115  0.51541626437713  0.4178900537162278  1.0000
  O   O9        1.0  0.4789553439866197  0.354627639740059  0.8022319093968449  1.0000
  O   O10       1.0  0.521151894669529  0.6451877756655763  0.19945382822399438  1.0000
  O   O11       1.0  0.5273447469668113  0.35092939138236556  0.20029484700938124  1.0000
  O   O12       1.0  0.47218232613556665  0.648976366186453  0.8014082943048635  1.0000
  F   F1        1.0  0.4872347624101395  0.26846380462509245  0.9706915178553217  1.0000
  F   F2        1.0  0.5125181432824348  0.7314559314753594  0.031043893718539578  1.0000
