data_image0
_chemical_formula_structural       Co6H6C24O18
_chemical_formula_sum              "Co6 H6 C24 O18"
_cell_length_a       6.597487301758356
_cell_length_b       15.204898808746657
_cell_length_c       15.204958602139309
_cell_angle_alpha    117.95002919146444
_cell_angle_beta     98.32364294906503
_cell_angle_gamma    98.3236491782228

_space_group_name_H-M_alt    "P 1"
_space_group_IT_number       1

loop_
  _space_group_symop_operation_xyz
  'x, y, z'

loop_
  _atom_site_type_symbol
  _atom_site_label
  _atom_site_symmetry_multiplicity
  _atom_site_fract_x
  _atom_site_fract_y
  _atom_site_fract_z
  _atom_site_occupancy
  Co  Co1       1.0  0.8161584995456082  0.40572487663274603  0.6914352838569682  1.0000
  Co  Co2       1.0  0.41063926210183865  0.2857153406566794  0.5942062337517198  1.0000
  Co  Co3       1.0  0.12473954236006078  0.30871796713212524  0.7144088853986901  1.0000
  Co  Co4       1.0  0.12475024780427885  0.7144071089049219  0.3087224832258924  1.0000
  Co  Co5       1.0  0.4106403774140901  0.5942046793189064  0.28571673298764466  1.0000
  Co  Co6       1.0  0.8161703889727364  0.691433875757163  0.40572759625089105  1.0000
  H   H1        1.0  0.7341819358317991  0.47732371122020106  0.4773331944180013  1.0000
  H   H2        1.0  0.2567014120049437  0.00011745674068919999  0.5224681330488821  1.0000
  H   H3        1.0  0.25666387972641036  0.5224819696240103  0.00010627062810185614  1.0000
  H   H4        1.0  0.09865624155990094  0.5867289764649755  0.5867286549384758  1.0000
  H   H5        1.0  0.5116210236771012  7.996867345380001e-05  0.413331594983596  1.0000
  H   H6        1.0  0.5116158417517623  0.41331957609016007  7.595797485747666e-05  1.0000
  C   C1        1.0  0.5068956397413727  0.46854833251457956  0.5631601150266616  1.0000
  C   C2        1.0  0.03828713611696337  0.09472859600226258  0.5312901385023778  1.0000
  C   C3        1.0  0.9434550674933105  0.43686304964647593  0.9054743015905159  1.0000
  C   C4        1.0  0.943476033360568  0.905480176624948  0.4368600285057338  1.0000
  C   C5        1.0  0.03825677226630821  0.5312903829671497  0.09471065607894495  1.0000
  C   C6        1.0  0.5068980523140638  0.563155587848918  0.46855508137385726  1.0000
  C   C7        1.0  0.5969295208186693  0.5030223137586276  0.5030232735111752  1.0000
  C   C8        1.0  0.09373796576252862  0.00011394998670509997  0.4969096572544414  1.0000
  C   C9        1.0  0.0937248778368911  0.49692982554657317  0.00012147127045380985  1.0000
  C   C10       1.0  0.32297409467976473  0.5009198996797792  0.5947187798515898  1.0000
  C   C11       1.0  0.8219296256874816  0.093887274821455  0.4989394178278984  1.0000
  C   C12       1.0  0.7279206746739176  0.40528739209928216  0.9062295565255168  1.0000
  C   C13       1.0  0.7279319628340982  0.9062330771829178  0.40528930615188563  1.0000
  C   C14       1.0  0.8219145555081014  0.49894477863585956  0.093878041073438  1.0000
  C   C15       1.0  0.3229958507837835  0.5947097892728123  0.5009212052814931  1.0000
  C   C16       1.0  0.20644480214572514  0.4656574333916267  0.6514862706910092  1.0000
  C   C17       1.0  0.7407223064484401  0.1858954892486935  0.5342045958624552  1.0000
  C   C18       1.0  0.5547388006550947  0.3484504271119561  0.8141728845782267  1.0000
  C   C19       1.0  0.5547530577991607  0.8141764574582665  0.34846075333440035  1.0000
  C   C20       1.0  0.740716600118752  0.5342147362022301  0.1859000709637256  1.0000
  C   C21       1.0  0.20645483469000672  0.6514812171931011  0.4656570864911983  1.0000
  C   C22       1.0  0.23933294296417523  0.563443098888179  0.5634457423472695  1.0000
  C   C23       1.0  0.6756377930101749  5.650438922089998e-05  0.43649519276776516  1.0000
  C   C24       1.0  0.675624998633552  0.4365016376460246  6.420688514197578e-05  1.0000
  O   O1        1.0  0.588030837781929  0.4027791447405775  0.5842968603224603  1.0000
  O   O2        1.0  0.18513097144717958  0.18169403627742747  0.5969839075686636  1.0000
  O   O3        1.0  0.0034661570367475174  0.41577006628065044  0.8185516490270571  1.0000
  O   O4        1.0  0.003478081140023736  0.8185565991751459  0.41577172655477995  1.0000
  O   O5        1.0  0.1851388055581323  0.5969889572504172  0.18169384488708568  1.0000
  O   O6        1.0  0.5880468649833333  0.5842942971958394  0.4027880055063377  1.0000
  O   O7        1.0  0.2737956172206849  0.4002536214482929  0.6734261918603505  1.0000
  O   O8        1.0  0.8734227832475697  0.27321777629732946  0.5997679896980157  1.0000
  O   O9        1.0  0.6001195121245643  0.32654610443793786  0.7268470020839715  1.0000
  O   O10       1.0  0.6001276461627825  0.7268536774691796  0.3265550983312551  1.0000
  O   O11       1.0  0.8734095516996163  0.5997682195178768  0.27320905288965486  1.0000
  O   O12       1.0  0.2738049575082257  0.6734235327673517  0.40025726494009456  1.0000
  O   O13       1.0  0.043711607161590275  0.4964256507810844  0.676990442421278  1.0000
  O   O14       1.0  0.5472495128820825  0.18063454827837688  0.5033377589846069  1.0000
  O   O15       1.0  0.36649377195743676  0.32281276204205517  0.8193996230238055  1.0000
  O   O16       1.0  0.3665109380561446  0.8194083729395132  0.322836605723495  1.0000
  O   O17       1.0  0.5472537223328758  0.5033406862950328  0.1806363262577974  1.0000
  O   O18       1.0  0.043719703067246374  0.6769845218344414  0.49642488338033525  1.0000
