data_image0
_chemical_formula_structural       Zn2H16C16S8N12O8
_chemical_formula_sum              "Zn2 H16 C16 S8 N12 O8"
_cell_length_a       8.23722246647451
_cell_length_b       8.860152394333253
_cell_length_c       12.305947100042218
_cell_angle_alpha    86.39071061070501
_cell_angle_beta     69.51235871674285
_cell_angle_gamma    66.80714122717173

_space_group_name_H-M_alt    "P 1"
_space_group_IT_number       1

loop_
  _space_group_symop_operation_xyz
  'x, y, z'

loop_
  _atom_site_type_symbol
  _atom_site_label
  _atom_site_symmetry_multiplicity
  _atom_site_fract_x
  _atom_site_fract_y
  _atom_site_fract_z
  _atom_site_occupancy
  Zn  Zn1       1.0  0.10298882784898925  0.19918073671993136  0.2168006106709868  1.0000
  Zn  Zn2       1.0  0.8970124704324507  0.8008182580227156  0.7831990642963901  1.0000
  H   H1        1.0  0.6710130982599268  0.06438374263417758  0.521691462145796  1.0000
  H   H2        1.0  0.3289850892991596  0.935616475335557  0.47830723401261116  1.0000
  H   H3        1.0  0.897936955367186  0.9269720007885809  0.5118013160751217  1.0000
  H   H4        1.0  0.10206134570418611  0.07303069966834387  0.48819968161532057  1.0000
  H   H5        1.0  0.49362027540271936  0.6835296974039264  0.24768137471239984  1.0000
  H   H6        1.0  0.5063822983391973  0.31646930199200796  0.7523188252070911  1.0000
  H   H7        1.0  0.693773491859112  0.7262409978828186  0.17387910166900863  1.0000
  H   H8        1.0  0.30622910305548606  0.27375799512981297  0.8261202810557863  1.0000
  H   H9        1.0  0.4558492398118121  0.20285169643385353  0.2538749500789663  1.0000
  H   H10       1.0  0.5441476087687536  0.7971485360325018  0.7461256727114361  1.0000
  H   H11       1.0  0.5266159762012633  0.3564390539183293  0.2758378871792999  1.0000
  H   H12       1.0  0.4733834868182998  0.6435611687046927  0.724161333931221  1.0000
  H   H13       1.0  0.25133667079663313  0.9936959251669176  0.9981579159420733  1.0000
  H   H14       1.0  0.7486638694803747  0.006301845155405799  0.0018427973673453724  1.0000
  H   H15       1.0  0.19336963679737806  0.008788588633620996  0.8689165857050797  1.0000
  H   H16       1.0  0.8066309246523176  0.9912091753054001  0.13108331040963617  1.0000
  C   C1        1.0  0.2476346300500154  0.4291380109234168  0.2992397433561109  1.0000
  C   C2        1.0  0.7523642519954522  0.5708634506165493  0.7007603660443706  1.0000
  C   C3        1.0  0.9320737034233489  0.6419970613245026  0.38296677405644897  1.0000
  C   C4        1.0  0.06792446296304898  0.3580031630285346  0.6170327392966612  1.0000
  C   C5        1.0  0.7990284948061235  0.9651988565267683  0.4642654107581592  1.0000
  C   C6        1.0  0.20096853080477933  0.034803839276868594  0.5357350619801693  1.0000
  C   C7        1.0  0.8784189758798676  0.032802724852629694  0.34942277476744726  1.0000
  C   C8        1.0  0.12157914816117468  0.9671975122670059  0.6505783729750692  1.0000
  C   C9        1.0  0.03135130077377114  0.20163256115197467  0.9920923738352982  1.0000
  C   C10       1.0  0.9686481410731034  0.7983676678543431  0.00790766446993265  1.0000
  C   C11       1.0  0.7661018698613801  0.4650797564697554  0.037104798008918624  1.0000
  C   C12       1.0  0.233899449592741  0.5349192318895958  0.9628940597637625  1.0000
  C   C13       1.0  0.5544811131135392  0.7448533818339198  0.1736050592049522  1.0000
  C   C14       1.0  0.4455214606283775  0.2551456175620216  0.8263951407145457  1.0000
  C   C15       1.0  0.42772815661676605  0.9269035839631171  0.19393214545999632  1.0000
  C   C16       1.0  0.5722718238588343  0.07309541889285497  0.8060686389446802  1.0000
  S   S1        1.0  0.15865428106352666  0.6221338832556282  0.3732450296348873  1.0000
  S   S2        1.0  0.8413451607833482  0.3778663457506893  0.6267550086703366  1.0000
  S   S3        1.0  0.7213331388192687  0.8048620898253982  0.4553710694016288  1.0000
  S   S4        1.0  0.2786662818549246  0.19513814556421488  0.5446297860982982  1.0000
  S   S5        1.0  0.8828735824236065  0.31625894154039  0.917919758066887  1.0000
  S   S6        1.0  0.11712773703051503  0.6837400468189611  0.08207909970579412  1.0000
  S   S7        1.0  0.5800159538223538  0.6496564940838497  0.038850966341357214  1.0000
  S   S8        1.0  0.41998478465767874  0.350343733192453  0.9611487797212774  1.0000
  N   N1        1.0  0.11100286096362308  0.3934394576208006  0.288144462345045  1.0000
  N   N2        1.0  0.888993448988217  0.6065620009959003  0.7118554143459122  1.0000
  N   N3        1.0  0.9332841064317636  0.5139002951962792  0.3357547382431889  1.0000
  N   N4        1.0  0.06671533541511827  0.48609993381004546  0.6642453000620351  1.0000
  N   N5        1.0  0.43172382034784806  0.32675548878280136  0.25716694508529514  1.0000
  N   N6        1.0  0.5682749058399638  0.6732435030365875  0.7428324971725574  1.0000
  N   N7        1.0  0.984347129263661  0.2769949788052272  0.09582887688238623  1.0000
  N   N8        1.0  0.01565289355730945  0.7230040112841392  0.904170273132877  1.0000
  N   N9        1.0  0.8329105259441223  0.4262001904492648  0.12141765031994818  1.0000
  N   N10       1.0  0.16709135331140607  0.573797565376438  0.8785811363574754  1.0000
  N   N11       1.0  0.17450203663842961  0.05693494109478789  0.9480726389220211  1.0000
  N   N12       1.0  0.8254992616430175  0.9430640536478588  0.05192703604535612  1.0000
  O   O1        1.0  0.9584656874037448  0.12736057543234114  0.3609370043958793  1.0000
  O   O2        1.0  0.04153321581440402  0.8726408797243294  0.6390622878098924  1.0000
  O   O3        1.0  0.864181112643664  0.9985319512138412  0.25737687085440086  1.0000
  O   O4        1.0  0.1358196258363691  0.0014682760624609007  0.7426228752082339  1.0000
  O   O5        1.0  0.31597162421788755  0.9849092685074364  0.13535066138867077  1.0000
  O   O6        1.0  0.6840283350850315  0.015089740731831097  0.8646509402107088  1.0000
  O   O7        1.0  0.43260545370139175  0.009976357303159496  0.27026900518701064  1.0000
  O   O8        1.0  0.5673963832087813  0.9900214112891416  0.7297314158798187  1.0000
