data_image0
_chemical_formula_structural       Ni2H8C4O12
_chemical_formula_sum              "Ni2 H8 C4 O12"
_cell_length_a       6.386966974120083
_cell_length_b       6.947130712841783
_cell_length_c       7.969414926520232
_cell_angle_alpha    71.00201602289694
_cell_angle_beta     66.39864197005137
_cell_angle_gamma    62.638023235414686

_space_group_name_H-M_alt    "P 1"
_space_group_IT_number       1

loop_
  _space_group_symop_operation_xyz
  'x, y, z'

loop_
  _atom_site_type_symbol
  _atom_site_label
  _atom_site_symmetry_multiplicity
  _atom_site_fract_x
  _atom_site_fract_y
  _atom_site_fract_z
  _atom_site_occupancy
  Ni  Ni1       1.0  0.7605531084600229  0.7499440452985412  0.7500152367990652  1.0000
  Ni  Ni2       1.0  0.23945264507214864  0.2500567660250894  0.24998087942626065  1.0000
  H   H1        1.0  0.20017128205762438  0.4487804421979077  0.8001429670744005  1.0000
  H   H2        1.0  0.9491614806572242  0.0510741177668805  0.6999316953715538  1.0000
  H   H3        1.0  0.7998512343225102  0.5512300607973444  0.19981671767364176  1.0000
  H   H4        1.0  0.05083804526656623  0.9489516645744017  0.3001146309912245  1.0000
  H   H5        1.0  0.11284044784514434  0.39790127842177014  0.6646309768258264  1.0000
  H   H6        1.0  0.6755923288272995  0.10189831719861789  0.8354813679498894  1.0000
  H   H7        1.0  0.887153938468131  0.6021011189399487  0.3353535470671006  1.0000
  H   H8        1.0  0.3243925382791846  0.8980763736395543  0.16455930938385435  1.0000
  C   C1        1.0  0.38738055774374663  0.0369577952068738  0.5853163222954266  1.0000
  C   C2        1.0  0.5095251624077118  0.46309508801320487  0.9147097159828235  1.0000
  C   C3        1.0  0.6125725099647354  0.9630745801021875  0.41473097761578265  1.0000
  C   C4        1.0  0.4904936780558485  0.536869317409284  0.0852542727334651  1.0000
  O   O1        1.0  0.4201548270188977  0.9763544768990114  0.7432305444102242  1.0000
  O   O2        1.0  0.6393740721772689  0.5237880371437669  0.7567767924884949  1.0000
  O   O3        1.0  0.579851994016728  0.023649814060299  0.2568008316110166  1.0000
  O   O4        1.0  0.3606260667015492  0.4761928243049453  0.2431843132163038  1.0000
  O   O5        1.0  0.17881518871264754  0.15895670828506067  0.5557916102773889  1.0000
  O   O6        1.0  0.39336621974365443  0.3411831908636742  0.9442244327023493  1.0000
  O   O7        1.0  0.8211624317812821  0.8410803665557507  0.444209588931898  1.0000
  O   O8        1.0  0.606663286272763  0.658768092152613  0.05574994531812655  1.0000
  O   O9        1.0  0.10925586843547573  0.5185546048185259  0.706276279041987  1.0000
  O   O10       1.0  0.8343130536865928  0.9812886542118168  0.7938691090894213  1.0000
  O   O11       1.0  0.8907568232720633  0.48145752874584963  0.2936802812202401  1.0000
  O   O12       1.0  0.16569240590779086  0.018712367607491804  0.20616705714907374  1.0000
