data_image0
_chemical_formula_structural       Zn16H40C112S8O52F16
_chemical_formula_sum              "Zn16 H40 C112 S8 O52 F16"
_cell_length_a       18.565471255931392
_cell_length_b       19.73412266613784
_cell_length_c       32.848420372149505
_cell_angle_alpha    86.05312899138939
_cell_angle_beta     73.58454714492056
_cell_angle_gamma    61.93930909244302

_space_group_name_H-M_alt    "P 1"
_space_group_IT_number       1

loop_
  _space_group_symop_operation_xyz
  'x, y, z'

loop_
  _atom_site_type_symbol
  _atom_site_label
  _atom_site_symmetry_multiplicity
  _atom_site_fract_x
  _atom_site_fract_y
  _atom_site_fract_z
  _atom_site_occupancy
  Zn  Zn1       1.0  0.8738385531999312  0.5574094380388317  0.5191881053718745  1.0000
  Zn  Zn2       1.0  0.03907172038968546  0.48357340852059133  0.43815619963584845  1.0000
  Zn  Zn3       1.0  0.04115516483015822  0.39878929352828146  0.5237691896520573  1.0000
  Zn  Zn4       1.0  0.04725123933652494  0.5594325047880488  0.5181683537917153  1.0000
  Zn  Zn5       1.0  0.6248535506612712  0.19067566567486685  0.7319722801941636  1.0000
  Zn  Zn6       1.0  0.46377271312303503  0.3511504395555035  0.7263082316912914  1.0000
  Zn  Zn7       1.0  0.45868771959217725  0.2650553932439834  0.8124981858763717  1.0000
  Zn  Zn8       1.0  0.4525181661175566  0.19308045481651698  0.7294139488554947  1.0000
  Zn  Zn9       1.0  0.4618140201017057  0.763606294471536  0.3130208886501719  1.0000
  Zn  Zn10      1.0  0.4546120638508456  0.6913993483571657  0.23042269303034146  1.0000
  Zn  Zn11      1.0  0.6250210965877941  0.6931849836245833  0.22941183085566044  1.0000
  Zn  Zn12      1.0  0.45877655157136144  0.851299993134404  0.22629760510347546  1.0000
  Zn  Zn13      1.0  0.03628732118512815  0.8989046870052989  0.023823585496472753  1.0000
  Zn  Zn14      1.0  0.04970725334028002  0.057330296010079  0.019105794494905095  1.0000
  Zn  Zn15      1.0  0.876388381263709  0.058813665342611905  0.01966215119420406  1.0000
  Zn  Zn16      1.0  0.03640196254071519  0.9849675976000613  0.9375346761534828  1.0000
  H   H1        1.0  0.6968113138113594  0.7827242584237338  0.5943033732228711  1.0000
  H   H2        1.0  0.8028871365666036  0.9671125809020394  0.6556836811079947  1.0000
  H   H3        1.0  0.18850464489894847  0.27418350135641134  0.3487881014182364  1.0000
  H   H4        1.0  0.3116800400240933  0.975204108355136  0.4015001144464634  1.0000
  H   H5        1.0  0.5426296726165775  0.4826962594746647  0.6216401144172963  1.0000
  H   H6        1.0  0.5479289436588602  0.5227822969972917  0.666935060310834  1.0000
  H   H7        1.0  0.6439476587034318  0.5709314368681434  0.618903060511201  1.0000
  H   H8        1.0  0.6387304319787291  0.5308507604451478  0.5735415241195623  1.0000
  H   H9        1.0  0.35295146868349286  0.6738251806543687  0.43079856947722567  1.0000
  H   H10       1.0  0.26229488856012034  0.7620134966345518  0.4282602069669537  1.0000
  H   H11       1.0  0.1660563005128283  0.7139568488380376  0.47625755036646916  1.0000
  H   H12       1.0  0.25661304456591694  0.6258060914263623  0.47881844444496835  1.0000
  H   H13       1.0  0.5474107760482599  0.7621277201105058  0.4281318299683433  1.0000
  H   H14       1.0  0.5423255778125056  0.6739828301566744  0.4306363381443674  1.0000
  H   H15       1.0  0.6384872403058425  0.6258288616125042  0.478685322693913  1.0000
  H   H16       1.0  0.6436095803745303  0.7139541563648705  0.47617755779830867  1.0000
  H   H17       1.0  0.3337996222000755  0.1791885089352405  0.6311519964196108  1.0000
  H   H18       1.0  0.2432508580466148  0.21921770720356187  0.6764955258795169  1.0000
  H   H19       1.0  0.14697854078846725  0.2673070286561696  0.6284188625186218  1.0000
  H   H20       1.0  0.23761225144092893  0.22722453798730405  0.5831179548310244  1.0000
  H   H21       1.0  0.31145773746525396  0.5899081026229142  0.7870678919569585  1.0000
  H   H22       1.0  0.18865307315773097  0.6601590682464716  0.9629482924755165  1.0000
  H   H23       1.0  0.9573340215530523  0.076299951855944  0.8193701048339505  1.0000
  H   H24       1.0  0.9521243764457171  0.9882832009061245  0.8219619785706058  1.0000
  H   H25       1.0  0.8560638735027979  0.036205791423682895  0.7738922212027717  1.0000
  H   H26       1.0  0.8611303662854727  0.12431128432301361  0.7712493039724748  1.0000
  H   H27       1.0  0.16624036257922378  0.21375128881275163  0.9760389225795834  1.0000
  H   H28       1.0  0.25691083936413156  0.1256808270750298  0.9786449036172156  1.0000
  H   H29       1.0  0.35302138024405144  0.17377438618636623  0.9305610664903128  1.0000
  H   H30       1.0  0.2623727945213333  0.2617800170984736  0.9279936462053443  1.0000
  H   H31       1.0  0.5746910535138169  0.46705262343995463  0.1557338316880035  1.0000
  H   H32       1.0  0.9266016090100281  0.28291475799833415  0.09430500675386358  1.0000
  H   H33       1.0  0.2568903138838082  0.031046375282762995  0.07349936337819679  1.0000
  H   H34       1.0  0.16610524774567642  0.07129359157179492  0.11881034362369289  1.0000
  H   H35       1.0  0.2621620802455596  0.0231014256145556  0.1669227415407732  1.0000
  H   H36       1.0  0.3528767740735504  0.9829388931799059  0.12165309483920338  1.0000
  H   H37       1.0  0.9520820785300188  0.7269140419056512  0.08313537395056872  1.0000
  H   H38       1.0  0.957343338549862  0.7670742763287204  0.12841767389999595  1.0000
  H   H39       1.0  0.8611608023227932  0.7190511090657096  0.17652671805489456  1.0000
  H   H40       1.0  0.8559914925312031  0.6788436233503247  0.13123786820344208  1.0000
  C   C1        1.0  0.8625677749712041  0.5682255450309411  0.43116512106940513  1.0000
  C   C2        1.0  0.12353390395006875  0.31520656729701807  0.4384982800878277  1.0000
  C   C3        1.0  0.863238567111118  0.43073508223660173  0.5686374532804876  1.0000
  C   C4        1.0  0.13796118047912398  0.43198960271458015  0.5684914852809014  1.0000
  C   C5        1.0  0.8761751342367178  0.6843773758285607  0.5611258994021141  1.0000
  C   C6        1.0  0.13759512361625073  0.5686825797679943  0.4309103825250204  1.0000
  C   C7        1.0  0.6385411808290301  0.3179526639264836  0.681434132750219  1.0000
  C   C8        1.0  0.37708609034831403  0.4346999742496321  0.8112176509413942  1.0000
  C   C9        1.0  0.6364556756317868  0.18130839719839995  0.8192631954968661  1.0000
  C   C10       1.0  0.3619783050330981  0.18119890276872033  0.8182681756939232  1.0000
  C   C11       1.0  0.6233811005166461  0.06555085405783247  0.6885109974371204  1.0000
  C   C12       1.0  0.36313717619167835  0.3194138604441078  0.6809302095574097  1.0000
  C   C13       1.0  0.363049799054508  0.6808207966482699  0.3187070433883505  1.0000
  C   C14       1.0  0.6230405313935564  0.5655560593143392  0.18824564875248478  1.0000
  C   C15       1.0  0.6377550374187422  0.6811018796514361  0.318444902184467  1.0000
  C   C16       1.0  0.6365502322401255  0.8193731029810463  0.18097919644660715  1.0000
  C   C17       1.0  0.3768181554626723  0.9336096670147425  0.31184802532668937  1.0000
  C   C18       1.0  0.36226068157622404  0.818285249070783  0.18112044483373774  1.0000
  C   C19       1.0  0.13726108944072044  0.9309029190910533  0.06866487806032497  1.0000
  C   C20       1.0  0.8787105362877841  0.18439411878141948  0.06141790835835785  1.0000
  C   C21       1.0  0.8617325634750588  0.9316841294010415  0.06878965815882755  1.0000
  C   C22       1.0  0.8618176131681777  0.06914525927897588  0.9314734307988886  1.0000
  C   C23       1.0  0.12184165329805548  0.8154029757689542  0.9388103348259732  1.0000
  C   C24       1.0  0.13727456311682573  0.06845678089477049  0.9310638360324146  1.0000
  C   C25       1.0  0.7391392407312412  0.8017380409644658  0.6006256678332063  1.0000
  C   C26       1.0  0.7606447799671726  0.947961225204189  0.6493667300377339  1.0000
  C   C27       1.0  0.8268801029604663  0.7589398282442161  0.5862564411556689  1.0000
  C   C28       1.0  0.6728540011831261  0.9907443888638379  0.6636255311978941  1.0000
  C   C29       1.0  0.7849661867428284  0.8791054300663461  0.6263929593093989  1.0000
  C   C30       1.0  0.7149050255598511  0.8705665745606339  0.6235656959439879  1.0000
  C   C31       1.0  0.20128957819110835  0.2275000483849965  0.3698450006038668  1.0000
  C   C32       1.0  0.29907409448646405  0.0217462848906109  0.380373591002602  1.0000
  C   C33       1.0  0.17291396578271903  0.2403936344170603  0.4137506332228185  1.0000
  C   C34       1.0  0.3274732374177774  0.008624920412621898  0.33650472263507675  1.0000
  C   C35       1.0  0.25319359944459313  0.1013484766303492  0.3925561337017669  1.0000
  C   C36       1.0  0.2473442443057436  0.14787723102787706  0.3575828975436508  1.0000
  C   C37       1.0  0.6966901223088302  0.34481545968028365  0.6528591571117274  1.0000
  C   C38       1.0  0.8079937415360378  0.4007743005840893  0.597043779363531  1.0000
  C   C39       1.0  0.6662172610058763  0.4171339024022274  0.6363848299885928  1.0000
  C   C40       1.0  0.8396343111626404  0.3276302377450974  0.6134239041813955  1.0000
  C   C41       1.0  0.7192071922281186  0.4437255054149034  0.6098337069865565  1.0000
  C   C42       1.0  0.786212613793701  0.3007727262285442  0.640182851083118  1.0000
  C   C43       1.0  0.5855300637845744  0.4900892383555443  0.6359309735231164  1.0000
  C   C44       1.0  0.6456824828844957  0.520271909712129  0.605826736924314  1.0000
  C   C45       1.0  0.3058330288248996  0.6520978625852223  0.3462353006256079  1.0000
  C   C46       1.0  0.19420972890333846  0.5964151231196977  0.40181279056605484  1.0000
  C   C47       1.0  0.280144769954326  0.663588800989416  0.3906096706163282  1.0000
  C   C48       1.0  0.21958989028640022  0.5843155632674523  0.3570408835990762  1.0000
  C   C49       1.0  0.22702440116948006  0.6371002642616688  0.41706484177478836  1.0000
  C   C50       1.0  0.27314254039949054  0.6111284699718452  0.3303332875271464  1.0000
  C   C51       1.0  0.28831040270129193  0.699167871020677  0.4273785340505825  1.0000
  C   C52       1.0  0.2280224193865194  0.6690516402008625  0.4574242168497733  1.0000
  C   C53       1.0  0.6960452547056234  0.6521326888109087  0.34611131947626456  1.0000
  C   C54       1.0  0.8074595282261329  0.5962378750072544  0.40195913486664375  1.0000
  C   C55       1.0  0.6656929469805067  0.6636323715386113  0.390495508320562  1.0000
  C   C56       1.0  0.8391196350865898  0.5842407034581214  0.3571825166916938  1.0000
  C   C57       1.0  0.7187111401540492  0.637059683450907  0.4170289456479638  1.0000
  C   C58       1.0  0.7856025930704151  0.6111198822636651  0.3303897548803859  1.0000
  C   C59       1.0  0.5850791224963671  0.6992726287715811  0.4272283719462139  1.0000
  C   C60       1.0  0.6453132088534447  0.6691053361862344  0.4573270072724753  1.0000
  C   C61       1.0  0.3059248435846628  0.3494313459313076  0.6527567955126656  1.0000
  C   C62       1.0  0.19432615236910789  0.40519469261171537  0.5970694569739479  1.0000
  C   C63       1.0  0.27280103593523114  0.3063901833537415  0.6401118525108414  1.0000
  C   C64       1.0  0.22709278003716107  0.449341708635373  0.6096867948430001  1.0000
  C   C65       1.0  0.21969199661906916  0.3329151400755777  0.6135876451955795  1.0000
  C   C66       1.0  0.28061442125380864  0.42260603552256265  0.6364069110756532  1.0000
  C   C67       1.0  0.2717945619062831  0.22984914161415296  0.6442092297736367  1.0000
  C   C68       1.0  0.21154544275196946  0.2599341266298296  0.614114695723714  1.0000
  C   C69       1.0  0.2988486776314474  0.5815588402547575  0.8209175400465155  1.0000
  C   C70       1.0  0.2012754651075498  0.6685215639285859  0.9290971681703368  1.0000
  C   C71       1.0  0.3273292413881777  0.509187462201247  0.8363276458050776  1.0000
  C   C72       1.0  0.17253153887045872  0.7408757309103892  0.913696925922032  1.0000
  C   C73       1.0  0.24725115144412524  0.6104119856628711  0.8953795492286004  1.0000
  C   C74       1.0  0.25290800484501835  0.6396529033808845  0.8546402863249652  1.0000
  C   C75       1.0  0.803536996134774  0.09825889464183751  0.9038924425907524  1.0000
  C   C76       1.0  0.691921127617249  0.1538694675396286  0.848268280459031  1.0000
  C   C77       1.0  0.833844378736508  0.0868110501030728  0.8595116733146922  1.0000
  C   C78       1.0  0.6604676350243609  0.16590337736973743  0.8930268091390445  1.0000
  C   C79       1.0  0.7807385012561241  0.11328023907183393  0.8330009220105197  1.0000
  C   C80       1.0  0.7140059931222495  0.13924782349752723  0.9197621328913356  1.0000
  C   C81       1.0  0.9144710731835136  0.0511341209630558  0.8228084685442596  1.0000
  C   C82       1.0  0.854248236424546  0.08118155277676918  0.7926921743085558  1.0000
  C   C83       1.0  0.1940913487440312  0.0960619811192061  0.901852393140004  1.0000
  C   C84       1.0  0.30553188725217956  0.1518299369728027  0.845984702752844  1.0000
  C   C85       1.0  0.22718797824283854  0.13665862856632321  0.9169399762837713  1.0000
  C   C86       1.0  0.2726923997354902  0.1108174503057384  0.8302909600255006  1.0000
  C   C87       1.0  0.2802095552225339  0.16323580940751728  0.8903841202442209  1.0000
  C   C88       1.0  0.2192160986430381  0.08406490073135589  0.8570793814511077  1.0000
  C   C89       1.0  0.2282327571724778  0.16883007191781726  0.9572246127864119  1.0000
  C   C90       1.0  0.2884437969532314  0.19892918323005657  0.927107608854783  1.0000
  C   C91       1.0  0.6424127940434943  0.4479040262649577  0.14940033674868397  1.0000
  C   C92       1.0  0.8589477318112485  0.3018929064925332  0.10063407560992495  1.0000
  C   C93       1.0  0.6732451627108205  0.4906688660198241  0.16359830321875524  1.0000
  C   C94       1.0  0.8283646620601742  0.25904397699891735  0.08633450260155939  1.0000
  C   C95       1.0  0.7913714122105164  0.3705868381248649  0.12361392313121658  1.0000
  C   C96       1.0  0.7099474780829597  0.37904393007570286  0.12645861110986084  1.0000
  C   C97       1.0  0.19398304893415746  0.90104856036168  0.09706324239878937  1.0000
  C   C98       1.0  0.3054818277841847  0.8452030597103287  0.15278039030172855  1.0000
  C   C99       1.0  0.2269718153337339  0.9440944310271315  0.10982206800851199  1.0000
  C   C100      1.0  0.2727425704999078  0.8010271813227446  0.1401504877281425  1.0000
  C   C101      1.0  0.27997463294646247  0.9175437263581755  0.13637314949245644  1.0000
  C   C102      1.0  0.2191890697545987  0.8278727327836248  0.11341521402699326  1.0000
  C   C103      1.0  0.22808300837920112  0.020588236294741998  0.10578434578175687  1.0000
  C   C104      1.0  0.28825940174115067  0.9904002657486188  0.1359243760790605  1.0000
  C   C105      1.0  0.8035062970587179  0.9048505263082942  0.09714191189556229  1.0000
  C   C106      1.0  0.6919316808452224  0.8492770388125805  0.15279280061446335  1.0000
  C   C107      1.0  0.8338514313757486  0.8325596323581267  0.11360133245640464  1.0000
  C   C108      1.0  0.6604200124536636  0.922474376493177  0.13646441766720582  1.0000
  C   C109      1.0  0.7807377923385702  0.8060720841737349  0.14012601568518326  1.0000
  C   C110      1.0  0.7139646438081328  0.9491818056278661  0.1097373568666882  1.0000
  C   C111      1.0  0.9144641985848309  0.7596490650619927  0.11412846108142109  1.0000
  C   C112      1.0  0.8542251314854072  0.729566064916227  0.14424376432832278  1.0000
  S   S1        1.0  0.8803604799498218  0.8017636561766108  0.6005391750108089  1.0000
  S   S2        1.0  0.6194644234397374  0.9479036423134206  0.6493056002793409  1.0000
  S   S3        1.0  0.2016689404443213  0.15645795237676197  0.4403404905393771  1.0000
  S   S4        1.0  0.29885158178701954  0.09251811957498998  0.30983880035476824  1.0000
  S   S5        1.0  0.29872957445217474  0.5111586840120734  0.8916025992507598  1.0000
  S   S6        1.0  0.20122651864610233  0.738917728976247  0.8584183811917895  1.0000
  S   S7        1.0  0.783769087504439  0.4478825857119232  0.14934029131749324  1.0000
  S   S8        1.0  0.7177983336603546  0.3017088078827044  0.10059809354728343  1.0000
  O   O1        1.0  0.9989099213858594  0.5004150325689949  0.5005318113632882  1.0000
  O   O2        1.0  0.8237065275503643  0.5844249130453816  0.47095231565132417  1.0000
  O   O3        1.0  0.10365023870519251  0.3749390185860547  0.4173696982425525  1.0000
  O   O4        1.0  0.9432686903897011  0.38738955412209447  0.5588476938606561  1.0000
  O   O5        1.0  0.9424882796452185  0.5309481680792982  0.4143550454680989  1.0000
  O   O6        1.0  0.8241177438459533  0.4982687719024597  0.5566564464999572  1.0000
  O   O7        1.0  0.10500866089733316  0.3136808488866478  0.4790837822632241  1.0000
  O   O8        1.0  0.11504686366877338  0.3841959313473141  0.5597925209034003  1.0000
  O   O9        1.0  0.9572575468054583  0.6559278549744008  0.5509893961477343  1.0000
  O   O10       1.0  0.11772316252815782  0.4988189987963734  0.5552585297444779  1.0000
  O   O11       1.0  0.8340767841916092  0.6549384224947871  0.5516876186582705  1.0000
  O   O12       1.0  0.1123562576229346  0.5306878815606525  0.4142125907184989  1.0000
  O   O13       1.0  0.1194632904799492  0.5858861053690986  0.47064656322789483  1.0000
  O   O14       1.0  0.4999638804280907  0.24998420770605623  0.7499843298664783  1.0000
  O   O15       1.0  0.6718831826397604  0.25109914123491  0.6946029296618121  1.0000
  O   O16       1.0  0.39799872362895183  0.43641751959190594  0.7707506405515261  1.0000
  O   O17       1.0  0.5563823329678925  0.21821807243108537  0.8359131033987095  1.0000
  O   O18       1.0  0.559132804265623  0.36577914947901746  0.6901425395805489  1.0000
  O   O19       1.0  0.6755402930629657  0.16468155314010594  0.7795278161780743  1.0000
  O   O20       1.0  0.39495455203969954  0.3746979271771877  0.8323181473442176  1.0000
  O   O21       1.0  0.3849016660633069  0.21818207741565487  0.8377842608053356  1.0000
  O   O22       1.0  0.5422783296749571  0.0953791100179302  0.6974533476027247  1.0000
  O   O23       1.0  0.3823228889867778  0.16749072415417737  0.77824104638092  1.0000
  O   O24       1.0  0.6655281003284232  0.0939079273005845  0.6989106500165576  1.0000
  O   O25       1.0  0.3896360873487695  0.36289248743014463  0.6910252864390358  1.0000
  O   O26       1.0  0.380479025070713  0.25151424967965136  0.6924303727608958  1.0000
  O   O27       1.0  0.5001180621234339  0.7505181132697699  0.2505227719478071  1.0000
  O   O28       1.0  0.38667061320971635  0.7173222661651906  0.3381605599759681  1.0000
  O   O29       1.0  0.5421711178429122  0.594256098028836  0.1981030244787547  1.0000
  O   O30       1.0  0.6713166993052084  0.6678526631819535  0.27845672103270397  1.0000
  O   O31       1.0  0.383496678721805  0.6667192690928658  0.27875809980802296  1.0000
  O   O32       1.0  0.5582223906141409  0.7170806687279736  0.33802065293467354  1.0000
  O   O33       1.0  0.6651004469415513  0.5953627877361853  0.19756529910414855  1.0000
  O   O34       1.0  0.6756164389986878  0.7514948608026302  0.1925294824919561  1.0000
  O   O35       1.0  0.3950051706035965  0.9355514333641037  0.27132206354842475  1.0000
  O   O36       1.0  0.5564640537994735  0.8628216719359186  0.19105659663412658  1.0000
  O   O37       1.0  0.3967884634820252  0.873706382096465  0.33290740313548645  1.0000
  O   O38       1.0  0.38356738918106703  0.7509747918299894  0.1937213706277916  1.0000
  O   O39       1.0  0.38464319600664243  0.8662145070738773  0.19025428993471388  1.0000
  O   O40       1.0  0.0012346457714116042  0.9999218544529497  0.9999538737945101  1.0000
  O   O41       1.0  0.11038482348627815  0.8875005548160215  0.058904354929886354  1.0000
  O   O42       1.0  0.9597361997297614  0.154964882806496  0.05160737765807251  1.0000
  O   O43       1.0  0.8283635078634004  0.9989366153955715  0.0561003276319028  1.0000
  O   O44       1.0  0.12077664545475383  0.998417730791374  0.056648103497451495  1.0000
  O   O45       1.0  0.9411820901290469  0.8837790319472846  0.05973831597659542  1.0000
  O   O46       1.0  0.8360337245141669  0.15559920088083595  0.05184333928156792  1.0000
  O   O47       1.0  0.8284588680272125  0.083707005217633  0.9714320121625446  1.0000
  O   O48       1.0  0.10198291139206364  0.8753262084778655  0.9176199729844254  1.0000
  O   O49       1.0  0.941250102279071  0.0316184039788396  0.9120150621440997  1.0000
  O   O50       1.0  0.10209361524277931  0.813692752366812  0.9792520286400118  1.0000
  O   O51       1.0  0.12082314456933571  0.0842664168388012  0.9708027626149942  1.0000
  O   O52       1.0  0.11037721511772253  0.0321087083623013  0.914263415278242  1.0000
  F   F1        1.0  0.9239114984582814  0.2788058343194066  0.604312077841179  1.0000
  F   F2        1.0  0.8260602686142134  0.22965312995840034  0.6533043852467415  1.0000
  F   F3        1.0  0.19357722387308476  0.5460613926725558  0.3371748716241214  1.0000
  F   F4        1.0  0.29157140657179786  0.5951863286558704  0.2882574600065269  1.0000
  F   F5        1.0  0.9232638230790755  0.5460212602118942  0.3373512606139926  1.0000
  F   F6        1.0  0.8254068009655955  0.5951739752397953  0.2882999341608538  1.0000
  F   F7        1.0  0.20884920874115662  0.5204787204492048  0.5965312294085905  1.0000
  F   F8        1.0  0.30692139757338316  0.471494293539294  0.645514535346976  1.0000
  F   F9        1.0  0.5761997461340513  0.2039773569117855  0.9128916441814212  1.0000
  F   F10       1.0  0.6743687999924293  0.15508201761831938  0.9618492869764381  1.0000
  F   F11       1.0  0.2909081312358524  0.0949008891730969  0.7881594390758337  1.0000
  F   F12       1.0  0.19294150226459553  0.04592248874909189  0.8372235614508696  1.0000
  F   F13       1.0  0.29100092345911577  0.7299449955888875  0.1532310207036076  1.0000
  F   F14       1.0  0.19297587062905558  0.7789790978802742  0.10427490244256177  1.0000
  F   F15       1.0  0.5761555813686385  0.9713616710393893  0.14559891075410997  1.0000
  F   F16       1.0  0.674368444970817  0.020239870591972003  0.09659545486471183  1.0000
