data_image0
_chemical_formula_structural       Cd2H40C56N4O8
_chemical_formula_sum              "Cd2 H40 C56 N4 O8"
_cell_length_a       8.455046228257682
_cell_length_b       12.484812079413768
_cell_length_c       12.235998955885078
_cell_angle_alpha    95.2061701870182
_cell_angle_beta     90.04073156109612
_cell_angle_gamma    109.80088974257527

_space_group_name_H-M_alt    "P 1"
_space_group_IT_number       1

loop_
  _space_group_symop_operation_xyz
  'x, y, z'

loop_
  _atom_site_type_symbol
  _atom_site_label
  _atom_site_symmetry_multiplicity
  _atom_site_fract_x
  _atom_site_fract_y
  _atom_site_fract_z
  _atom_site_occupancy
  Cd  Cd1       1.0  0.6371941179686401  0.9998202246471167  0.4998437564192884  1.0000
  Cd  Cd2       1.0  0.2562048116914966  0.00012375586566550033  0.9998129837979874  1.0000
  H   H1        1.0  0.8621872172383575  0.3222013973663564  0.33913647059806346  1.0000
  H   H2        1.0  0.5393809397256675  0.6774216462818429  0.6608772428355677  1.0000
  H   H3        1.0  0.9266770928414728  0.6324945644566499  0.1357575977220762  1.0000
  H   H4        1.0  0.29380687526203525  0.3677108621337978  0.8647915571432133  1.0000
  H   H5        1.0  0.8338289998460695  0.7910148743044658  0.2193467404304315  1.0000
  H   H6        1.0  0.04248663744920118  0.2088454295709354  0.7812981324206802  1.0000
  H   H7        1.0  0.0200158374253121  0.33948052604402085  0.043261489865166404  1.0000
  H   H8        1.0  0.6807783509747197  0.6605383822817076  0.95679680437339  1.0000
  H   H9        1.0  0.7890982255741008  0.4577828016840755  0.4277541851124909  1.0000
  H   H10       1.0  0.33012871104511277  0.541859463445846  0.5724495617693818  1.0000
  H   H11       1.0  0.07531943281506412  0.023771638397761297  0.23495076865427217  1.0000
  H   H12       1.0  0.05118018146639251  0.9760615731282766  0.76473232165074  1.0000
  H   H13       1.0  0.9457162194480162  0.15712755140212656  0.3342272959763832  1.0000
  H   H14       1.0  0.7881094438213129  0.8424159042689114  0.6655351645921641  1.0000
  H   H15       1.0  0.7250674020946306  0.346092948179809  0.001973930354878901  1.0000
  H   H16       1.0  0.3791243829265269  0.6542561222781487  0.9978507184905822  1.0000
  H   H17       1.0  0.6910579890548688  0.3917372139986026  0.604493575278596  1.0000
  H   H18       1.0  0.29932816112732047  0.6086918594636188  0.3953006771295264  1.0000
  H   H19       1.0  0.4841862407740294  0.22571375776202268  0.6841816654685786  1.0000
  H   H20       1.0  0.25855701794057495  0.7746630432068075  0.3153998477212028  1.0000
  H   H21       1.0  0.9276450573359227  0.5156702021458771  0.9257922495964549  1.0000
  H   H22       1.0  0.41206214139619146  0.4847150188183845  0.0741972724260194  1.0000
  H   H23       1.0  0.6949734069375282  0.615746432020451  0.5088216383192616  1.0000
  H   H24       1.0  0.07822853986433391  0.3835062785146023  0.49141836019953183  1.0000
  H   H25       1.0  0.9776233167058807  0.46586703238695293  0.14268511890528396  1.0000
  H   H26       1.0  0.5112686020766545  0.5341095998337977  0.8576161790329806  1.0000
  H   H27       1.0  0.1469261821665384  0.20133373780656433  0.959034990585124  1.0000
  H   H28       1.0  0.9460183096607439  0.7989899938001912  0.04096832876707879  1.0000
  H   H29       1.0  0.2427677543595409  0.8801129822998635  0.47218782512175744  1.0000
  H   H30       1.0  0.36193850499758906  0.11967500562005991  0.5275507598503211  1.0000
  H   H31       1.0  0.03796173466521685  0.7150381069387707  0.5506529771849458  1.0000
  H   H32       1.0  0.3225693517078341  0.28502353487398574  0.4492293506265028  1.0000
  H   H33       1.0  0.36268041848808263  0.8018871121311693  0.8433617643276321  1.0000
  H   H34       1.0  0.5604452524496395  0.19854395646482456  0.1566979450816461  1.0000
  H   H35       1.0  0.5556947032822919  0.9635143246688357  0.7506762189899375  1.0000
  H   H36       1.0  0.5916871923031125  0.03673396545728019  0.2492663784958395  1.0000
  H   H37       1.0  0.11055185824874052  0.6425363513128345  0.8430642020269729  1.0000
  H   H38       1.0  0.4676511660523489  0.3577559325064216  0.1570265915645876  1.0000
  H   H39       1.0  0.9102855039239658  0.564859754141537  0.6224558506139032  1.0000
  H   H40       1.0  0.34542725739171226  0.4355356937737938  0.3775227968928903  1.0000
  C   C1        1.0  0.9134381863221178  0.34525514026596943  0.25919171336076363  1.0000
  C   C2        1.0  0.5677192915514125  0.6545171294322003  0.740900151810365  1.0000
  C   C3        1.0  0.8742568871069877  0.6285318621393614  0.21739611678430038  1.0000
  C   C4        1.0  0.2452728391153939  0.3714176037175888  0.7830626471156135  1.0000
  C   C5        1.0  0.9768369786719263  0.262941845658375  0.1993776106891474  1.0000
  C   C6        1.0  0.7137388061358224  0.7368450455334214  0.8006017131315842  1.0000
  C   C7        1.0  0.8635480205928162  0.5337439227798912  0.27513803023157374  1.0000
  C   C8        1.0  0.3291385661876234  0.4660837981506917  0.7251801370440204  1.0000
  C   C9        1.0  0.8233199311804781  0.7169053596537578  0.2631973083814501  1.0000
  C   C10       1.0  0.10604643548796841  0.2828454357444273  0.7373072351694603  1.0000
  C   C11       1.0  0.7068750904833294  0.8086379288298604  0.4191985680849085  1.0000
  C   C12       1.0  0.8981498135710169  0.19048726803712412  0.5811024312826162  1.0000
  C   C13       1.0  0.7588474812221834  0.7126483144319806  0.36863530450095533  1.0000
  C   C14       1.0  0.04578017378022283  0.2867688178904047  0.6317295560688692  1.0000
  C   C15       1.0  0.03107339977695033  0.27248030627444564  0.0906192688573597  1.0000
  C   C16       1.0  0.758775579416927  0.7274588020158319  0.9093823903625448  1.0000
  C   C17       1.0  0.7990248091654806  0.5304462190647782  0.38155693709502  1.0000
  C   C18       1.0  0.2676082078575633  0.46923049508091463  0.6187261352234898  1.0000
  C   C19       1.0  0.4690057821503331  0.1751518760173596  0.8934979517143732  1.0000
  C   C20       1.0  0.2937819746026095  0.8250894348959792  0.10609927939603382  1.0000
  C   C21       1.0  0.5929254122996426  0.2756280871360559  0.8472017904698176  1.0000
  C   C22       1.0  0.3171783216326602  0.7245902953817307  0.1524567728095363  1.0000
  C   C23       1.0  0.06106802908763601  0.0956358487069835  0.19653644817557137  1.0000
  C   C24       1.0  0.9652165226511186  0.9042286551497938  0.8032380588010283  1.0000
  C   C25       1.0  0.98911412340793  0.16948880124971308  0.25087658328489226  1.0000
  C   C26       1.0  0.8193684977631647  0.8301771062896323  0.7489316404939288  1.0000
  C   C27       1.0  0.8248251772694386  0.46575211168659797  0.7590015581621472  1.0000
  C   C28       1.0  0.3588374823894114  0.534530656287167  0.24087733348216736  1.0000
  C   C29       1.0  0.7187801314527887  0.35770790404613  0.9150006836912398  1.0000
  C   C30       1.0  0.36118487381551734  0.6426155182926436  0.08480651093505291  1.0000
  C   C31       1.0  0.6982706629760217  0.38250870676345994  0.6920049217850278  1.0000
  C   C32       1.0  0.3157077602064859  0.6178313881715382  0.3077874932727695  1.0000
  C   C33       1.0  0.5834199241447778  0.28931883197442687  0.7353951550517124  1.0000
  C   C34       1.0  0.2942408831699622  0.7110588150442824  0.2642918367983995  1.0000
  C   C35       1.0  0.832137449092201  0.4518276284981154  0.8718828837025967  1.0000
  C   C36       1.0  0.3802243684497171  0.5484699280076129  0.1280323305442792  1.0000
  C   C37       1.0  0.7464257110040292  0.6181996687723127  0.426984592965688  1.0000
  C   C38       1.0  0.12740283627032056  0.38124750093140136  0.5733079606519098  1.0000
  C   C39       1.0  0.9207580399127975  0.44553865171724266  0.2218242073998766  1.0000
  C   C40       1.0  0.4746627765009564  0.5543476071709961  0.778409294764053  1.0000
  C   C41       1.0  0.10153868418507267  0.19557719143478638  0.04254287204265239  1.0000
  C   C42       1.0  0.9061472774437577  0.8045326118700091  0.9574221028277845  1.0000
  C   C43       1.0  0.26485579224439704  0.8589170614624565  0.5541836302725612  1.0000
  C   C44       1.0  0.40541075206482463  0.14106363628255286  0.4456305144616478  1.0000
  C   C45       1.0  0.1514176366979497  0.7662402575553882  0.5984871263834036  1.0000
  C   C46       1.0  0.384896051795522  0.23391357793477136  0.40141412859647124  1.0000
  C   C47       1.0  0.18486892428841634  0.7409871887226915  0.7043174085658848  1.0000
  C   C48       1.0  0.44377372170527  0.2593286565943629  0.2956974379016373  1.0000
  C   C49       1.0  0.3323829646731156  0.815074110268604  0.7601730700210183  1.0000
  C   C50       1.0  0.5171838576488382  0.1853183238215692  0.23987368185586178  1.0000
  C   C51       1.0  0.4392030367916249  0.9061617936865503  0.7096902767977864  1.0000
  C   C52       1.0  0.5326992501570658  0.0941200662227004  0.2902405915830286  1.0000
  C   C53       1.0  0.07512807626644497  0.6452340648783377  0.7577286341855255  1.0000
  C   C54       1.0  0.42971338919148383  0.3551137394443273  0.24233945756932226  1.0000
  C   C55       1.0  0.9394391964493921  0.562114964582733  0.7089932777306769  1.0000
  C   C56       1.0  0.37715703131085826  0.43818646872432515  0.2909923042848348  1.0000
  N   N1        1.0  0.11961523897473822  0.10947934042326321  0.0946755416305081  1.0000
  N   N2        1.0  0.010048926866673623  0.8906460771340862  0.9052005470671887  1.0000
  N   N3        1.0  0.4080331707508619  0.927650811846547  0.60755015887716  1.0000
  N   N4        1.0  0.479828955540917  0.0723985892726304  0.3922787832206254  1.0000
  O   O1        1.0  0.6341424472527918  0.7983646256270588  0.5105767816858489  1.0000
  O   O2        1.0  0.835996480053943  0.20052507454985857  0.4894246822227188  1.0000
  O   O3        1.0  0.7401359454409757  0.8992581216496591  0.3687745892316697  1.0000
  O   O4        1.0  0.8404759398197541  0.10007420448821591  0.6317501965415744  1.0000
  O   O5        1.0  0.33279369255931357  0.11881076425045477  0.8399844548785252  1.0000
  O   O6        1.0  0.21391234494542727  0.8813689269200677  0.15955735142117078  1.0000
  O   O7        1.0  0.505504138439541  0.15039373841659653  0.9877678944120163  1.0000
  O   O8        1.0  0.3554052041842867  0.8499662535720705  0.01197863357406704  1.0000
