data_image0
_chemical_formula_structural       K2Cu12H24C36N36Cl2O24
_chemical_formula_sum              "K2 Cu12 H24 C36 N36 Cl2 O24"
_cell_length_a       10.423754740552763
_cell_length_b       12.669396566234983
_cell_length_c       13.11
_cell_angle_alpha    83.57882546839528
_cell_angle_beta     81.85312627103129
_cell_angle_gamma    68.0586063435716

_space_group_name_H-M_alt    "P 1"
_space_group_IT_number       1

loop_
  _space_group_symop_operation_xyz
  'x, y, z'

loop_
  _atom_site_type_symbol
  _atom_site_label
  _atom_site_symmetry_multiplicity
  _atom_site_fract_x
  _atom_site_fract_y
  _atom_site_fract_z
  _atom_site_occupancy
  K   K1        1.0  0.33102724048853815  0.4592139619476328  0.026840599110890706  1.0000
  K   K2        1.0  0.6689779462939996  0.5407862094441356  0.973162688107834  1.0000
  Cu  Cu1       1.0  0.9335965113683002  0.7509704958465804  0.4758694788269011  1.0000
  Cu  Cu2       1.0  0.06640226995313717  0.2490288228498372  0.5241308083983256  1.0000
  Cu  Cu3       1.0  0.6680186579361945  0.9790920815291813  0.36790736767072474  1.0000
  Cu  Cu4       1.0  0.3319803356487867  0.0209089425579307  0.6320934740998396  1.0000
  Cu  Cu5       1.0  0.5451147190387077  0.0914328164675879  0.6133139868833624  1.0000
  Cu  Cu6       1.0  0.4548860005379113  0.9085665022288295  0.3866868447265404  1.0000
  Cu  Cu7       1.0  0.8159533422579486  0.8616733744187569  0.7165242036498681  1.0000
  Cu  Cu8       1.0  0.1840473773186631  0.1383259442776605  0.2834758651835259  1.0000
  Cu  Cu9       1.0  0.92490344752337  0.0546483919740268  0.6767449756679368  1.0000
  Cu  Cu10      1.0  0.07509689362122174  0.9453517794177344  0.32325351809481623  1.0000
  Cu  Cu11      1.0  0.7968818308208798  0.1737716370793621  0.4432791708434891  1.0000
  Cu  Cu12      1.0  0.20311791962814138  0.8262276816170555  0.5567194816328042  1.0000
  H   H1        1.0  0.055870734305919635  0.6149093104055865  0.2799364391445778  1.0000
  H   H2        1.0  0.9441266994559  0.3850908609861818  0.7200631449824257  1.0000
  H   H3        1.0  0.7411528839795168  0.9111450529525057  0.14269934641508542  1.0000
  H   H4        1.0  0.2588461096054644  0.0888559711346062  0.8573014953554718  1.0000
  H   H5        1.0  0.47512947460630534  0.1791086572445337  0.23986485704865151  1.0000
  H   H6        1.0  0.5248718356658699  0.8208915141472346  0.7601350530712025  1.0000
  H   H7        1.0  0.3250478493292945  0.3170065484589344  0.5435244882759136  1.0000
  H   H8        1.0  0.674950931992143  0.6829927702374832  0.45647579894930607  1.0000
  H   H9        1.0  0.4240944757260864  0.2201480315102913  0.8124749558081349  1.0000
  H   H10       1.0  0.575904305595344  0.7798512871861334  0.18752609419359353  1.0000
  H   H11       1.0  0.7518141019625592  0.9277674960104675  0.9422423947919186  1.0000
  H   H12       1.0  0.2481893588283484  0.0722343807719881  0.057757088704938994  1.0000
  H   H13       1.0  0.0004808600126011647  0.6540480267470485  0.8483669721516591  1.0000
  H   H14       1.0  0.9995188904364272  0.345951291949369  0.15163396865415277  1.0000
  H   H15       1.0  0.16172290239289575  0.5249832066128448  0.5425188362742475  1.0000
  H   H16       1.0  0.8382774387516961  0.4750169647789235  0.4574819458180244  1.0000
  H   H17       1.0  0.32446564503837283  0.6982398157037508  0.7554391898316268  1.0000
  H   H18       1.0  0.6755343176741918  0.3017612083833612  0.24455925441350254  1.0000
  H   H19       1.0  0.9905300895143372  0.985502645133863  0.8972731388657991  1.0000
  H   H20       1.0  0.009470463893798398  0.0144992316485855  0.10272514666579009  1.0000
  H   H21       1.0  0.747609229459357  0.2515391579458992  0.8126632324269494  1.0000
  H   H22       1.0  0.25239014255764397  0.7484610134458619  0.18733613330822857  1.0000
  H   H23       1.0  0.5801945129660098  0.4021967823048271  0.5211744697620732  1.0000
  H   H24       1.0  0.41980523748301835  0.5978025363915904  0.4788249454907287  1.0000
  C   C1        1.0  0.971844414550418  0.6947250054911221  0.2633069858740313  1.0000
  C   C2        1.0  0.028153019211401877  0.305275165900639  0.7366925982529793  1.0000
  C   C3        1.0  0.9181069434063287  0.74379932799404  0.16946378907911713  1.0000
  C   C4        1.0  0.0818924286106721  0.2562008433977283  0.8305355766560539  1.0000
  C   C5        1.0  0.8092524435544491  0.8470479438590885  0.19273557219406004  1.0000
  C   C6        1.0  0.19074520247092153  0.1529539329233671  0.8072638037017796  1.0000
  C   C7        1.0  0.4530339642893182  0.19454585377276598  0.32151594253770815  1.0000
  C   C8        1.0  0.5469667552872934  0.8054534649236516  0.6784848890721876  1.0000
  C   C9        1.0  0.3596365054573099  0.2904476465441803  0.37221542496416044  1.0000
  C   C10       1.0  0.6403595807448994  0.7095533775429317  0.6277857443941457  1.0000
  C   C11       1.0  0.3754912732727362  0.2658183941954491  0.477952805073194  1.0000
  C   C12       1.0  0.624508477176292  0.7341809245009755  0.5220481357326179  1.0000
  C   C13       1.0  0.5096885586274595  0.1408507751945933  0.8272903423752779  1.0000
  C   C14       1.0  0.4903115702535815  0.8591476908064806  0.17271064794816476  1.0000
  C   C15       1.0  0.57077249792993  0.09388261019414298  0.9190308593956189  1.0000
  C   C16       1.0  0.4292297814698428  0.9061175611976182  0.08096970430482028  1.0000
  C   C17       1.0  0.6799606303171615  0.9912105877741624  0.8939851019995403  1.0000
  C   C18       1.0  0.3200406799550137  0.0087895836175989  0.106016333673324  1.0000
  C   C19       1.0  0.023544118064783945  0.6404373036480848  0.7663659671429528  1.0000
  C   C20       1.0  0.9764566015118279  0.3595620150483327  0.23363410169044127  1.0000
  C   C21       1.0  0.12399629681554096  0.5484127166109758  0.7142954270995717  1.0000
  C   C22       1.0  0.8760050134566344  0.4515874547807854  0.2857052457967839  1.0000
  C   C23       1.0  0.10734594645600737  0.5739807865346975  0.6087003045417632  1.0000
  C   C24       1.0  0.8926543946885843  0.4260193848570708  0.39129971477400727  1.0000
  C   C25       1.0  0.23667365236659066  0.7762529128296833  0.7723290809224465  1.0000
  C   C26       1.0  0.7633272794735717  0.2237481112574287  0.22767001690327504  1.0000
  C   C27       1.0  0.17542668448103885  0.8227171348811523  0.8677193690035807  1.0000
  C   C28       1.0  0.8245746257911364  0.1772830365106088  0.13227977833976473  1.0000
  C   C29       1.0  0.06384744211305089  0.9236762637445324  0.8458125749536691  1.0000
  C   C30       1.0  0.9361534897271042  0.0763247603425796  0.1541865228720525  1.0000
  C   C31       1.0  0.7222779572035877  0.270773406845997  0.7334004897285524  1.0000
  C   C32       1.0  0.2777208241178429  0.7292259118504205  0.2665990347201586  1.0000
  C   C33       1.0  0.6237021145518113  0.3676302184039528  0.6885405631959216  1.0000
  C   C34       1.0  0.3762960760740555  0.6323682475971211  0.3114591199663366  1.0000
  C   C35       1.0  0.6363321224444648  0.3489809185106196  0.5831910261518516  1.0000
  C   C36       1.0  0.36366665887697286  0.6510184001857979  0.4168084982968665  1.0000
  N   N1        1.0  0.8993524903589503  0.764784160437685  0.33758812311706515  1.0000
  N   N2        1.0  0.1006445649708496  0.235216863649427  0.6624114114923146  1.0000
  N   N3        1.0  0.7985343275164994  0.8586335155133681  0.2939733168166825  1.0000
  N   N4        1.0  0.20146407537291122  0.141366655878393  0.7060269208909133  1.0000
  N   N5        1.0  0.5216667911986336  0.1181912490931083  0.3928992229682038  1.0000
  N   N6        1.0  0.47833161169077704  0.8818089222986529  0.6070994891863819  1.0000
  N   N7        1.0  0.4738440163057335  0.1621664534321496  0.4893899667289928  1.0000
  N   N8        1.0  0.5261557341432876  0.8378328652642749  0.5106094485238017  1.0000
  N   N9        1.0  0.5779998843166041  0.0703456605825252  0.752639815365427  1.0000
  N   N10       1.0  0.42199986613242396  0.9296536581138923  0.2473603626638834  1.0000
  N   N11       1.0  0.6833328353531912  0.9779827248851659  0.793731190947554  1.0000
  N   N12       1.0  0.31666944404657477  0.0220174465066023  0.206270135529401  1.0000
  N   N13       1.0  0.9527582171670161  0.7162913761601502  0.6959214846991556  1.0000
  N   N14       1.0  0.04724347153718609  0.2837079425362674  0.3040784749383221  1.0000
  N   N15       1.0  0.00461128400539216  0.6750592927463899  0.5983935087552653  1.0000
  N   N16       1.0  0.9953890571391993  0.3249408786453714  0.4016072733370066  1.0000
  N   N17       1.0  0.9635375027172515  0.6985672507162803  0.07199093619931321  1.0000
  N   N18       1.0  0.03646321685936728  0.3014320679801372  0.928010658187091  1.0000
  N   N19       1.0  0.2728719372880306  0.3924436529472359  0.3258399472800733  1.0000
  N   N20       1.0  0.7271274347289703  0.6075565184445324  0.6741601812316063  1.0000
  N   N21       1.0  0.5315656375394439  0.4635993741076305  0.7388115085694907  1.0000
  N   N22       1.0  0.4684337344775571  0.5364007972841307  0.2611893827186975  1.0000
  N   N23       1.0  0.5287383649446298  0.1395828172163789  0.0163389248204595  1.0000
  N   N24       1.0  0.4712610070723712  0.8604173541753822  0.9836619664677287  1.0000
  N   N25       1.0  0.21883277154962127  0.7776138146005067  0.964917609797574  1.0000
  N   N26       1.0  0.7811681602905339  0.2223872094865982  0.03508148802814758  1.0000
  N   N27       1.0  0.22199851378022836  0.4511167669502782  0.758397119576344  1.0000
  N   N28       1.0  0.7780022057963905  0.5488825517461464  0.2416029492570502  1.0000
  N   N29       1.0  0.16634551175906861  0.8456947163463724  0.6981318401717687  1.0000
  N   N30       1.0  0.8336554200810866  0.1543063077407396  0.3018672576539458  1.0000
  N   N31       1.0  0.05887610195363632  0.9362339080922623  0.7435975166904498  1.0000
  N   N32       1.0  0.941124829886526  0.0637671159948496  0.2564015811352718  1.0000
  N   N33       1.0  0.7887217437687682  0.19901056659986688  0.6592763338480054  1.0000
  N   N34       1.0  0.21127762824823287  0.8009896047919014  0.3407230318871656  1.0000
  N   N35       1.0  0.7351640101325075  0.2468894102289099  0.5666893055514493  1.0000
  N   N36       1.0  0.2648347711889301  0.7531099084675148  0.4333102188972617  1.0000
  Cl  Cl1       1.0  0.8122240967609569  0.9585497979696527  0.53048337877091  1.0000
  Cl  Cl2       1.0  0.1877746845604804  0.0414495207267649  0.4695169084543167  1.0000
  O   O1        1.0  0.0627345742664289  0.6048065759564878  0.06509551851673481  1.0000
  O   O2        1.0  0.9372640408865253  0.3951953008259678  0.9349052737361987  1.0000
  O   O3        1.0  0.9033935057001796  0.7536283472373526  0.995790823647397  1.0000
  O   O4        1.0  0.09660392806163999  0.2463718241544157  0.004209523256115207  1.0000
  O   O5        1.0  0.274919904893359  0.401372225906087  0.22955039364441626  1.0000
  O   O6        1.0  0.7250808146832527  0.5986270927903306  0.7704489124124692  1.0000
  O   O7        1.0  0.19676750728955025  0.4708762761829703  0.3824141367126117  1.0000
  O   O8        1.0  0.8032318647274509  0.5291238952087909  0.6175844662460578  1.0000
  O   O9        1.0  0.45867170966540266  0.5468343775271407  0.6848313951939105  1.0000
  O   O10       1.0  0.5413280407836183  0.4531649411692769  0.3151680200588913  1.0000
  O   O11       1.0  0.5256701264513595  0.4624056006244501  0.8353088448789378  1.0000
  O   O12       1.0  0.4743305931252524  0.5375937180719674  0.1646904611779476  1.0000
  O   O13       1.0  0.4251854751681706  0.23023712283386288  0.025525544202721986  1.0000
  O   O14       1.0  0.5748148659764141  0.7697630485578982  0.9744752378895497  1.0000
  O   O15       1.0  0.5957095541941227  0.0872716631833512  0.09064649319282843  1.0000
  O   O16       1.0  0.40429019625490525  0.9127276555130662  0.9093536848364749  1.0000
  O   O17       1.0  0.15571564583122924  0.8321155429751741  0.04271859257648462  1.0000
  O   O18       1.0  0.8442835139222284  0.1678829230258998  0.9572809813898573  1.0000
  O   O19       1.0  0.31973191494231656  0.6846214183466799  0.9703711770609332  1.0000
  O   O20       1.0  0.6802690168978388  0.3153796057404321  0.029627920764788485  1.0000
  O   O21       1.0  0.2243448472367362  0.44221377485177266  0.8543924443798545  1.0000
  O   O22       1.0  0.7756558723398754  0.5577855438446448  0.1456076244535325  1.0000
  O   O23       1.0  0.30370617571379194  0.3760301202488279  0.7005591783966452  1.0000
  O   O24       1.0  0.696293196303209  0.6239700511429334  0.29943942456201716  1.0000
