data_image0
_chemical_formula_structural       U6H66C126O48
_chemical_formula_sum              "U6 H66 C126 O48"
_cell_length_a       17.308892398012716
_cell_length_b       18.53050549990863
_cell_length_c       18.530144437807945
_cell_angle_alpha    120.00018329848646
_cell_angle_beta     89.99993373805191
_cell_angle_gamma    90.00013886636806

_space_group_name_H-M_alt    "P 1"
_space_group_IT_number       1

loop_
  _space_group_symop_operation_xyz
  'x, y, z'

loop_
  _atom_site_type_symbol
  _atom_site_label
  _atom_site_symmetry_multiplicity
  _atom_site_fract_x
  _atom_site_fract_y
  _atom_site_fract_z
  _atom_site_occupancy
  U   U1        1.0  0.7500002684226387  0.6542999085746146  0.07001241138956259  1.0000
  U   U2        1.0  0.7499997881254783  0.4156908810077837  0.3456951328704747  1.0000
  U   U3        1.0  0.7499997299940161  0.9300058723141761  0.5843059067570381  1.0000
  U   U4        1.0  0.24999943437317992  0.3456972989290463  0.41568437485629783  1.0000
  U   U5        1.0  0.2500000032889886  0.5843206834802217  0.93000181683162  1.0000
  U   U6        1.0  0.24999950663069362  0.06999790594372983  0.6543117683516543  1.0000
  H   H1        1.0  0.46151589076097116  0.5222498850339434  0.26463202483598997  1.0000
  H   H2        1.0  0.46151835537857266  0.7423669467570163  0.477733469586056  1.0000
  H   H3        1.0  0.4615190603270207  0.7353747747163409  0.2576239251054773  1.0000
  H   H4        1.0  0.03848420094450229  0.5222511013863311  0.26463246640781796  1.0000
  H   H5        1.0  0.0384843546084781  0.7423663771962267  0.4777346178020068  1.0000
  H   H6        1.0  0.03848159313277219  0.7353756794979417  0.2576246782533858  1.0000
  H   H7        1.0  0.5384829115240137  0.47775098829458784  0.7423792595496722  1.0000
  H   H8        1.0  0.5384832079899624  0.2576326900163722  0.7353685289684009  1.0000
  H   H9        1.0  0.5384821935441337  0.26463259783123055  0.5222626807578337  1.0000
  H   H10       1.0  0.9615163345555684  0.4777514743803551  0.7423792741472186  1.0000
  H   H11       1.0  0.9615172087585363  0.2576338603721667  0.7353710972776639  1.0000
  H   H12       1.0  0.9615173497888349  0.2646330839189874  0.5222626953554439  1.0000
  H   H13       1.0  0.249999907378033  0.5883322892518379  0.16021633887566372  1.0000
  H   H14       1.0  0.2500008858115592  0.5718677716614664  0.41165076655253324  1.0000
  H   H15       1.0  0.25000006777385403  0.8397875562058132  0.4281233939150511  1.0000
  H   H16       1.0  0.7500002206030913  0.41167081934682415  0.5718782990983797  1.0000
  H   H17       1.0  0.7500000760840422  0.4281337143421454  0.8397895528141108  1.0000
  H   H18       1.0  0.749999884135768  0.16021542027660032  0.5883418491239567  1.0000
  H   H19       1.0  0.46674929616187893  0.6235393914525673  0.061580946542917986  1.0000
  H   H20       1.0  0.4667540601456608  0.4380391683489933  0.37646083870006214  1.0000
  H   H21       1.0  0.4667517058600907  0.9384166918511311  0.561965594299842  1.0000
  H   H22       1.0  0.03325130983967739  0.6235392049066633  0.061580620007987426  1.0000
  H   H23       1.0  0.033246252281649895  0.43803867022765536  0.37646082374107703  1.0000
  H   H24       1.0  0.033247942161430885  0.9384175846064552  0.5619663470865959  1.0000
  H   H25       1.0  0.533246931582319  0.3764530502523798  0.43803648354192154  1.0000
  H   H26       1.0  0.5332445515212143  0.5619636202874078  0.9384193839661279  1.0000
  H   H27       1.0  0.5332469859001563  0.061578579855421485  0.6235410709910241  1.0000
  H   H28       1.0  0.9667530062325794  0.37645323680758486  0.43803681007713646  1.0000
  H   H29       1.0  0.9667552480744135  0.5619644299762072  0.9384190873489261  1.0000
  H   H30       1.0  0.9667524828127013  0.061578766409958546  0.6235413975262176  1.0000
  H   H31       1.0  0.5845342448376983  0.5742249081770296  0.23790942334618845  1.0000
  H   H32       1.0  0.5845377110101211  0.6636729512753661  0.4257705898114852  1.0000
  H   H33       1.0  0.5845361608921563  0.7620990668098315  0.33632179259531364  1.0000
  H   H34       1.0  0.9154652985578051  0.5742249768685923  0.23790974634186313  1.0000
  H   H35       1.0  0.9154652983035872  0.6636742438862483  0.4257740061796725  1.0000
  H   H36       1.0  0.9154637481875127  0.7621002982796411  0.3363220320992398  1.0000
  H   H37       1.0  0.41546520046270535  0.4257810858714709  0.6636833986900543  1.0000
  H   H38       1.0  0.4154638679796462  0.33632534843774675  0.7620989516680228  1.0000
  H   H39       1.0  0.4154644343307154  0.23790158985980991  0.5742283790480514  1.0000
  H   H40       1.0  0.08453414674259818  0.42578101717990086  0.6636830756943795  1.0000
  H   H41       1.0  0.084535702948628  0.33632658714716274  0.7621005592315628  1.0000
  H   H42       1.0  0.08453453608700562  0.23790237238765144  0.5742282841370709  1.0000
  H   H43       1.0  0.3457021825508662  0.5694210563401966  0.08482792312651093  1.0000
  H   H44       1.0  0.3457042093379243  0.5154003744457254  0.43056930206938665  1.0000
  H   H45       1.0  0.3457035391278395  0.915172741659461  0.4846032484264526  1.0000
  H   H46       1.0  0.15429825422224744  0.5694211479720153  0.08482760494548104  1.0000
  H   H47       1.0  0.1542968145816701  0.5153990752015503  0.43056821614263197  1.0000
  H   H48       1.0  0.15429614437304906  0.9151736010310215  0.48460432114347896  1.0000
  H   H49       1.0  0.65429456063449  0.4305683162680225  0.5153974761368971  1.0000
  H   H50       1.0  0.6542943832242896  0.48460462228034384  0.9151712433673397  1.0000
  H   H51       1.0  0.6542952340448378  0.08482854302986456  0.5694278140676872  1.0000
  H   H52       1.0  0.8457054218166888  0.43056907586225185  0.5153980224028204  1.0000
  H   H53       1.0  0.8457052444070855  0.4846056934387166  0.9151714780569835  1.0000
  H   H54       1.0  0.8457043620135211  0.08482876296816506  0.5694278206726153  1.0000
  H   H55       1.0  0.3731664079094655  0.4327765960020145  0.23501693077518843  1.0000
  H   H56       1.0  0.37316957030612485  0.8022340442238587  0.5672051680067298  1.0000
  H   H57       1.0  0.3731645510642494  0.7649724834396707  0.19776037949883835  1.0000
  H   H58       1.0  0.1268329105394912  0.4327768526069065  0.23501746193593934  1.0000
  H   H59       1.0  0.1268302955582357  0.8022332215142358  0.5672046198453985  1.0000
  H   H60       1.0  0.12683509785793487  0.7649722003952704  0.19776037099878613  1.0000
  H   H61       1.0  0.6268335311007505  0.5672064010994192  0.8022401119680965  1.0000
  H   H62       1.0  0.6268313416049762  0.1977694027900867  0.7649685955089041  1.0000
  H   H63       1.0  0.6268321733609312  0.235028676330117  0.43278904716692074  1.0000
  H   H64       1.0  0.8731658729972195  0.5672078469293639  0.8022400369766133  1.0000
  H   H65       1.0  0.8731665721884738  0.19776968584112364  0.7649686040091552  1.0000
  H   H66       1.0  0.8731691371575819  0.23502895938314333  0.43278905566722864  1.0000
  C   C1        1.0  0.3938715511069048  0.5435090167305104  0.17821463450588484  1.0000
  C   C2        1.0  0.39387438582532047  0.6346970348175206  0.4564786646179543  1.0000
  C   C3        1.0  0.3938735295627325  0.8217884762277592  0.36530051418026227  1.0000
  C   C4        1.0  0.10612870277904561  0.5435092257540574  0.17821516423772724  1.0000
  C   C5        1.0  0.1061269155935562  0.6346957694893902  0.4564795894175617  1.0000
  C   C6        1.0  0.10612663707180299  0.8217895364647417  0.3653012719966285  1.0000
  C   C7        1.0  0.6061256381341947  0.45648553620796434  0.6346995182076471  1.0000
  C   C8        1.0  0.606125403988976  0.36530635453349464  0.8217855659770024  1.0000
  C   C9        1.0  0.6061259112619836  0.17821567254843285  0.5435170690948753  1.0000
  C   C10       1.0  0.8938736861032195  0.45648725771633275  0.6347002958825243  1.0000
  C   C11       1.0  0.8938740296941601  0.3653069132603052  0.8217864271435289  1.0000
  C   C12       1.0  0.8938739592290759  0.17821569162064324  0.5435173906004351  1.0000
  C   C13       1.0  0.32080905867218945  0.5147817322398324  0.19451547841016037  1.0000
  C   C14       1.0  0.32080967045011727  0.6797243700742541  0.48519835202459666  1.0000
  C   C15       1.0  0.3208093580055831  0.805483483663579  0.32027279273021486  1.0000
  C   C16       1.0  0.1791905227399155  0.5147812579491742  0.19451578509963954  1.0000
  C   C17       1.0  0.179191712255566  0.6797238957842565  0.48519865871409706  1.0000
  C   C18       1.0  0.17919082207487236  0.8054841721551468  0.3202730159280662  1.0000
  C   C19       1.0  0.6791898258053949  0.4852092603484053  0.6797268630651487  1.0000
  C   C20       1.0  0.6791895339421218  0.3202798445153475  0.8054784955739933  1.0000
  C   C21       1.0  0.6791901284846205  0.19452259367408692  0.514795077339329  1.0000
  C   C22       1.0  0.8208100949508221  0.48520973464105327  0.6797265563757265  1.0000
  C   C23       1.0  0.8208092253499614  0.3202810865510558  0.8054795797827268  1.0000
  C   C24       1.0  0.8208103976294439  0.19452275640259137  0.5147950822262004  1.0000
  C   C25       1.0  0.4628424321570819  0.543603717557609  0.21959133520569196  1.0000
  C   C26       1.0  0.462843612779082  0.6759766930756186  0.4563838581844593  1.0000
  C   C27       1.0  0.4628432525058628  0.7804120293274791  0.32401879403701633  1.0000
  C   C28       1.0  0.0371571929999419  0.5436046192967864  0.21959208826223892  1.0000
  C   C29       1.0  0.037157795882201604  0.6759768882114868  0.4563863972070763  1.0000
  C   C30       1.0  0.0371562801358039  0.7804127029748784  0.3240186958562746  1.0000
  C   C31       1.0  0.537157594594994  0.45639371816145763  0.6759851924571194  1.0000
  C   C32       1.0  0.5371567804458836  0.3240233018534013  0.7804092053741982  1.0000
  C   C33       1.0  0.5371567915563701  0.21959113441511138  0.5436123160709841  1.0000
  C   C34       1.0  0.9628416782774281  0.45639389572881583  0.6759855187224204  1.0000
  C   C35       1.0  0.9628431750793282  0.3240242471671309  0.7804109225377545  1.0000
  C   C36       1.0  0.9628426084525541  0.2195916235486095  0.5436123307600553  1.0000
  C   C37       1.0  0.5331445666174518  0.6023564629928301  0.148564334053205  1.0000
  C   C38       1.0  0.5331483836989149  0.5462019044767317  0.39764266046308444  1.0000
  C   C39       1.0  0.5331464340374907  0.8514403733123928  0.4537992901876323  1.0000
  C   C40       1.0  0.9668551604199819  0.6023566497830329  0.14856466059547563  1.0000
  C   C41       1.0  0.9668526223869165  0.5462026309135696  0.39764352666608  1.0000
  C   C42       1.0  0.966854139151067  0.8514400204453451  0.45379907706886513  1.0000
  C   C43       1.0  0.46685442899522667  0.39764407689853  0.5462051196932053  1.0000
  C   C44       1.0  0.466853157393281  0.45379854519131163  0.8514392669858566  1.0000
  C   C45       1.0  0.4668529155547176  0.14856003806972512  0.6023589373866969  1.0000
  C   C46       1.0  0.03314499066849659  0.397644429763588  0.5462053328119154  1.0000
  C   C47       1.0  0.033147763230950006  0.45379943771494874  0.8514400197656542  1.0000
  C   C48       1.0  0.0331463659165792  0.14856039093810114  0.6023591505055136  1.0000
  C   C49       1.0  0.24999983532534736  0.5424663968886917  0.18046921891755835  1.0000
  C   C50       1.0  0.2500015209461636  0.6379901959931757  0.45751873848611524  1.0000
  C   C51       1.0  0.2500000824306169  0.8195318754559864  0.3620027700242474  1.0000
  C   C52       1.0  0.7499996614336835  0.4575323554404066  0.6379982348334395  1.0000
  C   C53       1.0  0.7500000028315625  0.3620123865117791  0.8195320460921778  1.0000
  C   C54       1.0  0.7499999388179716  0.1804717459993341  0.5424753309079193  1.0000
  C   C55       1.0  0.46532222795036654  0.6016500247670108  0.10623004154169984  1.0000
  C   C56       1.0  0.46532654302512094  0.5045750490052542  0.39834803696013676  1.0000
  C   C57       1.0  0.4653246769668655  0.8937734332175323  0.49542819918111997  1.0000
  C   C58       1.0  0.034677688218764  0.6016498414998563  0.1062297151052292  1.0000
  C   C59       1.0  0.034673337227509586  0.5045750938179268  0.3983485617605922  1.0000
  C   C60       1.0  0.03467551533327651  0.8937734780348521  0.49542872398171767  1.0000
  C   C61       1.0  0.534675086428571  0.3983437226749587  0.5045738712936583  1.0000
  C   C62       1.0  0.5346732382096562  0.4954279375509074  0.8937720314931852  1.0000
  C   C63       1.0  0.5346740695507464  0.10622753961802564  0.6016524878596244  1.0000
  C   C64       1.0  0.9653242480619253  0.3983439059474279  0.5045741977302853  1.0000
  C   C65       1.0  0.9653270217447555  0.49542812082869175  0.893772357929976  1.0000
  C   C66       1.0  0.9653255421353393  0.10622826254708446  0.6016533539572749  1.0000
  C   C67       1.0  0.6067472467056092  0.6326087088788483  0.13079675410264005  1.0000
  C   C68       1.0  0.6067509699525288  0.4981794805380915  0.3673903649636827  1.0000
  C   C69       1.0  0.6067513681444365  0.8692087076119038  0.501820191477556  1.0000
  C   C70       1.0  0.893252580839949  0.632607647215252  0.13079599624343527  1.0000
  C   C71       1.0  0.8932487934988202  0.49818066095595986  0.3673906029344778  1.0000
  C   C72       1.0  0.8932480362143307  0.8692090368103678  0.5018202013636497  1.0000
  C   C73       1.0  0.3932483232167812  0.3673946992941808  0.498186466340556  1.0000
  C   C74       1.0  0.3932476901807717  0.5018204400788662  0.8692063337726665  1.0000
  C   C75       1.0  0.39324908845693335  0.13079081654674246  0.6326134427222598  1.0000
  C   C76       1.0  0.1067510774095339  0.3673949097489881  0.49818699611538625  1.0000
  C   C77       1.0  0.10675217758691251  0.5018204224458817  0.8692060123103219  1.0000
  C   C78       1.0  0.106750109437364  0.13079111047391492  0.632612809683515  1.0000
  C   C79       1.0  0.5315181617394983  0.5731071880606107  0.20549431628944603  1.0000
  C   C80       1.0  0.5315209902569933  0.6323762491612186  0.42688266150802423  1.0000
  C   C81       1.0  0.5315200818486685  0.7945095287080406  0.3676210448406394  1.0000
  C   C82       1.0  0.9684819966342744  0.5731076901530868  0.20549433136768863  1.0000
  C   C83       1.0  0.968481358724169  0.6323771239549388  0.4268855418741282  1.0000
  C   C84       1.0  0.968479872580012  0.7945103423600202  0.36762074834245345  1.0000
  C   C85       1.0  0.468480745262049  0.4268908543474765  0.6323846243745521  1.0000
  C   C86       1.0  0.46847999024126347  0.367622963903493  0.7945079812065572  1.0000
  C   C87       1.0  0.4684810724240052  0.20549285318476515  0.573115347516918  1.0000
  C   C88       1.0  0.03151864358102329  0.4268906638211406  0.63238429772008  1.0000
  C   C89       1.0  0.03152019951065199  0.36762322955938503  0.7945093570266338  1.0000
  C   C90       1.0  0.0315183930056335  0.20549320231169335  0.5731155605233695  1.0000
  C   C91       1.0  0.3967343149169407  0.5726497421243053  0.12070998787209673  1.0000
  C   C92       1.0  0.3967358263619117  0.5480548122899479  0.42734282490948783  1.0000
  C   C93       1.0  0.3967350854472044  0.8792929707275191  0.45194772722499715  1.0000
  C   C94       1.0  0.1032660858015007  0.5726502561332651  0.12071020583009334  1.0000
  C   C95       1.0  0.1032641308172728  0.5480527726406875  0.42734235861339454  1.0000
  C   C96       1.0  0.10326570085513248  0.8792928616068564  0.45194856833552427  1.0000
  C   C97       1.0  0.6032635413141347  0.4273443007210033  0.5480528884594591  1.0000
  C   C98       1.0  0.6032633681503299  0.4519486552351425  0.8792895131711022  1.0000
  C   C99       1.0  0.6032631282096048  0.12070888936347768  0.572654666319508  1.0000
  C   C100      1.0  0.8967363923320592  0.42734486602522287  0.5480537498235095  1.0000
  C   C101      1.0  0.896736796906566  0.4519495321041732  0.8792900629588871  1.0000
  C   C102      1.0  0.8967359792278913  0.12070999432162924  0.5726560673445036  1.0000
  C   C103      1.0  0.3197938803647062  0.4572531566577069  0.22437967741582554  1.0000
  C   C104      1.0  0.3197963962679394  0.7671168050896853  0.5427271010413577  1.0000
  C   C105      1.0  0.3197937104549381  0.7756168389884264  0.2328783091115484  1.0000
  C   C106      1.0  0.18020609251206565  0.457251916956757  0.2243785932772013  1.0000
  C   C107      1.0  0.18020398651368907  0.7671163331271413  0.5427274078007471  1.0000
  C   C108      1.0  0.18020650034075197  0.7756166785960019  0.23287830429483594  1.0000
  C   C109      1.0  0.6802043537683601  0.542733395135187  0.7671196820299074  1.0000
  C   C110      1.0  0.6802039464724886  0.23288855201382586  0.77561414198766  1.0000
  C   C111      1.0  0.6802047102883151  0.2243872012317425  0.45726592781196024  1.0000
  C   C112      1.0  0.8197950303088604  0.5427335555315977  0.7671196868467406  1.0000
  C   C113      1.0  0.8197952007510736  0.23288925206482966  0.7756146864654525  1.0000
  C   C114      1.0  0.8197965423042533  0.22438736162947487  0.45726593262882886  1.0000
  C   C115      1.0  0.25000022990400333  0.429307509495949  0.2391465602712586  1.0000
  C   C116      1.0  0.25000051837177034  0.8098264969515299  0.5706776253366782  1.0000
  C   C117      1.0  0.250000112682727  0.7608485868375183  0.19016378241385476  1.0000
  C   C118      1.0  0.7500002795923848  0.5706807150557012  0.8098333187923998  1.0000
  C   C119      1.0  0.7499998162021128  0.19017809677210828  0.7608517072228623  1.0000
  C   C120      1.0  0.7500000850191952  0.23915041020016053  0.4293170586665838  1.0000
  C   C121      1.0  0.2499995582667793  0.3758377356887054  0.27874895143588674  1.0000
  C   C122      1.0  0.2500000282973929  0.9029008822269162  0.6241442870582361  1.0000
  C   C123      1.0  0.2500001189220669  0.7212435415217582  0.09708868737538277  1.0000
  C   C124      1.0  0.7500020245502553  0.6241455778191991  0.9029078086451321  1.0000
  C   C125      1.0  0.7500002976967296  0.09710353679166427  0.7212417345968946  1.0000
  C   C126      1.0  0.750000169516113  0.27875794880403504  0.3758503827961306  1.0000
  O   O1        1.0  0.6082413323885447  0.6465666255770657  0.06969398210353715  1.0000
  O   O2        1.0  0.6082425999862408  0.4231180696470248  0.3534353945138307  1.0000
  O   O3        1.0  0.608243697478059  0.9303117895784537  0.5768837481486314  1.0000
  O   O4        1.0  0.8917591847816411  0.6465655604807167  0.0696932241412398  1.0000
  O   O5        1.0  0.891757563694007  0.4231200978555236  0.3534358604663482  1.0000
  O   O6        1.0  0.8917557724956707  0.9303126550014085  0.5768842975926772  1.0000
  O   O7        1.0  0.39175489957656845  0.3534331560343063  0.42312168824954455  1.0000
  O   O8        1.0  0.3917566086948057  0.5768832336279318  0.9303085519696384  1.0000
  O   O9        1.0  0.3917572817401264  0.06968586701086833  0.646571062021721  1.0000
  O   O10       1.0  0.10824398003535407  0.3534331418307631  0.42312136689018603  1.0000
  O   O11       1.0  0.10824395594116959  0.5768842987302633  0.9303093099321131  1.0000
  O   O12       1.0  0.1082411625596791  0.06968562471156053  0.6465698894249527  1.0000
  O   O13       1.0  0.7500001587767783  0.540943701064009  0.009545988566003407  1.0000
  O   O14       1.0  0.7500003643289261  0.4685995259436171  0.4590507259400526  1.0000
  O   O15       1.0  0.7499998411794309  0.9904464252472637  0.5313935250211514  1.0000
  O   O16       1.0  0.2500001264344077  0.45905333260577647  0.46859562016692985  1.0000
  O   O17       1.0  0.24999989720193838  0.5314014096990931  0.9904418068652633  1.0000
  O   O18       1.0  0.25000007612742087  0.009553902458527863  0.5409526661779225  1.0000
  O   O19       1.0  0.7500009549582459  0.7662667492184028  0.12893677890025412  1.0000
  O   O20       1.0  0.7500009441171755  0.3626607863930147  0.23372921390652118  1.0000
  O   O21       1.0  0.7499996206908931  0.871076269929219  0.6373446316335463  1.0000
  O   O22       1.0  0.24999989966035227  0.23373438416596312  0.3626676040800377  1.0000
  O   O23       1.0  0.2500001085793642  0.6373424214998806  0.871063251725225  1.0000
  O   O24       1.0  0.24999778055497052  0.12892547967106793  0.7662753110996049  1.0000
  O   O25       1.0  0.6673767613171718  0.6415879004661206  0.17344947616715695  1.0000
  O   O26       1.0  0.6673770821509136  0.5318525690668992  0.35840584480641985  1.0000
  O   O27       1.0  0.6673785520676603  0.8265545002054822  0.46814549752494367  1.0000
  O   O28       1.0  0.8326230367134357  0.64158809034204  0.17344948186928388  1.0000
  O   O29       1.0  0.8326227798102861  0.5318528424165123  0.35840468769501393  1.0000
  O   O30       1.0  0.832621361037617  0.8265546900774224  0.4681455032269497  1.0000
  O   O31       1.0  0.33262338324647794  0.3584147227460478  0.5318619266614419  1.0000
  O   O32       1.0  0.3326244986434047  0.4681440869570112  0.8265457367958791  1.0000
  O   O33       1.0  0.3326224975620703  0.173448328105927  0.6415993408478401  1.0000
  O   O34       1.0  0.1673759523747762  0.3584145328687995  0.5318619209592796  1.0000
  O   O35       1.0  0.16737475682156597  0.46814497638496994  0.8265468104155148  1.0000
  O   O36       1.0  0.1673767999039839  0.17344768205109065  0.6415976326712709  1.0000
  O   O37       1.0  0.3141018322787161  0.3571810622851643  0.2990578117197202  1.0000
  O   O38       1.0  0.3140983339368901  0.9418688854089157  0.6428038232419271  1.0000
  O   O39       1.0  0.3141006942776698  0.7009338235785946  0.058121065289164234  1.0000
  O   O40       1.0  0.18589836616519048  0.35718037531928093  0.2990572676348791  1.0000
  O   O41       1.0  0.18590122293886677  0.9418685100144799  0.6428029675810125  1.0000
  O   O42       1.0  0.18590069459008865  0.700932596962751  0.058119981543505714  1.0000
  O   O43       1.0  0.6859020247927459  0.6428073016574773  0.9418775018016492  1.0000
  O   O44       1.0  0.6859014153393231  0.058134489909505954  0.7009329375503981  1.0000
  O   O45       1.0  0.6859007853169458  0.2990683722859019  0.35719155520264684  1.0000
  O   O46       1.0  0.8140997135306449  0.6428091513989501  0.9418779623946564  1.0000
  O   O47       1.0  0.8140979485998584  0.05813463721349895  0.7009329419740596  1.0000
  O   O48       1.0  0.8140990517900377  0.29906820802773376  0.3571918712026516  1.0000
