data_image0
_chemical_formula_structural       In4H24C32O20
_chemical_formula_sum              "In4 H24 C32 O20"
_cell_length_a       12.42250260563295
_cell_length_b       12.669369350745136
_cell_length_c       12.669448861347103
_cell_angle_alpha    76.0904090972854
_cell_angle_beta     60.64161460416781
_cell_angle_gamma    60.64180633477549

_space_group_name_H-M_alt    "P 1"
_space_group_IT_number       1

loop_
  _space_group_symop_operation_xyz
  'x, y, z'

loop_
  _atom_site_type_symbol
  _atom_site_label
  _atom_site_symmetry_multiplicity
  _atom_site_fract_x
  _atom_site_fract_y
  _atom_site_fract_z
  _atom_site_occupancy
  In  In1       1.0  0.1864052183807203  3.37521633040143e-06  0.6271822084912628  1.0000
  In  In2       1.0  0.5635922047790564  0.8728200122724488  0.4999978569414836  1.0000
  In  In3       1.0  0.8135880370001303  1.1314813562482125e-05  0.3728136198519608  1.0000
  In  In4       1.0  0.9364094785850838  0.12718780029215548  0.4999913185087265  1.0000
  H   H1        1.0  0.3749988404948468  0.0666593931281838  0.4333371708035827  1.0000
  H   H2        1.0  0.5583716573280952  0.06661975432458417  0.5667006397403327  1.0000
  H   H3        1.0  0.8749992802251401  0.9333376926314331  0.5666627644650433  1.0000
  H   H4        1.0  0.19163019521452926  0.9333030848071288  0.43337877484299986  1.0000
  H   H5        1.0  0.12545763446434705  0.9999840671402963  0.9999935597129408  1.0000
  H   H6        1.0  0.8754461714898842  0.5000045981121773  0.4999941841095037  1.0000
  H   H7        1.0  0.6245431340270218  0.5000088384894923  0.5000121977894523  1.0000
  H   H8        1.0  0.8745475066712063  9.09683141953008e-06  8.34258735e-07  1.0000
  H   H9        1.0  0.5474787884758713  0.9397098379936891  0.813595797132585  1.0000
  H   H10       1.0  0.11106600986229888  0.6864073629012849  0.4397136871681867  1.0000
  H   H11       1.0  0.300770968596936  0.060278188183801304  0.1864101423724094  1.0000
  H   H12       1.0  0.23718620410567587  0.31358766998759086  0.5602838863276176  1.0000
  H   H13       1.0  0.2025232318842642  0.6864040073343174  0.5602910054704182  1.0000
  H   H14       1.0  0.512812296879986  0.9397168338002257  0.186413815994726  1.0000
  H   H15       1.0  0.44923015264883054  0.3135950821551887  0.43971879570538164  1.0000
  H   H16       1.0  0.638935097005515  0.06028146752261409  0.8135952950568209  1.0000
  H   H17       1.0  0.4107945583594558  0.21632712562801967  0.2702795769081234  1.0000
  H   H18       1.0  0.4310578217827014  0.22973594825172938  0.7163372501183218  1.0000
  H   H19       1.0  0.8974108230770742  0.7836634539383237  0.7297143174191304  1.0000
  H   H20       1.0  0.37713616628229124  0.7702816161482032  0.2836600507155325  1.0000
  H   H21       1.0  0.3392040137941024  0.22972032744909396  0.2836720653670071  1.0000
  H   H22       1.0  0.37286811375092554  0.21633650943349636  0.7297166354451505  1.0000
  H   H23       1.0  0.8525881424689534  0.7702833622135329  0.7163348164298284  1.0000
  H   H24       1.0  0.31894637751246807  0.7836605700780764  0.27026195719277984  1.0000
  C   C1        1.0  0.3461344971312459  0.9478686320507845  0.7793994374884718  1.0000
  C   C2        1.0  0.8755236865126294  0.7206035476175641  0.4478825083595837  1.0000
  C   C3        1.0  0.07339963974596496  0.05211691716890951  0.2205946754899415  1.0000
  C   C4        1.0  0.04400334845569635  0.27940034950667325  0.552111819665427  1.0000
  C   C5        1.0  0.4038678203182686  0.7206017166468964  0.5521286321652356  1.0000
  C   C6        1.0  0.7059912973644418  0.9478858313502628  0.22060354333498114  1.0000
  C   C7        1.0  0.6766022174870231  0.2794089254529907  0.44788756170034116  1.0000
  C   C8        1.0  0.8744733346885739  0.05212284239743082  0.7793983763882082  1.0000
  C   C9        1.0  0.33675081328877365  0.9714036453304685  0.894582588007836  1.0000
  C   C10       1.0  0.9813303732311525  0.6054172663798454  0.4714107234849719  1.0000
  C   C11       1.0  0.20273847448447674  0.028578777042241703  0.1054157067544779  1.0000
  C   C12       1.0  0.05815979835341513  0.3945800977302626  0.5285841639090165  1.0000
  C   C13       1.0  0.41325009937138196  0.6054185667119824  0.5285927795209702  1.0000
  C   C14       1.0  0.6918385303261164  0.9714168575586438  0.10541954796936889  1.0000
  C   C15       1.0  0.5472615953508609  0.3945845027005602  0.4714156104314284  1.0000
  C   C16       1.0  0.7686710214259519  0.02858798777282337  0.8945827181434468  1.0000
  C   C17       1.0  0.21304375990884983  0.9999942332355047  0.999998079006133  1.0000
  C   C18       1.0  0.963041679002963  0.4999998161799013  0.4999968924458571  1.0000
  C   C19       1.0  0.5369571033929647  0.5000031613733427  0.5000040559807744  1.0000
  C   C20       1.0  0.7869556245562703  2.8782481891161007e-06  0.9999999373446684  1.0000
  C   C21       1.0  0.45050867261363703  0.9680272713139856  0.8956854086089763  1.0000
  C   C22       1.0  0.09618984728232514  0.604316008320268  0.4680312216902109  1.0000
  C   C23       1.0  0.3142199912412309  0.031958084188161665  0.104316874607342  1.0000
  C   C24       1.0  0.16853712763762022  0.3956833090189704  0.5319663178095411  1.0000
  C   C25       1.0  0.2994912578196321  0.6043156849246428  0.5319746069099267  1.0000
  C   C26       1.0  0.5814598868827046  0.9680331963170867  0.10431956553379959  1.0000
  C   C27       1.0  0.43578065459453824  0.39568632342525917  0.46803794497294854  1.0000
  C   C28       1.0  0.6538110646153967  0.0319647682048939  0.8956850514267529  1.0000
  C   C29       1.0  0.4403764011091129  0.9999954894807743  3.086163715999998e-07  1.0000
  C   C30       1.0  0.19037526753018594  0.5000005762184472  0.5000004282989323  1.0000
  C   C31       1.0  0.3096264362626687  0.5000005791390194  0.500002806152132  1.0000
  C   C32       1.0  0.5596267807506123  0.9999962819159618  2.686459517100008e-06  1.0000
  O   O1        1.0  0.3749979267930286  0.004539301175235438  0.49545932775158974  1.0000
  O   O2        1.0  0.6204300690759297  0.004580328111131889  0.5045028299853059  1.0000
  O   O3        1.0  0.8750001939269578  0.9954577845843815  0.5045406075170362  1.0000
  O   O4        1.0  0.12956302776017034  0.9954920918317997  0.4954280623932306  1.0000
  O   O5        1.0  0.23233896189729852  0.9968315456977164  0.7720749766452711  1.0000
  O   O6        1.0  0.7544058751235949  0.7279276950351204  0.4968531590478946  1.0000
  O   O7        1.0  0.001258484693316621  0.003133121602580507  0.2279201717307586  1.0000
  O   O8        1.0  0.9791881189914096  0.272078248442419  0.5031362953822126  1.0000
  O   O9        1.0  0.5176610139109883  0.7279255100395544  0.5031658689622489  1.0000
  O   O10       1.0  0.7708117334191517  0.9968636577730974  0.2279235292863078  1.0000
  O   O11       1.0  0.7487410095867305  0.27207992244667867  0.4968646854039562  1.0000
  O   O12       1.0  0.9955963947001579  0.003142911974727144  0.7720764498981723  1.0000
  O   O13       1.0  0.46496610976629427  0.8839454192635188  0.6993145214228562  1.0000
  O   O14       1.0  0.9142672965368276  0.800684127604846  0.38393383605357206  1.0000
  O   O15       1.0  0.048197222620721895  0.1160648036635692  0.30066502978937143  1.0000
  O   O16       1.0  0.09887974175391893  0.19932195331091404  0.616064948477387  1.0000
  O   O17       1.0  0.2850352591050722  0.8006853618543063  0.6160545061782869  1.0000
  O   O18       1.0  0.6511165201685716  0.8839362806264429  0.30067988739846646  1.0000
  O   O19       1.0  0.7018124689454693  0.199337112786651  0.38392644039141294  1.0000
  O   O20       1.0  0.8357321867640479  0.11605920882950467  0.6993184816337105  1.0000
