data_image0
_chemical_formula_structural       Zn2H48C42N4O8
_chemical_formula_sum              "Zn2 H48 C42 N4 O8"
_cell_length_a       10.04626153094772
_cell_length_b       10.817144246684865
_cell_length_c       11.897620297267126
_cell_angle_alpha    81.25996876683215
_cell_angle_beta     90.45556357777828
_cell_angle_gamma    71.63926327346918

_space_group_name_H-M_alt    "P 1"
_space_group_IT_number       1

loop_
  _space_group_symop_operation_xyz
  'x, y, z'

loop_
  _atom_site_type_symbol
  _atom_site_label
  _atom_site_symmetry_multiplicity
  _atom_site_fract_x
  _atom_site_fract_y
  _atom_site_fract_z
  _atom_site_occupancy
  Zn  Zn1       1.0  0.7038380095358506  0.0887878763104197  0.4905905890006179  1.0000
  Zn  Zn2       1.0  0.2961547194394356  0.9112090863755781  0.5094070738153673  1.0000
  H   H1        1.0  0.0012891520318732176  0.3061062807236183  0.5764926049341239  1.0000
  H   H2        1.0  0.9987034671941261  0.693896629540859  0.4235042641132478  1.0000
  H   H3        1.0  0.8925927464864432  0.3437693201317984  0.7658242327039912  1.0000
  H   H4        1.0  0.10740247920810478  0.6562346299706833  0.23417081972841905  1.0000
  H   H5        1.0  0.941950646273469  0.4767383595143856  0.6918164467145256  1.0000
  H   H6        1.0  0.0580443037452484  0.5232635886434309  0.30818055360521157  1.0000
  H   H7        1.0  0.6438925149926293  0.45703734376014876  0.7027778139090797  1.0000
  H   H8        1.0  0.35610236147356744  0.5429705214695347  0.29722175894551117  1.0000
  H   H9        1.0  0.7075769313592134  0.5630410317365034  0.7699667232400244  1.0000
  H   H10       1.0  0.2924232858917649  0.4369629503373886  0.230031693304987  1.0000
  H   H11       1.0  0.7494427002654406  0.6745817431056409  0.5776760932556042  1.0000
  H   H12       1.0  0.25055254294800733  0.3254251197728593  0.4223252948994227  1.0000
  H   H13       1.0  0.6106230432799438  0.4918311267418646  0.4871425109080504  1.0000
  H   H14       1.0  0.3893707600920991  0.50817972266141  0.5128541407728092  1.0000
  H   H15       1.0  0.651060416596657  0.62317893757961  0.4038334081723462  1.0000
  H   H16       1.0  0.3489370753872835  0.3768299598614178  0.5961651896431446  1.0000
  H   H17       1.0  0.9038445206623964  0.5181540992123388  0.45922026692645085  1.0000
  H   H18       1.0  0.09615304487406473  0.4818488811568144  0.5407757583541937  1.0000
  H   H19       1.0  0.8383968583059557  0.4054296225963157  0.40111122497886226  1.0000
  H   H20       1.0  0.1615953573965357  0.5945772485552823  0.5988851150354859  1.0000
  H   H21       1.0  0.6630157077526206  0.8525039563122692  0.40087047762377637  1.0000
  H   H22       1.0  0.33699196802126613  0.14747332624772716  0.5991340325403838  1.0000
  H   H23       1.0  0.7310304611596408  0.7417769972298771  0.2322512179511803  1.0000
  H   H24       1.0  0.26899466906339603  0.2582015278554906  0.7677497858737039  1.0000
  H   H25       1.0  0.9483020740821715  0.0223649864852078  0.12233557293479436  1.0000
  H   H26       1.0  0.0517053629357705  0.977630062543703  0.8776749716821752  1.0000
  H   H27       1.0  0.8648545199904164  0.12603509360394582  0.29350800422187706  1.0000
  H   H28       1.0  0.1351488507370958  0.873948974503499  0.7065065222639074  1.0000
  H   H29       1.0  0.9577609173726956  0.8546818548543624  0.5709998494717679  1.0000
  H   H30       1.0  0.04223376601939324  0.1453180837321284  0.428999940311165  1.0000
  H   H31       1.0  0.03795617083247295  0.6871058617551142  0.7449003296974438  1.0000
  H   H32       1.0  0.9620385312374823  0.31289113354874604  0.2550964906663323  1.0000
  H   H33       1.0  0.6208040321425161  0.83168504091136  0.8646924783477413  1.0000
  H   H34       1.0  0.37919394538715784  0.16831689897335167  0.13530957011267464  1.0000
  H   H35       1.0  0.5577879166341762  0.9973618861401408  0.6870870927834573  1.0000
  H   H36       1.0  0.4422090149489151  0.0026430150382096996  0.31291455923081907  1.0000
  H   H37       1.0  0.8571961623549385  0.8918066846130728  0.9814868352287146  1.0000
  H   H38       1.0  0.14281073482212042  0.10819536773207972  0.018515209288139486  1.0000
  H   H39       1.0  0.007226950040788445  0.7786475235735041  0.058695697011380256  1.0000
  H   H40       1.0  0.9927835084799811  0.2213556116118696  0.9413011641488891  1.0000
  H   H41       1.0  0.7221364594841689  0.7313495403786661  0.03863311638257729  1.0000
  H   H42       1.0  0.2778699521471567  0.26865946952280945  0.9613654774893586  1.0000
  H   H43       1.0  0.8760262920689714  0.6177440642523777  0.11094208642069955  1.0000
  H   H44       1.0  0.1239756135516572  0.38225795612136443  0.8890565939835608  1.0000
  H   H45       1.0  0.00021973036499654426  0.6049491365785186  0.9319218626774696  1.0000
  H   H46       1.0  0.9997812305886459  0.3950469771077039  0.06807172090251608  1.0000
  H   H47       1.0  0.8451776508953375  0.562811066036666  0.9217279363224404  1.0000
  H   H48       1.0  0.15481672004466418  0.4371898291410901  0.07827508761523917  1.0000
  C   C1        1.0  0.8878495065013824  0.3552576422647533  0.5831735596203413  1.0000
  C   C2        1.0  0.11214641649088732  0.6447443336419738  0.41682175710948827  1.0000
  C   C3        1.0  0.8670085481370295  0.4210199150573858  0.6901662788271918  1.0000
  C   C4        1.0  0.1329870352555674  0.5789830403205655  0.3098297473298004  1.0000
  C   C5        1.0  0.7173208893655673  0.514250512771298  0.6944510902977752  1.0000
  C   C6        1.0  0.28267628169658127  0.48575642085832965  0.3055452475257141  1.0000
  C   C7        1.0  0.6746970447821283  0.6178871376500795  0.5868187640568363  1.0000
  C   C8        1.0  0.32529950195533536  0.3821187811327604  0.4131793895052666  1.0000
  C   C9        1.0  0.6843199158489456  0.549117001906879  0.4815070959272773  1.0000
  C   C10       1.0  0.31567559399113065  0.45089187054293944  0.5184915027645545  1.0000
  C   C11       1.0  0.8336579856254503  0.4577075032138326  0.4739461537811777  1.0000
  C   C12       1.0  0.166336560869766  0.5422984058311046  0.5260503175055431  1.0000
  C   C13       1.0  0.8207530438604638  0.24507563147617623  0.589079689108807  1.0000
  C   C14       1.0  0.17923687724606924  0.7549321712754846  0.4109198859366428  1.0000
  C   C15       1.0  0.5293719675674141  0.718075642160187  0.5888751683601112  1.0000
  C   C16       1.0  0.47062463404468974  0.28192730283340245  0.41112338208630206  1.0000
  C   C17       1.0  0.7266413965938342  0.8871196319912756  0.33683895611510906  1.0000
  C   C18       1.0  0.2733738042320014  0.11286171142067758  0.6631650215106573  1.0000
  C   C19       1.0  0.7649220930907035  0.8260638920048606  0.2417135541118468  1.0000
  C   C20       1.0  0.23509893536824222  0.1739234815858595  0.7582887855404007  1.0000
  C   C21       1.0  0.8456650182688465  0.8729491348759171  0.16108328788963172  1.0000
  C   C22       1.0  0.15435189032762517  0.12704710247345471  0.8389187044382492  1.0000
  C   C23       1.0  0.8840008891130396  0.9820276493646318  0.18115320564491091  1.0000
  C   C24       1.0  0.11600472321787691  0.017972403793550005  0.8188491040457176  1.0000
  C   C25       1.0  0.8400407801145418  0.039516754065680004  0.2764980942005549  1.0000
  C   C26       1.0  0.15996608803285298  0.960471378297882  0.7235100104684519  1.0000
  C   C27       1.0  0.8851704652298624  0.8471448118434284  0.637764832889047  1.0000
  C   C28       1.0  0.11482987986878615  0.15285320739867814  0.3622360605763078  1.0000
  C   C29       1.0  0.9298715852679607  0.7535916582272791  0.7358109741231473  1.0000
  C   C30       1.0  0.07012347450005055  0.24640434235204373  0.2641868199652108  1.0000
  C   C31       1.0  0.8371330569150649  0.745759177540755  0.8215136243529241  1.0000
  C   C32       1.0  0.1628655907647457  0.25424081102816126  0.1784861636773201  1.0000
  C   C33       1.0  0.6996683328812099  0.8337530603885596  0.8027265743255325  1.0000
  C   C34       1.0  0.30032796590749206  0.16624790554032393  0.19727139928060913  1.0000
  C   C35       1.0  0.6626913729215148  0.9257589214108253  0.7034742753281545  1.0000
  C   C36       1.0  0.33730756853250915  0.07424305384945032  0.2965252479664925  1.0000
  C   C37       1.0  0.8911862179535038  0.8124702294415302  0.05601598948986455  1.0000
  C   C38       1.0  0.10882564421189762  0.18752894972567452  0.9439822418411122  1.0000
  C   C39       1.0  0.8376311119562558  0.6990173188275435  0.038706414462957583  1.0000
  C   C40       1.0  0.16237674914515315  0.3009847688931728  0.9612931048881276  1.0000
  C   C41       1.0  0.8848727916110094  0.6457183274787256  0.9283959431155535  1.0000
  C   C42       1.0  0.11512818686151861  0.35428069898351566  0.07160397618704907  1.0000
  N   N1        1.0  0.7630866589506767  0.99270416671569  0.3537029303438998  1.0000
  N   N2        1.0  0.2369215217699292  0.007283013925558603  0.6463027813080584  1.0000
  N   N3        1.0  0.7538558400159876  0.9330018717988579  0.622539431072468  1.0000
  N   N4        1.0  0.24614349591234946  0.06699615020094292  0.3774597796793272  1.0000
  O   O1        1.0  0.838004988764908  0.186758574632151  0.4987749928951074  1.0000
  O   O2        1.0  0.16197671904114944  0.8132471338366545  0.5012256919671854  1.0000
  O   O3        1.0  0.7561394282057563  0.2156831455355857  0.6722700950508195  1.0000
  O   O4        1.0  0.243857154728481  0.7843227427406417  0.3277314248147504  1.0000
  O   O5        1.0  0.4462054677609758  0.7042315910670638  0.6632114961517741  1.0000
  O   O6        1.0  0.5537889218568993  0.2957663608280683  0.33678855836674865  1.0000
  O   O7        1.0  0.49847741073724455  0.8186032035427717  0.5050234917945459  1.0000
  O   O8        1.0  0.5015159148356574  0.1813977248992984  0.4949744831261142  1.0000
