data_image0
_chemical_formula_structural       Zn2H8C12S4N20
_chemical_formula_sum              "Zn2 H8 C12 S4 N20"
_cell_length_a       7.735840776728261
_cell_length_b       7.655980993289478
_cell_length_c       11.888483626830507
_cell_angle_alpha    74.11529440209242
_cell_angle_beta     81.38535449420624
_cell_angle_gamma    81.46573637996724

_space_group_name_H-M_alt    "P 1"
_space_group_IT_number       1

loop_
  _space_group_symop_operation_xyz
  'x, y, z'

loop_
  _atom_site_type_symbol
  _atom_site_label
  _atom_site_symmetry_multiplicity
  _atom_site_fract_x
  _atom_site_fract_y
  _atom_site_fract_z
  _atom_site_occupancy
  Zn  Zn1       1.0  0.25581206713135896  0.7219748452271942  0.1502400700746023  1.0000
  Zn  Zn2       1.0  0.7441875553137651  0.2780232227750331  0.8497636566855178  1.0000
  H   H1        1.0  0.4612210462057151  0.22467781687006286  0.2856819212183339  1.0000
  H   H2        1.0  0.5387823102032319  0.7753228784552346  0.7143184758152401  1.0000
  H   H3        1.0  0.32555098034509206  0.6810084486276862  0.425555856837164  1.0000
  H   H4        1.0  0.6744525671273538  0.3189895862411589  0.5744475425869453  1.0000
  H   H5        1.0  0.846162244261436  0.3152125154472499  0.2109606246255851  1.0000
  H   H6        1.0  0.15383618195001972  0.6847854668433013  0.7890398539350655  1.0000
  H   H7        1.0  0.6329788545299239  0.7753183611680187  0.9566453186351254  1.0000
  H   H8        1.0  0.3670250102500034  0.22468925242786494  0.0433571155805765  1.0000
  C   C1        1.0  0.4148349661881171  0.09432918142437068  0.2921717680874494  1.0000
  C   C2        1.0  0.5851660486810321  0.9056688029662961  0.7078293315770665  1.0000
  C   C3        1.0  0.3463474352159325  0.8122406135600782  0.36461709879146303  1.0000
  C   C4        1.0  0.6536561402837082  0.1877573971197322  0.6353854613047787  1.0000
  C   C5        1.0  0.7529757085739137  0.4239475872245249  0.16748941149896973  1.0000
  C   C6        1.0  0.24702617389286277  0.5760545098460526  0.8325116917710031  1.0000
  C   C7        1.0  0.6408891580545489  0.66214998276628  0.036081889886077065  1.0000
  C   C8        1.0  0.3591122836674218  0.3378562380286708  0.9639193261013618  1.0000
  C   C9        1.0  0.19267211188363131  0.9663523399689923  0.902512822470065  1.0000
  C   C10       1.0  0.8073253371848494  0.033642871964396186  0.09748657095379798  1.0000
  C   C11       1.0  0.09115191937352318  0.4000388658672591  0.32683027126648057  1.0000
  C   C12       1.0  0.9088413487846342  0.5999739392959141  0.6731594771133729  1.0000
  S   S1        1.0  0.16502800334453138  0.1024580920722471  0.7756162082878504  1.0000
  S   S2        1.0  0.8349732025881028  0.8975372318619604  0.2243878937672008  1.0000
  S   S3        1.0  0.02198253247980383  0.2389336075926493  0.43476913672215994  1.0000
  S   S4        1.0  0.9779961970873932  0.761046144696671  0.5652136835352194  1.0000
  N   N1        1.0  0.30958582393005685  0.8708864095185687  0.25533468708068346  1.0000
  N   N2        1.0  0.6904152444300424  0.12911028092742066  0.744669172770898  1.0000
  N   N3        1.0  0.35259376037920026  0.04817398532397729  0.2092690481113948  1.0000
  N   N4        1.0  0.647407364035289  0.9518226567439426  0.7907331330844511  1.0000
  N   N5        1.0  0.41363456357050427  0.949217264271006  0.39155683317915896  1.0000
  N   N6        1.0  0.5863689023837894  0.0507820887315518  0.6084446453857523  1.0000
  N   N7        1.0  0.4696145055255414  0.9290230385320439  0.4986447929553038  1.0000
  N   N8        1.0  0.5303929134832615  0.07097625714808939  0.5013555189457221  1.0000
  N   N9        1.0  0.5170815777542191  0.6086537579338867  0.12211833568085241  1.0000
  N   N10       1.0  0.48291872122504054  0.39135108320471784  0.8778823922941967  1.0000
  N   N11       1.0  0.5874391857364575  0.4601967754019184  0.205799523455326  1.0000
  N   N12       1.0  0.41255997050009113  0.5398066860803323  0.794200716507319  1.0000
  N   N13       1.0  0.7916857718197438  0.5478256973460274  0.06061554258155872  1.0000
  N   N14       1.0  0.20831474625020976  0.45217645914708265  0.939387348456158  1.0000
  N   N15       1.0  0.9429053437600177  0.565916062030162  0.9837651799283975  1.0000
  N   N16       1.0  0.05709492719204694  0.43408880329747024  0.016236387374519302  1.0000
  N   N17       1.0  0.21247215721032842  0.8621818290216722  0.9956142357415914  1.0000
  N   N18       1.0  0.7875270270534146  0.13782160827154394  0.004385164893193411  1.0000
  N   N19       1.0  0.1427533607108274  0.5155914191129793  0.24424426792141676  1.0000
  N   N20       1.0  0.8572389899970009  0.48440122491987836  0.7557602429967288  1.0000
