data_image0
_chemical_formula_structural       Zr6H24C52O37F6
_chemical_formula_sum              "Zr6 H24 C52 O37 F6"
_cell_length_a       14.761803989449763
_cell_length_b       14.758735090333442
_cell_length_c       14.767912860406415
_cell_angle_alpha    60.32098890111185
_cell_angle_beta     59.955263327313716
_cell_angle_gamma    60.02664338674451

_space_group_name_H-M_alt    "P 1"
_space_group_IT_number       1

loop_
  _space_group_symop_operation_xyz
  'x, y, z'

loop_
  _atom_site_type_symbol
  _atom_site_label
  _atom_site_symmetry_multiplicity
  _atom_site_fract_x
  _atom_site_fract_y
  _atom_site_fract_z
  _atom_site_occupancy
  Zr  Zr1       1.0  0.8655644936238431  0.8855492165426141  0.6234728783901815  1.0000
  Zr  Zr2       1.0  0.10674100622326677  0.12086135130609674  0.3874161862601611  1.0000
  Zr  Zr3       1.0  0.1052289036407712  0.8844184825025393  0.624361021562642  1.0000
  Zr  Zr4       1.0  0.8671069045182661  0.12446668142500521  0.384182497255992  1.0000
  Zr  Zr5       1.0  0.1053812374777083  0.88457334240924  0.38465007377941174  1.0000
  Zr  Zr6       1.0  0.8664016545188604  0.12457602974144069  0.6239735642301696  1.0000
  H   H1        1.0  0.08063621275867666  0.7221070215868509  0.596356249515992  1.0000
  H   H2        1.0  0.08366191971705204  0.09511068668630426  0.22255219655012584  1.0000
  H   H3        1.0  0.08075680472978068  0.0978764549997492  0.6001711275507731  1.0000
  H   H4        1.0  0.7033597426683895  0.10086383628661381  0.598775346181867  1.0000
  H   H5        1.0  0.8253556439463453  0.6055856581812477  0.6351318508564532  1.0000
  H   H6        1.0  0.1348323855155158  0.5872777359133181  0.3621841050193098  1.0000
  H   H7        1.0  0.8286118788069744  0.43385656812652934  0.63500837195447  1.0000
  H   H8        1.0  0.5851857687897498  0.846656668216262  0.9286771900710917  1.0000
  H   H9        1.0  0.5859268686151039  0.1359667178613078  0.9338730019689339  1.0000
  H   H10       1.0  0.4156759915696498  0.8466649724043973  0.09927785608829248  1.0000
  H   H11       1.0  0.13742934587758532  0.8618489817278387  0.0848080449585281  1.0000
  H   H12       1.0  0.8247546282328881  0.13005849627866442  0.10994048391425795  1.0000
  H   H13       1.0  0.13534668276461323  0.8635422617136043  0.9150760066652879  1.0000
  H   H14       1.0  0.5825334482074781  0.4316019876627024  0.6399319596943017  1.0000
  H   H15       1.0  0.5890487721249542  0.4314903109307551  0.34479377603477696  1.0000
  H   H16       1.0  0.41191090502357486  0.6006978671748086  0.6386233470537804  1.0000
  H   H17       1.0  0.5769230290429944  0.1463224214123429  0.3521494453801565  1.0000
  H   H18       1.0  0.5845705031022915  0.8503867399166225  0.637255798324773  1.0000
  H   H19       1.0  0.4074809239356725  0.14346115823818903  0.35421764534053324  1.0000
  H   H20       1.0  0.14110780722702285  0.34884666252096963  0.3544509417817707  1.0000
  H   H21       1.0  0.3469411900981782  0.14070803420072048  0.17323073477768253  1.0000
  H   H22       1.0  0.8190193294661725  0.13823176365448106  0.8694238092881648  1.0000
  H   H23       1.0  0.3479079737930705  0.6690425260615669  0.33967856360966664  1.0000
  H   H24       1.0  0.34513524771285403  0.8425382191632874  0.6448463535944313  1.0000
  C   C1        1.0  0.9815908914959408  0.7055858405849589  0.4996258941080922  1.0000
  C   C2        1.0  0.3008699568093219  0.9934982706815488  0.20649613507860914  1.0000
  C   C3        1.0  0.9823847921430724  0.3131206274872298  0.5030773648908851  1.0000
  C   C4        1.0  0.6895414773905987  0.9984009500761954  0.8145721311808388  1.0000
  C   C5        1.0  0.9873571126645475  0.7003706531260074  0.8064257535935367  1.0000
  C   C6        1.0  0.6870758758339262  0.0020702486411181492  0.49865218238083747  1.0000
  C   C7        1.0  0.9932699082525288  0.3047663469449021  0.20043676820897363  1.0000
  C   C8        1.0  0.29778523573227744  0.0006903654283476768  0.4986500497826398  1.0000
  C   C9        1.0  0.29921091833092117  0.7046996930636736  0.4991292370491396  1.0000
  C   C10       1.0  0.9835776047149521  0.9977181062959063  0.8153641813459417  1.0000
  C   C11       1.0  0.6909973809284221  0.31583349623431195  0.4973540514849262  1.0000
  C   C12       1.0  0.9831175920863235  0.9989403478273144  0.20523509911023322  1.0000
  C   C13       1.0  0.9822599773011619  0.4147832155501731  0.4993409812744219  1.0000
  C   C14       1.0  0.9804316220551287  0.6055678262817065  0.49884081833832267  1.0000
  C   C15       1.0  0.06952675321277724  0.45896449924230603  0.42042738480153463  1.0000
  C   C16       1.0  0.8929083723693054  0.5632946647973753  0.5764110181762802  1.0000
  C   C17       1.0  0.06747166304372597  0.5542218465613189  0.4218364204485709  1.0000
  C   C18       1.0  0.8948565673569105  0.4688018317754868  0.576027157173172  1.0000
  C   C19       1.0  0.40494945380037006  0.9912225032159795  0.11114188131367793  1.0000
  C   C20       1.0  0.5938882230080722  0.9926006477459168  0.9205469552675256  1.0000
  C   C21       1.0  0.4549538671393806  0.07263238550096661  0.06544397246688051  1.0000
  C   C22       1.0  0.5476270785866364  0.9090434236586872  0.967739674037645  1.0000
  C   C23       1.0  0.5492387833616802  0.07230546347491895  0.9697370896806207  1.0000
  C   C24       1.0  0.4541676313627575  0.909303578717754  0.061797014492590535  1.0000
  C   C25       1.0  0.9802556025181131  0.9970502899207786  0.9171024996420413  1.0000
  C   C26       1.0  0.9812970979250012  0.9963619891145113  0.1064716486421276  1.0000
  C   C27       1.0  0.8908800096956639  0.07310925048214045  0.9728789696105978  1.0000
  C   C28       1.0  0.06937772976007067  0.9198867300412203  0.05263432623183209  1.0000
  C   C29       1.0  0.8928364432747812  0.07158459311863635  0.06753410101577367  1.0000
  C   C30       1.0  0.06798102071648779  0.9210117858834933  0.9591086238465819  1.0000
  C   C31       1.0  0.40384217863619654  0.6100013394531345  0.4929035284353844  1.0000
  C   C32       1.0  0.5943569324696226  0.4210660335600238  0.49321839502732706  1.0000
  C   C33       1.0  0.45577840424901694  0.5633678571727074  0.4072092415902944  1.0000
  C   C34       1.0  0.5460207635490875  0.469207425344905  0.575921556652716  1.0000
  C   C35       1.0  0.5507993830553771  0.46853327685923307  0.40898293517576445  1.0000
  C   C36       1.0  0.4518522246317075  0.5624529606329317  0.5750014257197976  1.0000
  C   C37       1.0  0.995445221696542  0.5932218882982313  0.9021783206228237  1.0000
  C   C38       1.0  0.03417882830844123  0.4878642443725311  0.8914627189977083  1.0000
  C   C39       1.0  0.9636585999087046  0.5989160406408159  0.004658050205271745  1.0000
  C   C40       1.0  0.07315776822837007  0.4736692024363265  0.7884411527807487  1.0000
  C   C41       1.0  0.10778655865141212  0.372173038152809  0.77870439365244  1.0000
  C   C42       1.0  0.0002333955228195576  0.40067729903444865  0.0934574623001723  1.0000
  C   C43       1.0  0.9661165180747776  0.5036639117963799  0.09925490213152001  1.0000
  C   C44       1.0  0.03652715830547494  0.39012970046334766  0.9885910849046624  1.0000
  C   C45       1.0  0.07734586004140447  0.2867561330020223  0.9743293541172094  1.0000
  C   C46       1.0  0.1099042131604547  0.2769684430727324  0.8733875526749771  1.0000
  C   C47       1.0  0.40045027627273533  0.996684720719806  0.4965832019494841  1.0000
  C   C48       1.0  0.589374261370146  0.9988785775967417  0.4954081094285456  1.0000
  C   C49       1.0  0.45170511587253503  0.9117216149210207  0.5767925363509148  1.0000
  C   C50       1.0  0.5408870537177678  0.08175185619692371  0.41403147384257005  1.0000
  C   C51       1.0  0.5460906229091904  0.9143634942743121  0.5750962978930829  1.0000
  C   C52       1.0  0.4474070554412464  0.07990195723176899  0.415467225662276  1.0000
  O   O1        1.0  0.9045528971768705  0.7460062787379369  0.576318695058596  1.0000
  O   O2        1.0  0.25789238626464345  0.07260780085043442  0.24678637905881123  1.0000
  O   O3        1.0  0.06139606504587655  0.2702034317629439  0.42647085264453466  1.0000
  O   O4        1.0  0.7271848565552337  0.9242219424141921  0.771664402326678  1.0000
  O   O5        1.0  0.06232841392581188  0.7407343797776347  0.7702569894055455  1.0000
  O   O6        1.0  0.7251236097675928  0.08049155746437718  0.42410755410667633  1.0000
  O   O7        1.0  0.9127132001848111  0.27136576428438247  0.23972951556931574  1.0000
  O   O8        1.0  0.2555504424034822  0.9243605386818955  0.5771061394247852  1.0000
  O   O9        1.0  0.2561307356560221  0.7426407149031391  0.4239558881539481  1.0000
  O   O10       1.0  0.9062586048979853  0.07599139747701855  0.7743043601036135  1.0000
  O   O11       1.0  0.7269460053276121  0.27311641903305867  0.5775614045037898  1.0000
  O   O12       1.0  0.06160854939071211  0.9238730609873613  0.2432045798610857  1.0000
  O   O13       1.0  0.06172175091086958  0.9240029160894069  0.7716396173518516  1.0000
  O   O14       1.0  0.7297791365720913  0.2739242040368096  0.4220556606268104  1.0000
  O   O15       1.0  0.9072821796675614  0.07688769101137165  0.24442348046926554  1.0000
  O   O16       1.0  0.25507542167463987  0.7432391989940326  0.5778238034665788  1.0000
  O   O17       1.0  0.9073761030097599  0.7398575555220929  0.7723517181324411  1.0000
  O   O18       1.0  0.2540475063037704  0.07884274893412176  0.4257864973432532  1.0000
  O   O19       1.0  0.06820505155273783  0.2679308783355765  0.24097107015580832  1.0000
  O   O20       1.0  0.7249223725645064  0.9272814479667344  0.5769824805964702  1.0000
  O   O21       1.0  0.7259829163645506  0.07835886319255546  0.7722340585108255  1.0000
  O   O22       1.0  0.060521704020565996  0.7433195200173585  0.4246774082867972  1.0000
  O   O23       1.0  0.25677864533437855  0.9211930598895464  0.24343351462360377  1.0000
  O   O24       1.0  0.9078044310864257  0.27112021255103247  0.5805248837567446  1.0000
  O   O25       1.0  0.7839526038777437  0.07338162393605066  0.5716556929445745  1.0000
  O   O26       1.0  0.054007339873884105  0.07096849194891766  0.5733323664944622  1.0000
  O   O27       1.0  0.05578949584413812  0.07028428697424262  0.3028712784416001  1.0000
  O   O28       1.0  0.053665207090055934  0.8024156529235212  0.5713390732135865  1.0000
  O   O29       1.0  0.13664254627831  0.9531908788055504  0.45550700264134036  1.0000
  O   O30       1.0  0.9366671025684995  0.9557854918014285  0.45479873914683827  1.0000
  O   O31       1.0  0.9378906088887292  0.15307182125786048  0.45504491388004453  1.0000
  O   O32       1.0  0.9366881148013775  0.9549693830384383  0.6531363102768495  1.0000
  O   O33       1.0  0.15578562284224517  0.41321347989208584  0.34372451361511486  1.0000
  O   O34       1.0  0.41509433640461435  0.152282394817476  0.10882461041614286  1.0000
  O   O35       1.0  0.803220389554873  0.14778957902981923  0.9389034299883434  1.0000
  O   O36       1.0  0.4171253509669128  0.605434705866223  0.3239136067682082  1.0000
  O   O37       1.0  0.413163370833736  0.8281679979892755  0.6559990405174575  1.0000
  F   F1        1.0  0.9307437573202648  0.5162970374489859  0.19747894071534938  1.0000
  F   F2        1.0  0.9264175735362984  0.6974626981502394  0.01748586591641292  1.0000
  F   F3        1.0  0.08860532176323231  0.19111590625004024  0.06119873577804207  1.0000
  F   F4        1.0  0.1468894871888294  0.1776290779491134  0.8631381489945652  1.0000
  F   F5        1.0  0.14279768444937696  0.362005535855225  0.6797723810960719  1.0000
  F   F6        1.0  0.08020312765527382  0.5612842107707722  0.6930850485187391  1.0000
