data_image0
_chemical_formula_structural       Er4H44C68O24
_chemical_formula_sum              "Er4 H44 C68 O24"
_cell_length_a       6.729678983781906
_cell_length_b       12.693004496
_cell_length_c       17.06
_cell_angle_alpha    90.0
_cell_angle_beta     93.51813391367499
_cell_angle_gamma    90.0

_space_group_name_H-M_alt    "P 1"
_space_group_IT_number       1

loop_
  _space_group_symop_operation_xyz
  'x, y, z'

loop_
  _atom_site_type_symbol
  _atom_site_label
  _atom_site_symmetry_multiplicity
  _atom_site_fract_x
  _atom_site_fract_y
  _atom_site_fract_z
  _atom_site_occupancy
  Er  Er1       1.0  0.6130790829746644  0.6278852262686528  0.5467560948031931  1.0000
  Er  Er2       1.0  0.8869142746963448  0.127888554716229  0.4532428358511994  1.0000
  Er  Er3       1.0  0.3869154962988973  0.3721120560138829  0.453243949829897  1.0000
  Er  Er4       1.0  0.1130847708592029  0.8721134545795266  0.5467555583955672  1.0000
  H   H1        1.0  0.1092512121635565  0.7885934337417382  0.7880584237003916  1.0000
  H   H2        1.0  0.3907490549945436  0.2885912473405626  0.21194225685801635  1.0000
  H   H3        1.0  0.8907508109133035  0.2114085755540103  0.21194121495469892  1.0000
  H   H4        1.0  0.6092485018003373  0.7114083984485831  0.788059032183412  1.0000
  H   H5        1.0  0.0427631611548307  0.7589700297542521  0.9274829779202776  1.0000
  H   H6        1.0  0.4572415722852483  0.2589686311886084  0.07251839691767971  1.0000
  H   H7        1.0  0.9572403506826888  0.2410319795414964  0.0725166967725102  1.0000
  H   H8        1.0  0.5427574732702922  0.7410325902716013  0.9274829281614387  1.0000
  H   H9        1.0  0.7554715961571503  0.46481036084555444  0.8630434828114775  1.0000
  H   H10       1.0  0.7445321828384692  0.9648101837401273  0.136957458606183  1.0000
  H   H11       1.0  0.24453042691970955  0.5351908606146623  0.1369555696771414  1.0000
  H   H12       1.0  0.255463885195752  0.0351902498845504  0.8630432082310692  1.0000
  H   H13       1.0  0.8200495672410143  0.4974771735084431  0.7231623756996799  1.0000
  H   H14       1.0  0.6799512342332861  0.9974738450608669  0.2768384936425932  1.0000
  H   H15       1.0  0.179950967075186  0.5025256236228444  0.2768372269177207  1.0000
  H   H16       1.0  0.3200433450402826  0.0025258007282787  0.7231621371569688  1.0000
  H   H17       1.0  0.765495421670849  0.5136561640748383  0.9932738151125095  1.0000
  H   H18       1.0  0.734503891042799  0.0136555533447265  0.006725259692657905  1.0000
  H   H19       1.0  0.23450511264535837  0.4863442695498463  0.006724615171947302  1.0000
  H   H20       1.0  0.2654906882307699  0.986346455951022  0.9932747849404393  1.0000
  H   H21       1.0  0.9183375459153567  0.7350340105008331  0.03996186564911141  1.0000
  H   H22       1.0  0.5816632555589436  0.23503418760626  0.9600384175266967  1.0000
  H   H23       1.0  0.0816600108795242  0.2649656352883056  0.9600382510593664  1.0000
  H   H24       1.0  0.4183357899965969  0.7649670338539494  0.039961735219485206  1.0000
  H   H25       1.0  0.9234171972821699  0.7744486345291861  0.1765449669426289  1.0000
  H   H26       1.0  0.5765806266708182  0.2744488116346133  0.8234540718248482  1.0000
  H   H27       1.0  0.0765818482733707  0.2255502234244204  0.8234534273041305  1.0000
  H   H28       1.0  0.42341841888472953  0.7255524098256034  0.1765454947548619  1.0000
  H   H29       1.0  0.8390669958927293  0.7317865524216245  0.31303772707062194  1.0000
  H   H30       1.0  0.6609352943422309  0.2317867295270517  0.6869620059764046  1.0000
  H   H31       1.0  0.1609365159447904  0.2682115176964501  0.6869613614556941  1.0000
  H   H32       1.0  0.3390726837772604  0.7682160676042358  0.3130383629959398  1.0000
  H   H33       1.0  0.5630358821997561  0.4441643427902876  0.2311643017011065  1.0000
  H   H34       1.0  0.9369678967958566  0.9441641656848604  0.7688360535500891  1.0000
  H   H35       1.0  0.4369691183984159  0.5558337273277871  0.7688359951958506  1.0000
  H   H36       1.0  0.0630311487596842  0.0558354801042853  0.2311646853625575  1.0000
  H   H37       1.0  0.6401909033266548  0.4855966136262212  0.09513160351761481  1.0000
  H   H38       1.0  0.8598069206263261  0.985595648685255  0.9048674352498624  1.0000
  H   H39       1.0  0.359806653468226  0.5144022443273855  0.9048673408579262  1.0000
  H   H40       1.0  0.1401876586472426  0.0144032092683517  0.0951320232167632  1.0000
  H   H41       1.0  0.5514175940208048  0.8709238229202327  0.453406510192238  1.0000
  H   H42       1.0  0.9485846962141553  0.3709263635322699  0.5465955675206757  1.0000
  H   H43       1.0  0.4485799627740762  0.12907267152677093  0.5465936065162396  1.0000
  H   H44       1.0  0.05141137182007331  0.6290756457634857  0.4534056854830554  1.0000
  C   C1        1.0  0.9898710067957452  0.672408963747678  0.6628194666224732  1.0000
  C   C2        1.0  0.5101268171572357  0.1724067773465023  0.3371807444779407  1.0000
  C   C3        1.0  0.010125061238476004  0.3275906820414605  0.3371794417153708  1.0000
  C   C4        1.0  0.489867762116333  0.8275920806071044  0.6628193001551494  1.0000
  C   C5        1.0  0.9676631640528657  0.645812423889339  0.7469383987817579  1.0000
  C   C6        1.0  0.5323376374214348  0.1458086618170853  0.253062470560522  1.0000
  C   C7        1.0  0.0323388590239944  0.35418879757087757  0.2530612398733396  1.0000
  C   C8        1.0  0.4676554530914743  0.8541901961365213  0.7469381242013498  1.0000
  C   C9        1.0  0.03213489881378  0.7179096172912908  0.8054959275626531  1.0000
  C   C10       1.0  0.4678683458656394  0.217906643054576  0.1945048250711423  1.0000
  C   C11       1.0  0.9678686130237397  0.2820923920044578  0.1945031609636629  1.0000
  C   C12       1.0  0.5321292109292415  0.7820930027345696  0.8054952916373354  1.0000
  C   C13       1.0  0.9932966450709628  0.7009971518409231  0.8833379110456292  1.0000
  C   C14       1.0  0.5067101114459689  0.20099575327527935  0.1166631024474256  1.0000
  C   C15       1.0  0.0067098442878688  0.2990040696192935  0.11666183572254601  1.0000
  C   C16       1.0  0.493287445348912  0.7990046803493984  0.8833376004275308  1.0000
  C   C17       1.0  0.8891027528643392  0.6104007922191812  0.9053221887532885  1.0000
  C   C18       1.0  0.6109010261312734  0.1104001814890694  0.0946787526643789  1.0000
  C   C19       1.0  0.11090075897317321  0.3896004292410354  0.0946768997730274  1.0000
  C   C20       1.0  0.3890935531422883  0.8895994643000693  0.9053218781351904  1.0000
  C   C21       1.0  0.8329347907403531  0.5361780185412144  0.8465241060954583  1.0000
  C   C22       1.0  0.6670734545372383  0.0361781956466416  0.1534769434352938  1.0000
  C   C23       1.0  0.16706872109715934  0.4638232029190021  0.1534755685973295  1.0000
  C   C24       1.0  0.332927079778962  0.9638238136491071  0.8465244176815219  1.0000
  C   C25       1.0  0.8698471225072666  0.5537325699533895  0.7683853855364546  1.0000
  C   C26       1.0  0.6301581452490056  0.0537303835522067  0.2316155919189029  1.0000
  C   C27       1.0  0.130159366851565  0.446268651506827  0.2316143612317205  1.0000
  C   C28       1.0  0.36983941154587546  0.9462700500724708  0.7683856971225254  1.0000
  C   C29       1.0  0.8318867032367692  0.5910759743577074  0.9847871294624114  1.0000
  C   C30       1.0  0.6681140982375311  0.0910761514631417  0.015213153713389696  1.0000
  C   C31       1.0  0.168113831079431  0.40892367143143105  0.015211886988517201  1.0000
  C   C32       1.0  0.3318834585573498  0.9089258578326138  0.9847875491615596  1.0000
  C   C33       1.0  0.8498783757947735  0.6577244971929943  0.04692604476572631  1.0000
  C   C34       1.0  0.6501209369188672  0.1577238864628825  0.953073030039441  1.0000
  C   C35       1.0  0.1501191810001075  0.3422751485961513  0.953072313443336  1.0000
  C   C36       1.0  0.3498736423546945  0.842275759326256  0.046926428427184405  1.0000
  C   C37       1.0  0.7901597195002595  0.6333063225915652  0.12542829591113502  1.0000
  C   C38       1.0  0.7098410819740408  0.1333049240259214  0.8745714010981942  1.0000
  C   C39       1.0  0.20984081481594075  0.3666933231975733  0.8745707205397935  1.0000
  C   C40       1.0  0.290160941102819  0.8666955095987561  0.1254288237233681  1.0000
  C   C41       1.0  0.8425849373287664  0.702225387441473  0.1882881830875789  1.0000
  C   C42       1.0  0.6574158641455341  0.2022255645469073  0.8117115139217576  1.0000
  C   C43       1.0  0.1574170857480865  0.2977726826765945  0.81171086940104  1.0000
  C   C44       1.0  0.3425876476919854  0.7977756569133092  0.1882893331039739  1.0000
  C   C45       1.0  0.7965792554597186  0.6784374812688156  0.2647566095587592  1.0000
  C   C46       1.0  0.7034245235358938  0.1784392340453138  0.7352431595259645  1.0000
  C   C47       1.0  0.203427233899113  0.3215590131781809  0.7352431372094159  1.0000
  C   C48       1.0  0.2965819658229378  0.8215643509215058  0.2647577595751542  1.0000
  C   C49       1.0  0.6956919006756337  0.5848300142286504  0.2802998249928876  1.0000
  C   C50       1.0  0.8043118783199859  0.0848309791696167  0.719699944091829  1.0000
  C   C51       1.0  0.3043160774438576  0.4151664802183461  0.719699371646513  1.0000
  C   C52       1.0  0.1956960997995125  0.91517260579721  0.28030101104697996  1.0000
  C   C53       1.0  0.6404425038779423  0.5166026689793101  0.217941328120105  1.0000
  C   C54       1.0  0.8595627638783299  0.0166036339202762  0.7820573046693724  1.0000
  C   C55       1.0  0.35956696300220875  0.4833938254676867  0.7820567322240495  1.0000
  C   C56       1.0  0.1404407479591825  0.9833975875399403  0.2179423700234153  1.0000
  C   C57       1.0  0.6850889472657755  0.5405449909170201  0.14199920204746522  1.0000
  C   C58       1.0  0.814911854208525  0.04054438018690831  0.8579993226289278  1.0000
  C   C59       1.0  0.3149145645717369  0.4594530792010546  0.8579993003123789  1.0000
  C   C60       1.0  0.1850857025863633  0.9594552656022302  0.1419996217466135  1.0000
  C   C61       1.0  0.6427634817445524  0.5547583318212048  0.3608966902527371  1.0000
  C   C62       1.0  0.857234342208436  0.054758508926632  0.6391035208476837  1.0000
  C   C63       1.0  0.357237052571648  0.4452405261324017  0.6391029123646632  1.0000
  C   C64       1.0  0.1427721471504029  0.9452442882046557  0.36089857058637886  1.0000
  C   C65       1.0  0.7073012562906342  0.8705117849349265  0.47755329711029054  1.0000
  C   C66       1.0  0.7927010339443188  0.3705135377114246  0.5224487806026233  1.0000
  C   C67       1.0  0.2926963005042467  0.1294862851831482  0.5224485780976025  1.0000
  C   C68       1.0  0.20729652285056233  0.6294868959132529  0.4775519222723262  1.0000
  O   O1        1.0  0.9087469497532865  0.6108545854878926  0.6101365103523406  1.0000
  O   O2        1.0  0.591249385439042  0.11085476259331983  0.38986425087684756  1.0000
  O   O3        1.0  0.0912491182809418  0.3891426967946431  0.389862984151975  1.0000
  O   O4        1.0  0.408748171355839  0.8891464588668967  0.61013586583163  1.0000
  O   O5        1.0  0.08155430887277502  0.7560589774488946  0.6471435470137764  1.0000
  O   O6        1.0  0.4184429807640129  0.2560575788832509  0.3528553029698287  1.0000
  O   O7        1.0  0.9184417591614533  0.24393988050471196  0.352854188991124  1.0000
  O   O8        1.0  0.5815471322275769  0.7439397033992847  0.6471458058831274  1.0000
  O   O9        1.0  0.6813045176718617  0.6201006233378692  0.4168876645680727  1.0000
  O   O10       1.0  0.8186754411532178  0.12009607343008351  0.5831115279135375  1.0000
  O   O11       1.0  0.318678151516437  0.3799037494644892  0.5831109194305242  1.0000
  O   O12       1.0  0.181314671838372  0.8799019966879841  0.4168884086064679  1.0000
  O   O13       1.0  0.5599556363973193  0.4653382106546432  0.36803522622940227  1.0000
  O   O14       1.0  0.9400540976409317  0.965341184891358  0.6319641008396317  1.0000
  O   O15       1.0  0.44005383048283164  0.5346590716278925  0.6319645926141676  1.0000
  O   O16       1.0  0.0599687680851417  0.0346655514176035  0.36803721467612865  1.0000
  O   O17       1.0  0.781953670750589  0.7877945685082823  0.5099447792341252  1.0000
  O   O18       1.0  0.7180471307237114  0.2877971091203193  0.4900572624410913  1.0000
  O   O19       1.0  0.2180438860442919  0.21220350160979257  0.49005709597376784  1.0000
  O   O20       1.0  0.2819534035924889  0.7122041123398972  0.5099417540098372  1.0000
  O   O21       1.0  0.8130196394115643  0.9524230456082847  0.47282163126320853  1.0000
  O   O22       1.0  0.6869796733020763  0.45242479838479  0.5271792020413741  1.0000
  O   O23       1.0  0.186976428622657  0.047575812345321815  0.5271807940734661  1.0000
  O   O24       1.0  0.3130149059714925  0.5475748474043556  0.47282142875818783  1.0000
