data_image0
_chemical_formula_structural       Zn2H38C34N4O16
_chemical_formula_sum              "Zn2 H38 C34 N4 O16"
_cell_length_a       9.488531186477887
_cell_length_b       10.85659024731676
_cell_length_c       16.066831471691195
_cell_angle_alpha    89.16652367306821
_cell_angle_beta     90.46567212796351
_cell_angle_gamma    90.6963543645934

_space_group_name_H-M_alt    "P 1"
_space_group_IT_number       1

loop_
  _space_group_symop_operation_xyz
  'x, y, z'

loop_
  _atom_site_type_symbol
  _atom_site_label
  _atom_site_symmetry_multiplicity
  _atom_site_fract_x
  _atom_site_fract_y
  _atom_site_fract_z
  _atom_site_occupancy
  Zn  Zn1       1.0  0.3518163258445952  0.49795536446688243  0.49829062373002825  1.0000
  Zn  Zn2       1.0  0.6462406528983707  0.504302015115414  0.5025745732828637  1.0000
  H   H1        1.0  0.3272845299903651  0.3615778909543934  0.929310049363117  1.0000
  H   H2        1.0  0.1149622176953358  0.31564645605730135  0.5344782815416804  1.0000
  H   H3        1.0  0.8681427244170336  0.5656534909691403  0.3745063655375985  1.0000
  H   H4        1.0  0.11780203665057341  0.549157838919129  0.37066569585393677  1.0000
  H   H5        1.0  0.8766375179829708  0.6312723171868201  0.5957880903005159  1.0000
  H   H6        1.0  0.1262966898849953  0.6398572919854999  0.5861308011326328  1.0000
  H   H7        1.0  0.8814732120875702  0.47529582019782163  0.6278053319885541  1.0000
  H   H8        1.0  0.1316879949185861  0.488414412231741  0.6278505918436392  1.0000
  H   H9        1.0  0.8813916884087262  0.6833702987709103  0.4495994406736726  1.0000
  H   H10       1.0  0.13105828861839092  0.6752472518450432  0.43924082981301626  1.0000
  H   H11       1.0  0.3346513972102656  0.358034107357696  0.07256547012178767  1.0000
  H   H12       1.0  0.601755984032934  0.3150575251007197  0.9212014778692745  1.0000
  H   H13       1.0  0.553424856105636  0.2991403292480115  0.06291762779890317  1.0000
  H   H14       1.0  0.7181178353914036  0.44207540999468614  0.9342991042452693  1.0000
  H   H15       1.0  0.2752014387396926  0.5174213033316661  0.9272094696435925  1.0000
  H   H16       1.0  0.4911130157571507  0.6898029458773607  0.07813108306301327  1.0000
  H   H17       1.0  0.6629743427463382  0.632107140603388  0.06679350357578777  1.0000
  H   H18       1.0  0.4500035265638118  0.6870641062414862  0.9342755116451257  1.0000
  H   H19       1.0  0.6321390592856204  0.6590717029000999  0.9232219303113423  1.0000
  H   H20       1.0  0.2708082709497858  0.1108961658234904  0.5231124482757322  1.0000
  H   H21       1.0  0.7151921584130534  0.07963179579490998  0.5045563510311054  1.0000
  H   H22       1.0  0.32530080823303104  0.8770050899127567  0.5977334332961064  1.0000
  H   H23       1.0  0.2690410008234921  0.9058293683674209  0.49343424167035704  1.0000
  H   H24       1.0  0.5766001874982222  0.9112765655787883  0.6324026157811459  1.0000
  H   H25       1.0  0.3287366920164914  0.18451347634110252  0.3784378486089323  1.0000
  H   H26       1.0  0.34174436993244234  0.054689707529071506  0.32676645403061133  1.0000
  H   H27       1.0  0.6860893121864676  0.1590408869297875  0.39690447984231964  1.0000
  H   H28       1.0  0.5999912238807141  0.11938822773427661  0.3119037220649972  1.0000
  H   H29       1.0  0.9286381513346524  0.4623690764002503  0.09736358689242758  1.0000
  H   H30       1.0  0.15562921038444696  0.6834980414361452  0.09057587368750568  1.0000
  H   H31       1.0  0.3205029307549551  0.23202563834766465  0.7167890627990089  1.0000
  H   H32       1.0  0.8590894850377637  0.1696547552823091  0.681886434779855  1.0000
  H   H33       1.0  0.7088147914472388  0.8792835600409743  0.5579221489187842  1.0000
  H   H34       1.0  0.45539168364036453  0.8892109791166405  0.3740537543942749  1.0000
  H   H35       1.0  0.6321545504871936  0.9209616350994947  0.4040341536198539  1.0000
  H   H36       1.0  0.872624487348041  0.3555766901904179  0.4174319560777135  1.0000
  H   H37       1.0  0.12139125315889741  0.34079433503205087  0.4255858176155412  1.0000
  H   H38       1.0  0.8663418127979982  0.31318996440753477  0.5243788742830657  1.0000
  C   C1        1.0  0.49511180206396693  0.26219171873849945  0.509059909899868  1.0000
  C   C2        1.0  0.6099871713939892  0.9281540120372752  0.5677979891313922  1.0000
  C   C3        1.0  0.4888888979478381  0.0762721888435252  0.4187795796787482  1.0000
  C   C4        1.0  0.49364758305642914  0.12130129669747447  0.5128195085534557  1.0000
  C   C5        1.0  0.4939374532796918  0.8804918036980851  0.5082521615305423  1.0000
  C   C6        1.0  0.5038888422068695  0.49493485768074674  0.33815895898130305  1.0000
  C   C7        1.0  0.5216942515546209  0.9361493851258514  0.42070558817476916  1.0000
  C   C8        1.0  0.9139041769666888  0.37792549603584297  0.4795363327100261  1.0000
  C   C9        1.0  0.0762594070491147  0.37470873903385643  0.4834420094504494  1.0000
  C   C10       1.0  0.9181008895872367  0.591255573795735  0.43370715414283  1.0000
  C   C11       1.0  0.0807857687944988  0.5848130097129028  0.430071595376745  1.0000
  C   C12       1.0  0.5352279289738178  0.6244893503045786  0.9527979954907974  1.0000
  C   C13       1.0  0.9215854111483851  0.541502904480545  0.5812839650447116  1.0000
  C   C14       1.0  0.08399023260135151  0.5460322291540934  0.5789243115001026  1.0000
  C   C15       1.0  0.49734396374209666  0.7405028634122175  0.5023931202902004  1.0000
  C   C16       1.0  0.5001746036342923  0.5028772033690528  0.6631817537591472  1.0000
  C   C17       1.0  0.35473421690396373  0.45212928750888176  0.04941421213289489  1.0000
  C   C18       1.0  0.6038485905364368  0.3880200372994906  0.047439026919278086  1.0000
  C   C19       1.0  0.6143877586474032  0.40448480645006424  0.9516387176662631  1.0000
  C   C20       1.0  0.3544075247981909  0.45366859103740614  0.9523286213043389  1.0000
  C   C21       1.0  0.4989737136339087  0.49951810985783146  0.7532331421074046  1.0000
  C   C22       1.0  0.5050207160444629  0.4903179779765311  0.08244017196123109  1.0000
  C   C23       1.0  0.5525634102403459  0.618335097509572  0.048304644715606984  1.0000
  C   C24       1.0  0.5005006109922334  0.49450004318278923  0.9191368303678754  1.0000
  C   C25       1.0  0.7471756795998629  0.3803618723412399  0.09081706028383958  1.0000
  C   C26       1.0  0.23149508179282213  0.5239953251044794  0.08177493487466587  1.0000
  C   C27       1.0  0.343172271919613  0.0947371082490491  0.646777347548813  1.0000
  C   C28       1.0  0.6863989647200553  0.1305998153569519  0.6281892391451078  1.0000
  C   C29       1.0  0.4987681287601688  0.4969621694312849  0.8288579723122494  1.0000
  C   C30       1.0  0.5066168157885329  0.4896600454994911  0.17266995332580845  1.0000
  C   C31       1.0  0.5069250189134706  0.4910252324574031  0.2482274863923806  1.0000
  C   C32       1.0  0.3591977165375511  0.0654618509933798  0.5549963984095283  1.0000
  C   C33       1.0  0.6312287359915629  0.0682473272580495  0.5507178656177485  1.0000
  C   C34       1.0  0.3516575184863342  0.9257409846048078  0.5395626598425309  1.0000
  N   N1        1.0  0.8643389655529248  0.5039754643668458  0.498809553496443  1.0000
  N   N2        1.0  0.13379493395509454  0.500987893306849  0.49722553845937506  1.0000
  N   N3        1.0  0.34692716725182754  0.0921146562847994  0.3846600381073769  1.0000
  N   N4        1.0  0.5881412869812763  0.15328113449067624  0.37035464604171137  1.0000
  O   O1        1.0  0.3810894601130314  0.31353569672801734  0.4867902723838994  1.0000
  O   O2        1.0  0.8355974437031647  0.4749419201923999  0.07019484364516157  1.0000
  O   O3        1.0  0.1262998247624196  0.4756384063816058  0.11261511172848766  1.0000
  O   O4        1.0  0.24266101444359123  0.6476614466000116  0.06974634868961968  1.0000
  O   O5        1.0  0.3471043532677598  0.0209472807342337  0.7048063748297364  1.0000
  O   O6        1.0  0.31346792131865436  0.2159465039158377  0.6570776964861407  1.0000
  O   O7        1.0  0.6189774013015849  0.1654992057159035  0.687355176466717  1.0000
  O   O8        1.0  0.8312139018251727  0.1363367645666429  0.6277436026579364  1.0000
  O   O9        1.0  0.6106971757116213  0.3173515548943442  0.5251372293491343  1.0000
  O   O10       1.0  0.3841299617964894  0.5138769531417039  0.3703708423575803  1.0000
  O   O11       1.0  0.6206714068281727  0.480486279076537  0.3762512678343767  1.0000
  O   O12       1.0  0.3806563057639067  0.6828887457415433  0.5102482593214501  1.0000
  O   O13       1.0  0.6158383744560396  0.691525879282203  0.48810114179654807  1.0000
  O   O14       1.0  0.3834557773314842  0.4815156498990947  0.6265470316049926  1.0000
  O   O15       1.0  0.6182040431834892  0.5270680981057582  0.6291058020902084  1.0000
  O   O16       1.0  0.7798894915417732  0.29611586721114236  0.13796959289931005  1.0000
