data_image0
_chemical_formula_structural       Zn4H24C32S8N16
_chemical_formula_sum              "Zn4 H24 C32 S8 N16"
_cell_length_a       7.730101641025632
_cell_length_b       7.75776510209112
_cell_length_c       16.585535294224616
_cell_angle_alpha    89.9994646558448
_cell_angle_beta     89.99975316721402
_cell_angle_gamma    90.00016745051836

_space_group_name_H-M_alt    "P 1"
_space_group_IT_number       1

loop_
  _space_group_symop_operation_xyz
  'x, y, z'

loop_
  _atom_site_type_symbol
  _atom_site_label
  _atom_site_symmetry_multiplicity
  _atom_site_fract_x
  _atom_site_fract_y
  _atom_site_fract_z
  _atom_site_occupancy
  Zn  Zn1       1.0  0.9191614206405633  0.4321825902572129  0.37581780499355943  1.0000
  Zn  Zn2       1.0  0.08084341464813598  0.9321811063545553  0.6241827627637877  1.0000
  Zn  Zn3       1.0  0.41916012339430614  0.4321869757010788  0.12418578042176882  1.0000
  Zn  Zn4       1.0  0.5808330691044787  0.9321870331236896  0.8758165961298021  1.0000
  H   H1        1.0  0.6549407550513636  0.9795605506781443  0.3421073878308292  1.0000
  H   H2        1.0  0.3450551629847781  0.479564973631298  0.657892974996976  1.0000
  H   H3        1.0  0.15493137874333476  0.9795603887182125  0.1578931451077636  1.0000
  H   H4        1.0  0.8450710075169141  0.4795561124199422  0.8421036001230746  1.0000
  H   H5        1.0  0.5410553998574769  0.0529495659712325  0.2024486514565424  1.0000
  H   H6        1.0  0.45894315429814014  0.552959869316375  0.7975505419163798  1.0000
  H   H7        1.0  0.04105764583307091  0.0529530306182266  0.2975549080456545  1.0000
  H   H8        1.0  0.9589434956031229  0.5529512485490214  0.7024442853358651  1.0000
  H   H9        1.0  0.47028036248315896  0.8027204404197193  0.11139486817375403  1.0000
  H   H10       1.0  0.5297331505704577  0.3027246148952756  0.8886032448549133  1.0000
  H   H11       1.0  0.9702750711552214  0.8027157968364237  0.3886076167074961  1.0000
  H   H12       1.0  0.0297280927432197  0.3027215242954569  0.6113886875430483  1.0000
  H   H13       1.0  0.6966708171296079  0.8642008616024625  0.6466971020582549  1.0000
  H   H14       1.0  0.30333899439205686  0.3642087314871673  0.35330134797764867  1.0000
  H   H15       1.0  0.19664019743385816  0.8642096462618553  0.8533005137024504  1.0000
  H   H16       1.0  0.8033346857021755  0.36420639191967286  0.1466991422239872  1.0000
  H   H17       1.0  0.47489766459617755  0.6960755975109904  0.5673496272873849  1.0000
  H   H18       1.0  0.5251142436125988  0.19609282737417288  0.4326561822095272  1.0000
  H   H19       1.0  0.9748829032983721  0.6960829552653183  0.9326584169692753  1.0000
  H   H20       1.0  0.0251018383882027  0.1960816025052239  0.06734558375772792  1.0000
  H   H21       1.0  0.5891862216053171  0.5140670406959629  0.4514603716079151  1.0000
  H   H22       1.0  0.41081998093655164  0.014079019138527797  0.5485438134139358  1.0000
  H   H23       1.0  0.0891739933425271  0.5140858429877325  0.0485465249024699  1.0000
  H   H24       1.0  0.9108115109378475  0.014082130368443298  0.9514552483523248  1.0000
  C   C1        1.0  0.6231375899651754  0.589176915595857  0.2677549201259097  1.0000
  C   C2        1.0  0.37686106988324763  0.08918508720150702  0.7322471312311691  1.0000
  C   C3        1.0  0.1231391567958582  0.5891765420841963  0.23225037872439466  1.0000
  C   C4        1.0  0.8768659712700709  0.08917385947371059  0.76774865797632  1.0000
  C   C5        1.0  0.6255970910403477  0.8796829656165953  0.29753385284458744  1.0000
  C   C6        1.0  0.3744075910760216  0.3796930200676557  0.7024663390314176  1.0000
  C   C7        1.0  0.1255924698790096  0.8796883492249279  0.20246958167886225  1.0000
  C   C8        1.0  0.8744109185999634  0.37968248036370505  0.7975275955344899  1.0000
  C   C9        1.0  0.5628040272708007  0.9205588175048405  0.22126797314734153  1.0000
  C   C10       1.0  0.43719818681654493  0.4205623604549444  0.7787332478134419  1.0000
  C   C11       1.0  0.0628038630204557  0.9205523496872985  0.2787372172108462  1.0000
  C   C12       1.0  0.9372009383456544  0.4205546489591967  0.7212615920379906  1.0000
  C   C13       1.0  0.5249572115338738  0.7825220905805919  0.17110592439946265  1.0000
  C   C14       1.0  0.4750458934364232  0.28253504423155107  0.828893481855147  1.0000
  C   C15       1.0  0.0249643371546284  0.7825236336527793  0.32889812880753067  1.0000
  C   C16       1.0  0.9750465296725039  0.2825206108846813  0.671098865727231  1.0000
  C   C17       1.0  0.9628189142798861  0.6444200800777508  0.527881131784234  1.0000
  C   C18       1.0  0.03719284319875269  0.14441703881819737  0.4721188718339278  1.0000
  C   C19       1.0  0.46279881936003164  0.6444225997908857  0.9721138951611011  1.0000
  C   C20       1.0  0.53718447798439  0.14442483135429998  0.027881887917701006  1.0000
  C   C21       1.0  0.7344517808922859  0.7736044234004069  0.5996315504004032  1.0000
  C   C22       1.0  0.2655603535587403  0.2736189669991305  0.40036970321881443  1.0000
  C   C23       1.0  0.2344258929004539  0.773622570430028  0.9003687944420166  1.0000
  C   C24       1.0  0.7655513131988843  0.27361886637724797  0.09963004743254093  1.0000
  C   C25       1.0  0.6126099880173612  0.6817341559920038  0.5558286402384953  1.0000
  C   C26       1.0  0.3874018783578208  0.18174946124607766  0.4441736136840575  1.0000
  C   C27       1.0  0.11259274334098988  0.6817423957923195  0.9441729451592168  1.0000
  C   C28       1.0  0.88739066287922  0.1817450885154699  0.055827499977986916  1.0000
  C   C29       1.0  0.6753001275126422  0.5812858485396646  0.49305421640409014  1.0000
  C   C30       1.0  0.3247127394027416  0.0813035704881457  0.5069490749198736  1.0000
  C   C31       1.0  0.17528440971739204  0.5813106463909463  0.0069516166255283  1.0000
  C   C32       1.0  0.8247012907133782  0.0813045532239514  0.9930510717344488  1.0000
  S   S1        1.0  0.6753149922598567  0.37903242766547857  0.2954402903223183  1.0000
  S   S2        1.0  0.32469356886652184  0.8790377695466774  0.7045635219839497  1.0000
  S   S3        1.0  0.175310351375721  0.3790326128651883  0.2045664175341386  1.0000
  S   S4        1.0  0.8246839796689612  0.879033717251289  0.7954355859894664  1.0000
  S   S5        1.0  0.1775252393002376  0.6150433149890374  0.5167264658257055  1.0000
  S   S6        1.0  0.8224864324488765  0.1150320350250169  0.48327306193969827  1.0000
  S   S7        1.0  0.677502239826623  0.6150406279706074  0.9832704565868443  1.0000
  S   S8        1.0  0.322478384481272  0.1150437452213566  0.016728468254633807  1.0000
  N   N1        1.0  0.5503006448421387  0.617469209093649  0.1937386280920066  1.0000
  N   N2        1.0  0.4497071530762113  0.1174773891943133  0.8062620950123575  1.0000
  N   N3        1.0  0.050297634270449997  0.6174699198710202  0.3062666920007331  1.0000
  N   N4        1.0  0.9496998144955526  0.11746894423989572  0.6937316193904906  1.0000
  N   N5        1.0  0.6568899969413239  0.7173757280836669  0.32025216150624664  1.0000
  N   N6        1.0  0.34311291791922827  0.21738228232497653  0.6797487324122786  1.0000
  N   N7        1.0  0.1568868831877808  0.7173751250301238  0.1797513104260631  1.0000
  N   N8        1.0  0.8431199125983895  0.2173725731541509  0.8202477747058909  1.0000
  N   N9        1.0  0.8450159200235845  0.5634705452079629  0.47856073568461  1.0000
  N   N10       1.0  0.15499301396191364  0.0634732985448565  0.521440823927712  1.0000
  N   N11       1.0  0.3450039467810413  0.5634770041861258  0.021439413391284703  1.0000
  N   N12       1.0  0.6549842889279134  0.06347844084007188  0.9785597344762852  1.0000
  N   N13       1.0  0.9043641996130775  0.7555841485784995  0.5867081127139357  1.0000
  N   N14       1.0  0.0956440013071997  0.2555798875890005  0.4132908071534871  1.0000
  N   N15       1.0  0.4043446582480215  0.7555865665050944  0.9132847398603803  1.0000
  N   N16       1.0  0.5956363761679385  0.255583914802166  0.08671176827982661  1.0000
