data_image0
_chemical_formula_structural       Pr2Cu2H28C32N4O26
_chemical_formula_sum              "Pr2 Cu2 H28 C32 N4 O26"
_cell_length_a       8.139219196927126
_cell_length_b       11.005583890465587
_cell_length_c       12.247980869544858
_cell_angle_alpha    108.4701062986706
_cell_angle_beta     101.39963053515903
_cell_angle_gamma    98.37813184807037

_space_group_name_H-M_alt    "P 1"
_space_group_IT_number       1

loop_
  _space_group_symop_operation_xyz
  'x, y, z'

loop_
  _atom_site_type_symbol
  _atom_site_label
  _atom_site_symmetry_multiplicity
  _atom_site_fract_x
  _atom_site_fract_y
  _atom_site_fract_z
  _atom_site_occupancy
  Pr  Pr1       1.0  0.9536297798617425  0.2368447277419179  0.42351325245343924  1.0000
  Pr  Pr2       1.0  0.046371113471693155  0.763155318542836  0.5764874471862953  1.0000
  Cu  Cu1       1.0  0.008141127981211693  0.7391635180184651  0.04267547909554992  1.0000
  Cu  Cu2       1.0  0.9918572613003815  0.2608365334178586  0.9573240751965457  1.0000
  H   H1        1.0  0.9656366500442103  0.15650799698006074  0.6574592839621118  1.0000
  H   H2        1.0  0.03435905310588081  0.8434871163288093  0.34254010038314675  1.0000
  H   H3        1.0  0.1190162552177512  0.11843386970858213  0.6072905879316862  1.0000
  H   H4        1.0  0.8809815520518145  0.881564184513799  0.3927107532218841  1.0000
  H   H5        1.0  0.2506529160163069  0.4735911207372894  0.5768030161269593  1.0000
  H   H6        1.0  0.7493489467068315  0.5264079452973647  0.42319752384663906  1.0000
  H   H7        1.0  0.2269143600039314  0.37591167816528787  0.6417243694256882  1.0000
  H   H8        1.0  0.7730862444159358  0.6240873747456561  0.3582768172021105  1.0000
  H   H9        1.0  0.6256347759554045  0.2880221722394225  0.2872724514337222  1.0000
  H   H10       1.0  0.3743641827835233  0.7119798450118681  0.7127277546529314  1.0000
  H   H11       1.0  0.7648456938321928  0.38302876058830293  0.2591266714674986  1.0000
  H   H12       1.0  0.23515770355308524  0.6169712805448812  0.7408751735198607  1.0000
  H   H13       1.0  0.459478617577382  0.032672937149961  0.21106510163234293  1.0000
  H   H14       1.0  0.5405262034512363  0.9673320185206437  0.7889383728413931  1.0000
  H   H15       1.0  0.5592669724124235  0.131730346406286  0.07154332011660358  1.0000
  H   H16       1.0  0.440734362619949  0.8682755632670053  0.9284616073316554  1.0000
  H   H17       1.0  0.35015176453365626  0.22703981733396017  0.957345067469177  1.0000
  H   H18       1.0  0.6498478746814128  0.7729602262934138  0.04265546593941136  1.0000
  H   H19       1.0  0.44169375434494634  0.49966598706755166  0.30451503617792497  1.0000
  H   H20       1.0  0.558308005729188  0.5003370393386392  0.6954842024976103  1.0000
  H   H21       1.0  0.5598911706127296  0.5907330989428273  0.16538088636831105  1.0000
  H   H22       1.0  0.4401105852765069  0.4092699169970402  0.8346191651925706  1.0000
  H   H23       1.0  0.3668284615181108  0.6873440957902376  0.04286196357969624  1.0000
  H   H24       1.0  0.6331695403858147  0.3126589331101428  0.957135963517068  1.0000
  H   H25       1.0  0.5926598457333228  0.8848055491459023  0.4739150293593041  1.0000
  H   H26       1.0  0.40734047814277824  0.11519253132388493  0.5260850184858796  1.0000
  H   H27       1.0  0.4281646129758557  0.9070559982899482  0.36930304781262885  1.0000
  H   H28       1.0  0.5718316638164681  0.09294109130021869  0.630696175441841  1.0000
  C   C1        1.0  0.10479733209599118  0.1366739382116364  0.11504562410932098  1.0000
  C   C2        1.0  0.8952023113039758  0.8633261158820674  0.8849540964139209  1.0000
  C   C3        1.0  0.20931759611667639  0.07935483249384132  0.17975521350422238  1.0000
  C   C4        1.0  0.7906823278270566  0.9206461940410198  0.8202456458016413  1.0000
  C   C5        1.0  0.37436912736826855  0.07671709728028021  0.162506010652983  1.0000
  C   C6        1.0  0.6256345463758778  0.9232839058277378  0.8374977860023378  1.0000
  C   C7        1.0  0.4303586227565006  0.13124413308708682  0.08437559324718788  1.0000
  C   C8        1.0  0.5696408970699666  0.8687598290465174  0.9156268904047025  1.0000
  C   C9        1.0  0.3177223934436384  0.18478727956986768  0.02166569165950698  1.0000
  C   C10       1.0  0.6822759832832616  0.81521274046748  0.9783363012886142  1.0000
  C   C11       1.0  0.9247081439685585  0.1493384078433024  0.12208430082956306  1.0000
  C   C12       1.0  0.07529399929835288  0.8506616306325087  0.8779173779266498  1.0000
  C   C13       1.0  0.1544914853537662  0.0220930500013523  0.2676310229689705  1.0000
  C   C14       1.0  0.8455081622310985  0.9779070145586815  0.732367884668939  1.0000
  C   C15       1.0  0.08960911633604243  0.5832872930505459  0.17443796492979396  1.0000
  C   C16       1.0  0.9103892729455509  0.41671275838577776  0.8255615893623087  1.0000
  C   C17       1.0  0.18946879799468516  0.5349322356476449  0.2503210524508147  1.0000
  C   C18       1.0  0.8105315468059047  0.4650658971537853  0.7496749309676644  1.0000
  C   C19       1.0  0.3608526116458037  0.53721379813787  0.24660505495972268  1.0000
  C   C20       1.0  0.6391492678169256  0.46278530976208987  0.7533922334725176  1.0000
  C   C21       1.0  0.42775119225863995  0.5899098353489053  0.17102687863552998  1.0000
  C   C22       1.0  0.5722477790349813  0.4100922133013684  0.828970888795105  1.0000
  C   C23       1.0  0.32260217520888557  0.642498264594586  0.10243382500655682  1.0000
  C   C24       1.0  0.6773949683241369  0.35750180511701757  0.8975639372837134  1.0000
  C   C25       1.0  0.9002016003982333  0.5780443029124029  0.15980469483113055  1.0000
  C   C26       1.0  0.09979649996979134  0.42195475515011094  0.8401953464490362  1.0000
  C   C27       1.0  0.12102039656549123  0.4879328058835314  0.3390566122406753  1.0000
  C   C28       1.0  0.8789817634410113  0.5120672744575855  0.6609418149741797  1.0000
  C   C29       1.0  0.6641914730036901  0.04526689390087311  0.41753784003747535  1.0000
  C   C30       1.0  0.33580674675293654  0.9547282456554099  0.5824602509993894  1.0000
  C   C31       1.0  0.5347974822838424  0.9598025565507129  0.45002011630180755  1.0000
  C   C32       1.0  0.46519977226797954  0.0401935737220001  0.549977321515847  1.0000
  N   N1        1.0  0.15992750104999937  0.18616358176179665  0.03741683880049608  1.0000
  N   N2        1.0  0.8400718576212967  0.8138354894244277  0.9625825558254775  1.0000
  N   N3        1.0  0.15838639706241514  0.6385904136412535  0.10485801808843576  1.0000
  N   N4        1.0  0.8416120005889808  0.3614096587277232  0.8951399104329808  1.0000
  O   O1        1.0  0.0402834836017902  0.18113204529920776  0.6091224108246109  1.0000
  O   O2        1.0  0.9597155777861417  0.8188660115805464  0.39087909656010567  1.0000
  O   O3        1.0  0.8455962977641391  0.19744817841351653  0.04920856761263082  1.0000
  O   O4        1.0  0.15440362617959374  0.8025528481213441  0.9507922916932258  1.0000
  O   O5        1.0  0.2428669775183963  0.3798763291387247  0.5654061434730338  1.0000
  O   O6        1.0  0.7571336310863687  0.6201227342385424  0.43459423026941824  1.0000
  O   O7        1.0  0.8595115846298214  0.11303910959750144  0.19445595792493717  1.0000
  O   O8        1.0  0.14049364051605542  0.8869629104743593  0.8055458922027796  1.0000
  O   O9        1.0  0.7369078921299843  0.34984959375469776  0.32114830186691273  1.0000
  O   O10       1.0  0.2630927122898825  0.6501494591562533  0.6788528847608788  1.0000
  O   O11       1.0  0.1218934808538564  0.8981349726752869  0.2370111594430568  1.0000
  O   O12       1.0  0.8781082708504754  0.10186803279824372  0.7629897050031572  1.0000
  O   O13       1.0  0.15669565595911908  0.10270340922508583  0.3682836850191008  1.0000
  O   O14       1.0  0.8433032944100205  0.8972985870935518  0.6317181468382245  1.0000
  O   O15       1.0  0.8372774812272326  0.6463076776667478  0.10067171545053816  1.0000
  O   O16       1.0  0.16271936920732344  0.3536913882047088  0.8993273467131359  1.0000
  O   O17       1.0  0.8115256576102254  0.5082821544474784  0.1999366134071891  1.0000
  O   O18       1.0  0.18847302476983435  0.49171890082898545  0.80006164101151  1.0000
  O   O19       1.0  0.09914133584607751  0.36608665871006013  0.3206721620165424  1.0000
  O   O20       1.0  0.9008613601385705  0.633915303715405  0.6793334200755866  1.0000
  O   O21       1.0  0.09782553819103164  0.5741983860920429  0.42736525435010714  1.0000
  O   O22       1.0  0.9021805620653394  0.42580663503390775  0.5726335090427384  1.0000
  O   O23       1.0  0.6536357349264891  0.16379065654329852  0.43122633638999724  1.0000
  O   O24       1.0  0.346364189017244  0.8362103699915622  0.5687745229158593  1.0000
  O   O25       1.0  0.7848863895956767  0.9999386837168842  0.37661991070701356  1.0000
  O   O26       1.0  0.21511296907561925  6.038746933970012e-05  0.6233794839189598  1.0000
