data_image0
_chemical_formula_structural       CuP2H18C18N2O6
_chemical_formula_sum              "Cu1 P2 H18 C18 N2 O6"
_cell_length_a       7.593878331517162
_cell_length_b       8.319921511277611
_cell_length_c       8.618077516949565
_cell_angle_alpha    94.84411034690046
_cell_angle_beta     110.10498265569345
_cell_angle_gamma    92.58645826943132

_space_group_name_H-M_alt    "P 1"
_space_group_IT_number       1

loop_
  _space_group_symop_operation_xyz
  'x, y, z'

loop_
  _atom_site_type_symbol
  _atom_site_label
  _atom_site_symmetry_multiplicity
  _atom_site_fract_x
  _atom_site_fract_y
  _atom_site_fract_z
  _atom_site_occupancy
  Cu  Cu1       1.0  0.4999972178282165  0.9999999124904515  1.265044389251569e-07  1.0000
  P   P1        1.0  0.4611172645758614  0.139783421430927  0.31591733062938954  1.0000
  P   P2        1.0  0.5388877480705645  0.8602144304576811  0.6840811980648669  1.0000
  H   H1        1.0  0.31054445911560447  0.006664221993631297  0.45080151795912854  1.0000
  H   H2        1.0  0.6894607385494709  0.9933361603381529  0.5491915148987803  1.0000
  H   H3        1.0  0.5378381260668661  0.6848188824066597  0.13939392380059706  1.0000
  H   H4        1.0  0.4621531198685389  0.3151811412943673  0.8606111565844263  1.0000
  H   H5        1.0  0.32306178870157953  0.44945794810867307  0.12883163809625134  1.0000
  H   H6        1.0  0.6769363756124706  0.5505408456841252  0.8711777062273145  1.0000
  H   H7        1.0  0.8597033638709917  0.7373390802269455  0.8967019630773624  1.0000
  H   H8        1.0  0.14029202195110457  0.2626595931005511  0.10331234267849962  1.0000
  H   H9        1.0  0.093730941881141  0.9555244003943102  0.9083593855364429  1.0000
  H   H10       1.0  0.9062642409740463  0.0444734618718243  0.09163388881904687  1.0000
  H   H11       1.0  0.23506469981276007  0.3048078905189016  0.4789264418597271  1.0000
  H   H12       1.0  0.7649361998878419  0.6951912009724525  0.5210686612974842  1.0000
  H   H13       1.0  0.8861713098081836  0.5118202508847673  0.3730928201216985  1.0000
  H   H14       1.0  0.11382558292635989  0.4881812900455244  0.6268990094971871  1.0000
  H   H15       1.0  0.7183071918926629  0.3673881271984314  0.22676665659642492  1.0000
  H   H16       1.0  0.2816936862552454  0.6326110529095459  0.7732238066937571  1.0000
  H   H17       1.0  0.8623973742778543  0.3068403548376678  0.41601114039541914  1.0000
  H   H18       1.0  0.137595867147148  0.6931671099610455  0.5839859914486071  1.0000
  C   C1        1.0  0.38609434407474197  0.6902568453812632  0.08598426981225063  1.0000
  C   C2        1.0  0.6139025702124953  0.30974460693239797  0.9140121996736712  1.0000
  C   C3        1.0  0.26360764568962475  0.5589199707519156  0.07962307514620898  1.0000
  C   C4        1.0  0.7363955530590829  0.44108860488884716  0.9203841029023326  1.0000
  C   C5        1.0  0.06836314479865989  0.5692142828354178  0.007598681207468884  1.0000
  C   C6        1.0  0.9316352260867475  0.4307869527839258  0.9924098071467856  1.0000
  C   C7        1.0  0.007928332878066187  0.7167189945838288  0.949210885815049  1.0000
  C   C8        1.0  0.9920715520916873  0.28328343356481156  0.05079933370542741  1.0000
  C   C9        1.0  0.1387583728527844  0.8421447903494652  0.9579283168983753  1.0000
  C   C10       1.0  0.8612345039230789  0.15785759140874234  0.042080966585111027  1.0000
  C   C11       1.0  0.4875786645049446  0.3421946580376982  0.42209070994672987  1.0000
  C   C12       1.0  0.5124302868449959  0.6577993794966801  0.5779190600544413  1.0000
  C   C13       1.0  0.6395530955395116  0.4525447585237785  0.4332222970123853  1.0000
  C   C14       1.0  0.360449133226787  0.547452995053689  0.5667800331474029  1.0000
  C   C15       1.0  0.35160945296607327  0.3914241981560522  0.48845724232160864  1.0000
  C   C16       1.0  0.6483979789113403  0.6085686690031833  0.5115496365465759  1.0000
  C   C17       1.0  0.785677570756974  0.4082829571541354  0.3594071144068495  1.0000
  C   C18       1.0  0.21432094742986146  0.5917209639874912  0.6405877583437417  1.0000
  N   N1        1.0  0.3249436071325675  0.8287103328614619  0.023628699741713884  1.0000
  N   N2        1.0  0.6750488978222577  0.1712886409297241  0.976368528078034  1.0000
  O   O1        1.0  0.2819011830712626  0.05219787231217769  0.3352083690300703  1.0000
  O   O2        1.0  0.7181052951659409  0.9478013714931419  0.6647814511295993  1.0000
  O   O3        1.0  0.6380648415810198  0.05176077280762569  0.3844435194919458  1.0000
  O   O4        1.0  0.3619413133287139  0.9482348636432576  0.6155446847048013  1.0000
  O   O5        1.0  0.4103473743874347  0.1639457061659755  0.12966780061406522  1.0000
  O   O6        1.0  0.5896481371833957  0.8360557413004344  0.8703282496711042  1.0000
