data_image0
_chemical_formula_structural       Zn3P4H22C16N2O20
_chemical_formula_sum              "Zn3 P4 H22 C16 N2 O20"
_cell_length_a       9.028003051785168
_cell_length_b       9.015080268085038
_cell_length_c       9.899358457586832
_cell_angle_alpha    101.08820823253338
_cell_angle_beta     109.35300178250283
_cell_angle_gamma    110.09120782862712

_space_group_name_H-M_alt    "P 1"
_space_group_IT_number       1

loop_
  _space_group_symop_operation_xyz
  'x, y, z'

loop_
  _atom_site_type_symbol
  _atom_site_label
  _atom_site_symmetry_multiplicity
  _atom_site_fract_x
  _atom_site_fract_y
  _atom_site_fract_z
  _atom_site_occupancy
  Zn  Zn1       1.0  0.2593568460016513  0.237791621833729  0.5288922440865418  1.0000
  Zn  Zn2       1.0  0.7406458909613959  0.762210590358599  0.4711076417424704  1.0000
  Zn  Zn3       1.0  1.0530469295860142e-06  0.9999995261900523  2.5125102353213657e-07  1.0000
  P   P1        1.0  0.27833896839857875  0.9652552927175151  0.303484417443151  1.0000
  P   P2        1.0  0.721661460289482  0.03474442634782089  0.6965163756621204  1.0000
  P   P3        1.0  0.9125628266142766  0.8938057868649594  0.2630158954480349  1.0000
  P   P4        1.0  0.08743759207679598  0.1061939217387931  0.7369838826821107  1.0000
  H   H1        1.0  0.4841882789044972  0.8830616711967991  0.3903312455825087  1.0000
  H   H2        1.0  0.5158127444741181  0.1169367861261037  0.609669510205222  1.0000
  H   H3        1.0  0.09326767348853329  0.8539228137367091  0.5167612600091471  1.0000
  H   H4        1.0  0.9067315826494992  0.1460769084735176  0.48323918374982344  1.0000
  H   H5        1.0  0.9118817153153885  0.19792097811099302  0.13703344485425353  1.0000
  H   H6        1.0  0.08811813551319853  0.8020774823568146  0.8629669615871759  1.0000
  H   H7        1.0  0.11562180218196967  0.29638669061620254  0.22490745616620691  1.0000
  H   H8        1.0  0.8843786065121079  0.7036130075259595  0.7750913069888267  1.0000
  H   H9        1.0  0.43706667291014156  0.28159539333582023  0.8917260709402012  1.0000
  H   H10       1.0  0.5629314206748502  0.7184043424808948  0.10827503844757998  1.0000
  H   H11       1.0  0.12051412409520162  0.6002008267196787  0.21563932683887532  1.0000
  H   H12       1.0  0.8794845541833565  0.3997976368930196  0.7843607302562529  1.0000
  H   H13       1.0  0.006172457453686795  0.6632132037683223  0.07155325848150079  1.0000
  H   H14       1.0  0.9938262308218597  0.3367852703059598  0.9284478135887464  1.0000
  H   H15       1.0  0.9492308384410961  0.46987087542267864  0.369064411006981  1.0000
  H   H16       1.0  0.05076901238749082  0.5301275850451291  0.6309359954344484  1.0000
  H   H17       1.0  0.6623617997651364  0.24232022383154117  0.32105103016988296  1.0000
  H   H18       1.0  0.3376386489169007  0.7576795161569619  0.6789517928856268  1.0000
  H   H19       1.0  0.40004252414264835  0.15475438984681492  0.07094924738302669  1.0000
  H   H20       1.0  0.5999550015798647  0.8452440978339555  0.9290524903160384  1.0000
  H   H21       1.0  0.6953603357072637  0.49245067950794663  0.9235693751727037  1.0000
  H   H22       1.0  0.3046371800182541  0.5075477977112329  0.0764313475512424  1.0000
  C   C1        1.0  0.07826042734298962  0.8091352620719976  0.3038518163368875  1.0000
  C   C2        1.0  0.9217400113420596  0.1908644674549222  0.6961499917435032  1.0000
  C   C3        1.0  0.016310887153515762  0.6406204626936757  0.1786254354472589  1.0000
  C   C4        1.0  0.9836883789815046  0.35937926997813463  0.8213760232868306  1.0000
  C   C5        1.0  0.8474357203056327  0.5036021494857224  0.15327477347485535  1.0000
  C   C6        1.0  0.1525617754259087  0.4963963068102899  0.8467239192988525  1.0000
  C   C7        1.0  0.8335680832588108  0.42792458148965556  0.26296295801541436  1.0000
  C   C8        1.0  0.1664305950197473  0.5720738821230429  0.7370370990797138  1.0000
  C   C9        1.0  0.6745839258569006  0.3012997238452045  0.23650538465498966  1.0000
  C   C10       1.0  0.325414772415634  0.6986987606906683  0.7634967023903766  1.0000
  C   C11       1.0  0.529855860471926  0.2495936334327169  0.09957861819450636  1.0000
  C   C12       1.0  0.47014401035063696  0.750404847958258  0.9004238181971612  1.0000
  C   C13       1.0  0.6986756320331153  0.44513214144577523  0.01737472292163741  1.0000
  C   C14       1.0  0.30132364093599745  0.554865060424504  0.9826252968559498  1.0000
  C   C15       1.0  0.42569428109509727  0.4846955234425963  0.4232712839010515  1.0000
  C   C16       1.0  0.5743083154018009  0.5153141556153289  0.5767207390960178  1.0000
  N   N1        1.0  0.5468459494628702  0.322062931272896  0.9950918594236522  1.0000
  N   N2        1.0  0.45315214412212146  0.6779368045438119  0.004909249964136017  1.0000
  O   O1        1.0  0.3963782009781267  0.8743065995658127  0.28841271878330577  1.0000
  O   O2        1.0  0.6036216498504602  0.1256918609019877  0.7115876876581239  1.0000
  O   O3        1.0  0.23026493900203351  0.025475533795727808  0.17055865058885888  1.0000
  O   O4        1.0  0.7697354796890324  0.9745241748080178  0.8294411275412937  1.0000
  O   O5        1.0  0.3772445944650897  0.1057065782924056  0.4621805050858183  1.0000
  O   O6        1.0  0.6227563820914739  0.8942943679857009  0.5378176297579313  1.0000
  O   O7        1.0  0.0008006338815675899  0.07455682908680929  0.3789767635448553  1.0000
  O   O8        1.0  0.9992021299095555  0.9254428732271478  0.6210237132778998  1.0000
  O   O9        1.0  0.7532788040493159  0.7767125806600249  0.2814556215871987  1.0000
  O   O10       1.0  0.24671985423526618  0.2232858620295062  0.7185424055576842  1.0000
  O   O11       1.0  0.8490585459753887  0.8832364282746924  0.09703652040704472  1.0000
  O   O12       1.0  0.1509407001656555  0.11676328347395068  0.9029629083768067  1.0000
  O   O13       1.0  0.12188990150418266  0.7839212081335205  0.44755205668113246  1.0000
  O   O14       1.0  0.8781105171868901  0.2160785004702248  0.5524477214490201  1.0000
  O   O15       1.0  0.2701102897946227  0.3895427982259463  0.40090331048401834  1.0000
  O   O16       1.0  0.7298929950369412  0.6104606411791522  0.5990939170834719  1.0000
  O   O17       1.0  0.46541043890174894  0.5530006573352323  0.3337033243864267  1.0000
  O   O18       1.0  0.5345887235921865  0.4470040427854016  0.6662918774845817  1.0000
  O   O19       1.0  0.016716290408147903  0.23803224055926367  0.12002331261442829  1.0000
  O   O20       1.0  0.983284138279913  0.7619674785060724  0.8799774804908361  1.0000
