data_image0
_chemical_formula_structural       Na12Ga4H24C24O48
_chemical_formula_sum              "Na12 Ga4 H24 C24 O48"
_cell_length_a       6.270355168006391
_cell_length_b       13.77098437111712
_cell_length_c       14.64747814712842
_cell_angle_alpha    89.9995389898961
_cell_angle_beta     89.9998722747251
_cell_angle_gamma    90.00010642789456

_space_group_name_H-M_alt    "P 1"
_space_group_IT_number       1

loop_
  _space_group_symop_operation_xyz
  'x, y, z'

loop_
  _atom_site_type_symbol
  _atom_site_label
  _atom_site_symmetry_multiplicity
  _atom_site_fract_x
  _atom_site_fract_y
  _atom_site_fract_z
  _atom_site_occupancy
  Na  Na1       1.0  0.2723887648663137  0.21838395303402086  0.5018984152660266  1.0000
  Na  Na2       1.0  0.22760208772887577  0.2183854399376983  0.9981033066138492  1.0000
  Na  Na3       1.0  0.772389288204387  0.28161640892608364  0.49810275312650987  1.0000
  Na  Na4       1.0  0.727606876371837  0.28162069312254806  0.0018972203522124996  1.0000
  Na  Na5       1.0  0.7276113362477404  0.7816176834504207  0.4981015666358885  1.0000
  Na  Na6       1.0  0.7723916341523918  0.7816154703678253  0.0018994061392660995  1.0000
  Na  Na7       1.0  0.2276108129071019  0.718383049067782  0.5018965460722596  1.0000
  Na  Na8       1.0  0.2723964143549367  0.7183831218509126  0.9981041269627509  1.0000
  Na  Na9       1.0  0.7500017661790326  0.9206182596067907  0.2500009850705496  1.0000
  Na  Na10      1.0  0.2500025352497914  0.5793817658435928  0.7499998378335279  1.0000
  Na  Na11      1.0  0.24999833492363877  0.07938047221087881  0.7500010449764785  1.0000
  Na  Na12      1.0  0.750003945087144  0.4206184183174957  0.24999946135955745  1.0000
  Ga  Ga1       1.0  0.25000283282723496  0.06099322344114462  0.25000036850801166  1.0000
  Ga  Ga2       1.0  0.7499978523746194  0.43900421475754575  0.7500001378342488  1.0000
  Ga  Ga3       1.0  0.7500004578889018  0.9390026037315665  0.7499989307030146  1.0000
  Ga  Ga4       1.0  0.2500038435285461  0.5609908862412212  0.2500012095143873  1.0000
  H   H1        1.0  0.16995924489172856  0.9421262702782371  0.4214955387561402  1.0000
  H   H2        1.0  0.3300420090178093  0.9421292596473023  0.07850331640191399  1.0000
  H   H3        1.0  0.6699568361578941  0.5578736868660245  0.5785046752649448  1.0000
  H   H4        1.0  0.8300473231929146  0.5578708341312223  0.9214926536956013  1.0000
  H   H5        1.0  0.8300408562171881  0.057871009225046115  0.5785030777394835  1.0000
  H   H6        1.0  0.6699501180714265  0.0578731030040842  0.9214953000781774  1.0000
  H   H7        1.0  0.33003848053597545  0.442128675775031  0.42149667205919167  1.0000
  H   H8        1.0  0.1699607519430231  0.4421286238572719  0.0785086936336299  1.0000
  H   H9        1.0  0.4886787464156511  0.24210394997196263  0.22317243026872544  1.0000
  H   H10       1.0  0.011322867016382101  0.24210424268182615  0.2768303512183294  1.0000
  H   H11       1.0  0.9886744841802299  0.25789441806406904  0.7768305867741246  1.0000
  H   H12       1.0  0.5113172987647658  0.2578966226543571  0.7231696925446798  1.0000
  H   H13       1.0  0.5113341131463471  0.7578976865179214  0.7768275516273063  1.0000
  H   H14       1.0  0.9886804237012115  0.7578959414662024  0.7231716788217426  1.0000
  H   H15       1.0  0.011324022110216  0.7420985044456785  0.22316939516146309  1.0000
  H   H16       1.0  0.48867482832152825  0.7421042876680276  0.2768289239408972  1.0000
  H   H17       1.0  0.7185867472345323  0.07053966051084609  0.40122751382038757  1.0000
  H   H18       1.0  0.7814117536166236  0.07054243481798751  0.09876722816064638  1.0000
  H   H19       1.0  0.21858655588941636  0.4294599293906813  0.598768925219666  1.0000
  H   H20       1.0  0.2814115292903239  0.4294651965045021  0.9012298356142023  1.0000
  H   H21       1.0  0.2814165434918792  0.9294612498133789  0.5987717853714186  1.0000
  H   H22       1.0  0.2185819682778742  0.9294577493464261  0.9012300229041867  1.0000
  H   H23       1.0  0.7814199244434761  0.5705373501153163  0.40122969127301633  1.0000
  H   H24       1.0  0.7185917614353414  0.5705407969536865  0.0987735598266681  1.0000
  C   C1        1.0  0.3304940287180429  0.9201657708401358  0.3983960082282465  1.0000
  C   C2        1.0  0.16951032600173477  0.920164068379748  0.1016064265109833  1.0000
  C   C3        1.0  0.8304947740628066  0.5798321448199105  0.6016020095968242  1.0000
  C   C4        1.0  0.6695094740552392  0.5798300790455926  0.8983985669250528  1.0000
  C   C5        1.0  0.6695044775863579  0.07983223482695928  0.6016026082653737  1.0000
  C   C6        1.0  0.8304833958832063  0.07983684193162331  0.8983949208193777  1.0000
  C   C7        1.0  0.1695021374392738  0.42016586085235724  0.39839524147477323  1.0000
  C   C8        1.0  0.3304954114591752  0.4201664742776857  0.1016041458393815  1.0000
  C   C9        1.0  0.4903036340782947  0.23375273623732803  0.29852331594990733  1.0000
  C   C10       1.0  0.009693161172123198  0.23375439903984588  0.201480894087041  1.0000
  C   C11       1.0  0.9902998111444958  0.26624853785525465  0.7014769687375448  1.0000
  C   C12       1.0  0.5096872211538751  0.2662464648966321  0.7985211993134342  1.0000
  C   C13       1.0  0.5096996566503122  0.7662510787390532  0.7014773486536823  1.0000
  C   C14       1.0  0.9903085347420487  0.766247963598083  0.7985218186569155  1.0000
  C   C15       1.0  0.009692315941443  0.7337494678178943  0.2985195996248819  1.0000
  C   C16       1.0  0.49030331111615055  0.733752993084373  0.20148014802388295  1.0000
  C   C17       1.0  0.8888259759679118  0.08875634577583472  0.3895646079753091  1.0000
  C   C18       1.0  0.6111678140985646  0.08875669640931962  0.11043340986692128  1.0000
  C   C19       1.0  0.3888288378136977  0.411242663234603  0.6104337221806944  1.0000
  C   C20       1.0  0.1111739581253701  0.4112471587909426  0.8895679072108535  1.0000
  C   C21       1.0  0.11117571993523971  0.9112423860337416  0.6104394702051222  1.0000
  C   C22       1.0  0.38882271817844577  0.9112398569341451  0.8895631585017298  1.0000
  C   C23       1.0  0.6111744529105182  0.588755342437466  0.38956421159933535  1.0000
  C   C24       1.0  0.8888293325977228  0.5887566561766704  0.11043480552687866  1.0000
  O   O1        1.0  0.4014408474264641  0.9598815067350727  0.324434970897741  1.0000
  O   O2        1.0  0.0985700470881312  0.9598791103252609  0.1755644327688444  1.0000
  O   O3        1.0  0.9014378445451497  0.540114290975353  0.6755629814997589  1.0000
  O   O4        1.0  0.5985694326268957  0.5401171550742563  0.8244358471106991  1.0000
  O   O5        1.0  0.5985656329108339  0.040117951264434695  0.6755636455867132  1.0000
  O   O6        1.0  0.9014252696130923  0.04012325232748991  0.8244341837097763  1.0000
  O   O7        1.0  0.09855747213220671  0.45988081001776493  0.3244390485632067  1.0000
  O   O8        1.0  0.4014450217418357  0.4598830290931561  0.1755627693673247  1.0000
  O   O9        1.0  0.3784453034423976  0.1633784897908583  0.3322809803594424  1.0000
  O   O10       1.0  0.12156396574103212  0.1633790848347303  0.16772376166215955  1.0000
  O   O11       1.0  0.8784419466854347  0.33662123649924797  0.6677228210622913  1.0000
  O   O12       1.0  0.6215421805088894  0.3366262315458429  0.8322795939682877  1.0000
  O   O13       1.0  0.6215643665076058  0.8366267775084781  0.6677217323698557  1.0000
  O   O14       1.0  0.8784457042097102  0.8366247301414519  0.8322775856498694  1.0000
  O   O15       1.0  0.12155496479644509  0.6633731383300443  0.332279209002678  1.0000
  O   O16       1.0  0.37843559332016236  0.6633775834138049  0.16772243606983034  1.0000
  O   O17       1.0  0.969122969943477  0.046989154926329504  0.3184125489252878  1.0000
  O   O18       1.0  0.5308818149144798  0.04699536315005301  0.1815871500469726  1.0000
  O   O19       1.0  0.4691208332932534  0.4530070179458933  0.6815863898937449  1.0000
  O   O20       1.0  0.0308757522756196  0.45301205435788466  0.8184128756514396  1.0000
  O   O21       1.0  0.030881915577545296  0.9530088507317985  0.6815887984108997  1.0000
  O   O22       1.0  0.46912147581632985  0.9530077256676748  0.8184121491366054  1.0000
  O   O23       1.0  0.5308808626179911  0.5469902615522244  0.3184135920239086  1.0000
  O   O24       1.0  0.9691275384507918  0.5469888559663403  0.18158642354036658  1.0000
  O   O25       1.0  0.4324050768691947  0.8586921672617082  0.4430455177472581  1.0000
  O   O26       1.0  0.0675958397251009  0.858694391051408  0.056954650836154  1.0000
  O   O27       1.0  0.9324063110358836  0.6413065615273228  0.556953771500325  1.0000
  O   O28       1.0  0.5675981856070393  0.6413018479103629  0.9430470230337347  1.0000
  O   O29       1.0  0.5675902398235878  0.1413051122424562  0.556952416039195  1.0000
  O   O30       1.0  0.9323962873600922  0.14130869775570432  0.9430460137753299  1.0000
  O   O31       1.0  0.06758741084868798  0.35869507494562203  0.4430482585386741  1.0000
  O   O32       1.0  0.43240510511240876  0.3586947054297768  0.056951593463168096  1.0000
  O   O33       1.0  0.5962529656528588  0.29193723558777407  0.3458595233219484  1.0000
  O   O34       1.0  0.9037496198691385  0.2919360092773289  0.15413764130997978  1.0000
  O   O35       1.0  0.0962452020256066  0.20806442839359826  0.6541397593929899  1.0000
  O   O36       1.0  0.40374082443018716  0.2080644647899348  0.8458613577925289  1.0000
  O   O37       1.0  0.4037567043089113  0.7080665794059443  0.6541377277218103  1.0000
  O   O38       1.0  0.09624888643745778  0.7080649010419295  0.8458623405954171  1.0000
  O   O39       1.0  0.9037469250485799  0.7919313987743523  0.3458595398231806  1.0000
  O   O40       1.0  0.5962513026484046  0.7919335408715185  0.15413794141541357  1.0000
  O   O41       1.0  0.9809754304336096  0.14483856658701205  0.4430704923866102  1.0000
  O   O42       1.0  0.5190201811744117  0.14483784450074924  0.05692505337732  1.0000
  O   O43       1.0  0.4809751639170017  0.3551634257431289  0.556922291075125  1.0000
  O   O44       1.0  0.019021026083123598  0.35516593205915836  0.9430763486949231  1.0000
  O   O45       1.0  0.019032644721797  0.855165974567612  0.5569274413665112  1.0000
  O   O46       1.0  0.4809719459096797  0.8551637919802887  0.9430749285282757  1.0000
  O   O47       1.0  0.5190281268145611  0.6448345799406283  0.4430729118593959  1.0000
  O   O48       1.0  0.980980669835091  0.6448357044230377  0.0569243159176338  1.0000
