data_image0
_chemical_formula_structural       Zn2H26C40N6O8
_chemical_formula_sum              "Zn2 H26 C40 N6 O8"
_cell_length_a       8.105820292721692
_cell_length_b       9.177167163422181
_cell_length_c       13.401422979409125
_cell_angle_alpha    92.14362797832906
_cell_angle_beta     106.38832992319537
_cell_angle_gamma    113.91405105194497

_space_group_name_H-M_alt    "P 1"
_space_group_IT_number       1

loop_
  _space_group_symop_operation_xyz
  'x, y, z'

loop_
  _atom_site_type_symbol
  _atom_site_label
  _atom_site_symmetry_multiplicity
  _atom_site_fract_x
  _atom_site_fract_y
  _atom_site_fract_z
  _atom_site_occupancy
  Zn  Zn1       1.0  0.3800125611343787  0.45457893637093605  0.33685074149246935  1.0000
  Zn  Zn2       1.0  0.6199899294323359  0.5454233334162665  0.6631487831105858  1.0000
  H   H1        1.0  0.5825588178021801  0.962222021943859  0.615792081596588  1.0000
  H   H2        1.0  0.41743922241876413  0.0377766368865196  0.384206571888285  1.0000
  H   H3        1.0  0.45948494201630313  0.1517094071179486  0.673993623543069  1.0000
  H   H4        1.0  0.5405118155737084  0.8482892939409723  0.3260033253442742  1.0000
  H   H5        1.0  0.1147616294190286  0.06126439623744058  0.6342884417312362  1.0000
  H   H6        1.0  0.8852338708724262  0.9387318520641516  0.3657097019851321  1.0000
  H   H7        1.0  0.885547514870751  0.7770704408289147  0.5405009095848285  1.0000
  H   H8        1.0  0.1144518289938361  0.22292576217656554  0.4594986187574222  1.0000
  H   H9        1.0  0.9645771451490217  0.7250160069668681  0.3334814629304006  1.0000
  H   H10       1.0  0.035421525449059695  0.27498384568637857  0.6665180848066471  1.0000
  H   H11       1.0  0.24838840115769747  0.8267176181510436  0.2743802420927608  1.0000
  H   H12       1.0  0.7516115722201063  0.17327979495519236  0.7256194346683174  1.0000
  H   H13       1.0  0.21369861112740546  0.7622459665973338  0.08531151793504678  1.0000
  H   H14       1.0  0.7862994526980456  0.2377502298029769  0.9146885433096943  1.0000
  H   H15       1.0  0.8857424164998658  0.6002810313367563  0.9544982902321877  1.0000
  H   H16       1.0  0.11425434368194222  0.3997176208884596  0.045500896155175496  1.0000
  H   H17       1.0  0.9959653616066008  0.44025938324625014  0.27353991426117125  1.0000
  H   H18       1.0  0.004033938504697698  0.5597416795077593  0.7264597818947038  1.0000
  H   H19       1.0  0.6713396693391402  0.2637159140885856  0.1542057895992883  1.0000
  H   H20       1.0  0.3286602830259468  0.7362839126140271  0.8457947169019422  1.0000
  H   H21       1.0  0.8968798276893395  0.9361386001916756  0.07359728714248344  1.0000
  H   H22       1.0  0.10312331685903328  0.06386240098832731  0.9264045394726068  1.0000
  H   H23       1.0  0.21680082196452588  0.13344183548471023  0.1957792447617805  1.0000
  H   H24       1.0  0.7832016703300508  0.8665604017466964  0.8042217715079545  1.0000
  H   H25       1.0  0.5580993646500687  0.86056865183906  0.9900284595909811  1.0000
  H   H26       1.0  0.4419018677541544  0.13943118146871566  0.009971514007752107  1.0000
  C   C1        1.0  0.3870999387550142  0.6684755886671851  0.5043257546012327  1.0000
  C   C2        1.0  0.6129019231624184  0.33152545474135314  0.49567436741633497  1.0000
  C   C3        1.0  0.30629896786915367  0.7649198724332463  0.5501622286068723  1.0000
  C   C4        1.0  0.6937003549827238  0.23507874416859653  0.4498381294755305  1.0000
  C   C5        1.0  0.43085354088228184  0.9226268565682005  0.6030078315606319  1.0000
  C   C6        1.0  0.5691457575011539  0.0773742387416121  0.3969903729285633  1.0000
  C   C7        1.0  0.36272983477486054  0.0279419270370553  0.6344161728277484  1.0000
  C   C8        1.0  0.6372669236790851  0.9720567577439634  0.36558152189293475  1.0000
  C   C9        1.0  0.16674872490393966  0.9772839539697388  0.6113165167200948  1.0000
  C   C10       1.0  0.833251877123139  0.0227146855151616  0.3886825626264709  1.0000
  C   C11       1.0  0.03935882571089161  0.8205521000677152  0.558922761108029  1.0000
  C   C12       1.0  0.9606385849968363  0.17944534866189338  0.4410757439580167  1.0000
  C   C13       1.0  0.10853259588704839  0.7126219319716612  0.5317873882161237  1.0000
  C   C14       1.0  0.8914692879070356  0.28737668156261253  0.4682126498946317  1.0000
  C   C15       1.0  0.605708783739665  0.5235642457700251  0.2220327073778847  1.0000
  C   C16       1.0  0.39428793355278197  0.47643924992583214  0.7779673926564501  1.0000
  C   C17       1.0  0.765295423035866  0.6084444198500664  0.17875136309271514  1.0000
  C   C18       1.0  0.2347051352379239  0.3915590793833773  0.8212478840674678  1.0000
  C   C19       1.0  0.9477168836986605  0.7025761448339266  0.25002301733110954  1.0000
  C   C20       1.0  0.052283697315708366  0.2974249082473506  0.7499768917556082  1.0000
  C   C21       1.0  0.10761443802392255  0.758874638082794  0.21654566217299726  1.0000
  C   C22       1.0  0.8923880752833708  0.24112518555224233  0.7834545243565857  1.0000
  C   C23       1.0  0.08818450884650274  0.7215939191323741  0.1106803857446224  1.0000
  C   C24       1.0  0.9118154645313012  0.27840349397386893  0.8893192910164558  1.0000
  C   C25       1.0  0.9069625891412867  0.6307084831773295  0.03787408350130761  1.0000
  C   C26       1.0  0.09303479968979632  0.36929139542655776  0.9621245054715503  1.0000
  C   C27       1.0  0.7455836930268017  0.5775961439679874  0.07067090498313176  1.0000
  C   C28       1.0  0.2544149784352142  0.42240369240735726  0.9293293885872488  1.0000
  C   C29       1.0  0.967562924867529  0.3287385058908541  0.2259160618656395  1.0000
  C   C30       1.0  0.03243828738791163  0.6712637247353898  0.7740854873065929  1.0000
  C   C31       1.0  0.7866063331283897  0.2290648889986002  0.15767896971123463  1.0000
  C   C32       1.0  0.2133929888595531  0.7709337438811374  0.8423206425378282  1.0000
  C   C33       1.0  0.7559658880673081  0.08552710480486068  0.09802207046607953  1.0000
  C   C34       1.0  0.24403662610392002  0.914472702552274  0.9019788618968436  1.0000
  C   C35       1.0  0.9127958587952987  0.0478953499969492  0.11522939973401951  1.0000
  C   C36       1.0  0.08720728488913929  0.9521056674609485  0.884771681047738  1.0000
  C   C37       1.0  0.090753191540351  0.15537410759539236  0.1838332316604294  1.0000
  C   C38       1.0  0.9092499530080147  0.8446268935846035  0.816168594954668  1.0000
  C   C39       1.0  0.5728350267953887  0.9794511144876454  0.01952076010606162  1.0000
  C   C40       1.0  0.4271668359859717  0.020549912642991296  0.9804801077448461  1.0000
  N   N1        1.0  0.9705275542164243  0.5530017558032371  0.4877118871886453  1.0000
  N   N2        1.0  0.029471788784235228  0.4469944634801378  0.5122868953202655  1.0000
  N   N3        1.0  0.568295838536578  0.4916670769970251  0.9908413982957853  1.0000
  N   N4        1.0  0.43170281018485906  0.5083352055304928  0.009158233348067285  1.0000
  N   N5        1.0  0.1191157762120909  0.2952868251760777  0.237748843730671  1.0000
  N   N6        1.0  0.8808835238992075  0.7047142375779318  0.7622508524252041  1.0000
  O   O1        1.0  0.3002436698923816  0.5993038395125297  0.408150359691895  1.0000
  O   O2        1.0  0.6997582139017027  0.4006947740217369  0.5918496784188606  1.0000
  O   O3        1.0  0.5471475372370519  0.6742882852542423  0.5590136161088708  1.0000
  O   O4        1.0  0.45285495419359023  0.32571396825506593  0.4409866543275243  1.0000
  O   O5        1.0  0.5151894257765972  0.3721085986422921  0.2004140225486779  1.0000
  O   O6        1.0  0.48480729324371197  0.6278948644977689  0.7995875691523368  1.0000
  O   O7        1.0  0.5802998388121522  0.6122660099341175  0.2881739359157507  1.0000
  O   O8        1.0  0.41970002518241495  0.3877435525434692  0.7118261603793883  1.0000
