data_image0
_chemical_formula_structural       Cd2H16C12S2N4O12
_chemical_formula_sum              "Cd2 H16 C12 S2 N4 O12"
_cell_length_a       6.859480617101399
_cell_length_b       8.005771567816096
_cell_length_c       9.220332207157316
_cell_angle_alpha    90.90336526160478
_cell_angle_beta     90.00060421856692
_cell_angle_gamma    89.99987164999442

_space_group_name_H-M_alt    "P 1"
_space_group_IT_number       1

loop_
  _space_group_symop_operation_xyz
  'x, y, z'

loop_
  _atom_site_type_symbol
  _atom_site_label
  _atom_site_symmetry_multiplicity
  _atom_site_fract_x
  _atom_site_fract_y
  _atom_site_fract_z
  _atom_site_occupancy
  Cd  Cd1       1.0  0.36116826156735726  0.17060991457201874  0.17098816868041672  1.0000
  Cd  Cd2       1.0  0.8611617619865796  0.8293870610710029  0.8290142970923995  1.0000
  H   H1        1.0  0.27387973407297744  0.771169807128132  0.20007458237637374  1.0000
  H   H2        1.0  0.7738816789772753  0.22882732838522904  0.7999261079532688  1.0000
  H   H3        1.0  0.24358675102882188  0.907132015894028  0.5557692661637503  1.0000
  H   H4        1.0  0.7435884422790408  0.0928676681012064  0.44423231015198894  1.0000
  H   H5        1.0  0.2546642303399906  0.13191919502093438  0.7397582097543776  1.0000
  H   H6        1.0  0.7546686172031584  0.8680867317635188  0.2602392194931582  1.0000
  H   H7        1.0  0.3158526131568634  0.4318922390565731  0.8064459198726012  1.0000
  H   H8        1.0  0.8158597623785578  0.568113566269247  0.1935552472488453  1.0000
  H   H9        1.0  0.4013326696100563  0.6323075432753454  0.6102871571577353  1.0000
  H   H10       1.0  0.9013226774555958  0.3676918836674332  0.38970916084549867  1.0000
  H   H11       1.0  0.4232335493584997  0.5234540595290083  0.35395171080307364  1.0000
  H   H12       1.0  0.9232224900524242  0.47654032317230116  0.6460468669812442  1.0000
  H   H13       1.0  0.5764236694436276  0.3872730065362973  0.009239461735944596  1.0000
  H   H14       1.0  0.07642300424392087  0.6127244773261395  0.9907607500131094  1.0000
  H   H15       1.0  0.4050025891182684  0.5234874241442781  0.0433391639953342  1.0000
  H   H16       1.0  0.9050031687273613  0.476510726583939  0.9566625849460807  1.0000
  C   C1        1.0  0.3068647881999523  0.1718506757472156  0.5122073122173703  1.0000
  C   C2        1.0  0.8068608027852232  0.828146404979762  0.487792554701528  1.0000
  C   C3        1.0  0.27648940547597783  0.9969032556663818  0.47085102408365037  1.0000
  C   C4        1.0  0.776488145944036  0.003095120357940599  0.5291507920341659  1.0000
  C   C5        1.0  0.29000586084036667  0.22321000570175192  0.6573910421394444  1.0000
  C   C6        1.0  0.7900058073442363  0.7767958416814194  0.3426110048477753  1.0000
  C   C7        1.0  0.3241630015403416  0.39046717896414407  0.6935609150286552  1.0000
  C   C8        1.0  0.8241628766997662  0.609533634953081  0.3064348127808573  1.0000
  C   C9        1.0  0.3731176971126472  0.5014243079098789  0.584782094255992  1.0000
  C   C10       1.0  0.8731091794312105  0.49858014597323563  0.4152195054709368  1.0000
  C   C11       1.0  0.38631602881577  0.44081708679588866  0.4423575802519011  1.0000
  C   C12       1.0  0.8863049743463092  0.5591761125499771  0.5576406846475592  1.0000
  S   S1        1.0  0.8636736459633025  0.16921918244565146  0.0862832305229446  1.0000
  S   S2        1.0  0.3636684188327519  0.8307828020402681  0.9137149996744114  1.0000
  N   N1        1.0  0.3544724694809318  0.2807199083763762  0.4068212088856598  1.0000
  N   N2        1.0  0.8544600382617985  0.7192795777177706  0.5931812451489122  1.0000
  N   N3        1.0  0.2908759098424909  0.9515402399213142  0.3364092178500613  1.0000
  N   N4        1.0  0.7908691257419916  0.048455611935381206  0.663592670840579  1.0000
  O   O1        1.0  0.2619189336247629  0.7854718234041795  0.30936068354249363  1.0000
  O   O2        1.0  0.7619208431925127  0.2145265867863131  0.6906388482516519  1.0000
  O   O3        1.0  0.03834038876490808  0.24763763122535914  0.1533168018959969  1.0000
  O   O4        1.0  0.5383343370421158  0.7523636683569347  0.8466831702973111  1.0000
  O   O5        1.0  0.7950243073179946  0.2826290606451209  0.9650260968840741  1.0000
  O   O6        1.0  0.2950245639410979  0.7173717889538196  0.0349737382559923  1.0000
  O   O7        1.0  0.9117922411811178  0.001953543474222399  0.025454865454499  1.0000
  O   O8        1.0  0.4117888884936106  0.9980470977154139  0.9745458940098004  1.0000
  O   O9        1.0  0.7070284631390179  0.1586162261704658  0.19684476913573692  1.0000
  O   O10       1.0  0.20701874452757346  0.8413835271672807  0.803155433240363  1.0000
  O   O11       1.0  0.44060893384405386  0.4033329939802783  0.0424902966920868  1.0000
  O   O12       1.0  0.9406077548644092  0.5966638480317812  0.957510628960648  1.0000
