data_image0
_chemical_formula_structural       Dy4H24C24S4N4O32
_chemical_formula_sum              "Dy4 H24 C24 S4 N4 O32"
_cell_length_a       7.536109839940476
_cell_length_b       9.32645522344761
_cell_length_c       14.755092763005042
_cell_angle_alpha    89.99991018000807
_cell_angle_beta     89.99998946205629
_cell_angle_gamma    101.37124609243996

_space_group_name_H-M_alt    "P 1"
_space_group_IT_number       1

loop_
  _space_group_symop_operation_xyz
  'x, y, z'

loop_
  _atom_site_type_symbol
  _atom_site_label
  _atom_site_symmetry_multiplicity
  _atom_site_fract_x
  _atom_site_fract_y
  _atom_site_fract_z
  _atom_site_occupancy
  Dy  Dy1       1.0  0.1374729075276022  0.2779195664812023  0.0440273669247162  1.0000
  Dy  Dy2       1.0  0.3625304692656144  0.7220808415122023  0.5440267049041481  1.0000
  Dy  Dy3       1.0  0.8625284422884076  0.7220773950158377  0.9559752958861409  1.0000
  Dy  Dy4       1.0  0.6374744994268436  0.2779259730223628  0.455969858312784  1.0000
  H   H1        1.0  0.1488079691788613  0.046041440381657105  0.4482465595599123  1.0000
  H   H2        1.0  0.351181698402975  0.9539577939356578  0.9482436360952776  1.0000
  H   H3        1.0  0.8511952188048963  0.953957718672605  0.551754070053484  1.0000
  H   H4        1.0  0.6488124382133619  0.046042386825170915  0.0517576712501153  1.0000
  H   H5        1.0  0.10324770562588978  0.12094613371396433  0.288852745208466  1.0000
  H   H6        1.0  0.3967554196442932  0.8790536256525815  0.7888505694988979  1.0000
  H   H7        1.0  0.8967587073791136  0.8790497752530867  0.7111458512100911  1.0000
  H   H8        1.0  0.603244288932963  0.12094768985321018  0.21114938238149256  1.0000
  H   H9        1.0  0.9174226914642959  0.6642575693574957  0.22292130647096542  1.0000
  H   H10       1.0  0.582572258930952  0.3357452608192446  0.7229224066555845  1.0000
  H   H11       1.0  0.08257461271458058  0.3357448192401121  0.7770752567484962  1.0000
  H   H12       1.0  0.4174237158527915  0.664257117497904  0.2770775452244366  1.0000
  H   H13       1.0  0.960282964226664  0.6069603320604317  0.38813954190296585  1.0000
  H   H14       1.0  0.5396983255702351  0.3930354060773312  0.8881392337727547  1.0000
  H   H15       1.0  0.0397061666639189  0.39303544331807677  0.6118597322485256  1.0000
  H   H16       1.0  0.4602939728804427  0.606962577131668  0.1118600403775005  1.0000
  H   H17       1.0  0.2903030512305236  0.3637129706070041  0.22410141438090395  1.0000
  H   H18       1.0  0.20970361996792516  0.6362848038541102  0.7241022061748055  1.0000
  H   H19       1.0  0.7097030499259772  0.6362873026366814  0.7759005706960167  1.0000
  H   H20       1.0  0.7903016605685023  0.3637176463921464  0.2758997789010706  1.0000
  H   H21       1.0  0.46692954608263176  0.3518625483879845  0.16435593917042016  1.0000
  H   H22       1.0  0.0330777527296888  0.6481321137190365  0.6643560571510463  1.0000
  H   H23       1.0  0.5330789594753823  0.6481366517719638  0.8356433349785137  1.0000
  H   H24       1.0  0.9669261984154428  0.3518703262566376  0.33564186153229514  1.0000
  C   C1        1.0  0.09343921625919903  0.9675978843498856  0.3961332521054786  1.0000
  C   C2        1.0  0.40655689744194484  0.032400445774264604  0.8961305571284728  1.0000
  C   C3        1.0  0.9065533940368482  0.032395734574400606  0.6038687329753217  1.0000
  C   C4        1.0  0.5934385685684802  0.9675997452643303  0.1038693947526568  1.0000
  C   C5        1.0  0.06877823227256388  0.005977593626958801  0.3073603117467059  1.0000
  C   C6        1.0  0.43121715201007044  0.9940231486900971  0.8073580193194447  1.0000
  C   C7        1.0  0.9312233719328943  0.9940204615165412  0.6926369292068061  1.0000
  C   C8        1.0  0.568778568386321  0.0059781359859770004  0.19264328802533023  1.0000
  C   C9        1.0  0.008091356944213072  0.897944635359721  0.24268661015047144  1.0000
  C   C10       1.0  0.4918985218205804  0.10205514355558884  0.7426858719505632  1.0000
  C   C11       1.0  0.9919075310147105  0.10205885715313912  0.7573099530683791  1.0000
  C   C12       1.0  0.5080908059958704  0.8979471833808008  0.25731475766188083  1.0000
  C   C13       1.0  0.9646964581103319  0.7518825226609708  0.2710673494274189  1.0000
  C   C14       1.0  0.5352963502692347  0.2481168887686778  0.7710665072344653  1.0000
  C   C15       1.0  0.03530540048178209  0.24811662612180643  0.7289298915255389  1.0000
  C   C16       1.0  0.4646951275613772  0.7518832714428997  0.2289327669147596  1.0000
  C   C17       1.0  0.9882244460891696  0.7171689466983012  0.3607774081236458  1.0000
  C   C18       1.0  0.5117680157392215  0.2828291334184954  0.8607765336934038  1.0000
  C   C19       1.0  0.011765759808497483  0.282825745317801  0.6392211882962331  1.0000
  C   C20       1.0  0.4882282708912768  0.7171688806175283  0.13922341818876302  1.0000
  C   C21       1.0  0.9970910769453523  0.9390438711801752  0.1450680476154673  1.0000
  C   C22       1.0  0.5029034446597648  0.060956977978420916  0.6450694265271866  1.0000
  C   C23       1.0  0.0029145154409704016  0.06095421479304262  0.8549278378736533  1.0000
  C   C24       1.0  0.4970887963290735  0.9390464631464897  0.3549332362808784  1.0000
  S   S1        1.0  0.8154357565170542  0.4007910626653128  0.0942343478610397  1.0000
  S   S2        1.0  0.6845689436845674  0.599207816094271  0.5942392449298242  1.0000
  S   S3        1.0  0.1845669226937403  0.5992059091112979  0.9057656040213616  1.0000
  S   S4        1.0  0.3154365912388641  0.4007957277921578  0.4057620624133946  1.0000
  N   N1        1.0  0.05798766141937509  0.824326674530582  0.42087190160319216  1.0000
  N   N2        1.0  0.44201216065985693  0.17567052724098892  0.9208690618399517  1.0000
  N   N3        1.0  0.9420027988639035  0.17566911112210454  0.5791287280124353  1.0000
  N   N4        1.0  0.5579907729376002  0.8243275381748917  0.0791308900418954  1.0000
  O   O1        1.0  0.046500746070030595  0.0734566042761031  0.1246491271443944  1.0000
  O   O2        1.0  0.45349236406355686  0.9265511531177285  0.6246448662604962  1.0000
  O   O3        1.0  0.9534869979681131  0.9265446187495245  0.8753481138081656  1.0000
  O   O4        1.0  0.5465024782543964  0.0734577664858094  0.37535305242004574  1.0000
  O   O5        1.0  0.9403732640135942  0.8378877838965053  0.0890054231089579  1.0000
  O   O6        1.0  0.5596178932427164  0.16210991232573957  0.5890039860632399  1.0000
  O   O7        1.0  0.059619658130259295  0.16210147074934872  0.9109945287776854  1.0000
  O   O8        1.0  0.4403706714151525  0.8378891336964145  0.4109939326224606  1.0000
  O   O9        1.0  0.0956804658166277  0.7885992669202725  0.5043075163944053  1.0000
  O   O10       1.0  0.40432668557737356  0.21140018349547066  0.0043055096326512  1.0000
  O   O11       1.0  0.9043221559344089  0.21140316277763566  0.4956917577531997  1.0000
  O   O12       1.0  0.5956876463261266  0.7886012450433242  0.9956964754433316  1.0000
  O   O13       1.0  0.0046275439351929955  0.4458202319494049  0.1298410505401577  1.0000
  O   O14       1.0  0.49538049603340534  0.5541832604307118  0.6298466423476585  1.0000
  O   O15       1.0  0.9953772278268715  0.554180031015612  0.8701629677331156  1.0000
  O   O16       1.0  0.5046292239943211  0.44582686583702713  0.3701594091168232  1.0000
  O   O17       1.0  0.822115871810432  0.27704489139502203  0.0305350464161549  1.0000
  O   O18       1.0  0.6778920613924198  0.7229563639544666  0.5305418549263764  1.0000
  O   O19       1.0  0.17789294559434407  0.7229499444838012  0.9694642277349247  1.0000
  O   O20       1.0  0.32211030597161266  0.27704497210326906  0.46945809695387913  1.0000
  O   O21       1.0  0.757429703080895  0.5230020275270062  0.045313553859735116  1.0000
  O   O22       1.0  0.7425729548297112  0.47699368965516703  0.5453124670340588  1.0000
  O   O23       1.0  0.24257246735449908  0.47699275696566457  0.9546904644163661  1.0000
  O   O24       1.0  0.257435296340951  0.5230044168637137  0.4546881625796361  1.0000
  O   O25       1.0  0.6894683560205619  0.35583484594153  0.1709936355428781  1.0000
  O   O26       1.0  0.8105363227814164  0.644158371534374  0.6709991547498506  1.0000
  O   O27       1.0  0.3105338144162245  0.6441599385547364  0.8290076718048243  1.0000
  O   O28       1.0  0.1894636401814509  0.3558440376079944  0.3290028303262815  1.0000
  O   O29       1.0  0.3359108613368988  0.3562852407739499  0.161399675363441  1.0000
  O   O30       1.0  0.1640966374387816  0.6437159807240392  0.6614004638488211  1.0000
  O   O31       1.0  0.6640909972534672  0.6437139080043365  0.838600954250019  1.0000
  O   O32       1.0  0.8359107356517084  0.35628976071781443  0.338600165761136  1.0000
