data_image0
_chemical_formula_structural       Cd4H4C8S4N12
_chemical_formula_sum              "Cd4 H4 C8 S4 N12"
_cell_length_a       6.025751216243002
_cell_length_b       6.700508382729064
_cell_length_c       11.382622042089764
_cell_angle_alpha    90.00039558244622
_cell_angle_beta     89.9999605356919
_cell_angle_gamma    112.44909876724826

_space_group_name_H-M_alt    "P 1"
_space_group_IT_number       1

loop_
  _space_group_symop_operation_xyz
  'x, y, z'

loop_
  _atom_site_type_symbol
  _atom_site_label
  _atom_site_symmetry_multiplicity
  _atom_site_fract_x
  _atom_site_fract_y
  _atom_site_fract_z
  _atom_site_occupancy
  Cd  Cd1       1.0  0.2517500280159339  0.74488156349436  0.389198126922821  1.0000
  Cd  Cd2       1.0  0.7482515867772149  0.7551233152326874  0.8891989716021627  1.0000
  Cd  Cd3       1.0  0.748250463695193  0.25513138807454533  0.6108026556965527  1.0000
  Cd  Cd4       1.0  0.2517495738853057  0.24487987004265926  0.1108044465966316  1.0000
  H   H1        1.0  0.848167730047841  0.5398862590061029  0.16064677987564827  1.0000
  H   H2        1.0  0.15181526769013934  0.9601010097557392  0.6606377147896083  1.0000
  H   H3        1.0  0.15181450090294388  0.4600928389742052  0.8393619094724158  1.0000
  H   H4        1.0  0.8481752477266012  0.03988933766945729  0.3393613107247191  1.0000
  C   C1        1.0  0.764213470923046  0.46802378272824535  0.2427006757674164  1.0000
  C   C2        1.0  0.235791585559312  0.0319697731163018  0.7427085617955739  1.0000
  C   C3        1.0  0.23578247858798546  0.5319713558060994  0.7572869288371605  1.0000
  C   C4        1.0  0.7642140300049076  0.9680284633633746  0.257301884652442  1.0000
  C   C5        1.0  0.5081819427757281  0.2813266587768481  0.3712287094009241  1.0000
  C   C6        1.0  0.4918277640853502  0.21867841925436687  0.8712293864514321  1.0000
  C   C7        1.0  0.4918338720423349  0.7186909262962118  0.6287676805667815  1.0000
  C   C8        1.0  0.5081771388737832  0.7813182025818006  0.12877227467166819  1.0000
  S   S1        1.0  0.25233491802858765  0.11556180391069397  0.44258278284887337  1.0000
  S   S2        1.0  0.7476761991227788  0.38445077727449467  0.9425788126152881  1.0000
  S   S3        1.0  0.7476726559644005  0.884455912591832  0.5574206353760474  1.0000
  S   S4        1.0  0.2523240259547066  0.6155540488073399  0.0574175773287209  1.0000
  N   N1        1.0  0.7179820507444532  0.3817840449206571  0.42730122036702767  1.0000
  N   N2        1.0  0.28202853223280044  0.11822344811171348  0.9272988753988187  1.0000
  N   N3        1.0  0.2820290425728658  0.6182303636303175  0.5727074690455396  1.0000
  N   N4        1.0  0.7179724054382318  0.8817829925571912  0.0726983930802945  1.0000
  N   N5        1.0  0.5320601772955698  0.3323980546099889  0.25421885449323156  1.0000
  N   N6        1.0  0.46793502376875307  0.16759582327917147  0.7542219832608765  1.0000
  N   N7        1.0  0.467933634429677  0.6675922401380701  0.7457626003772261  1.0000
  N   N8        1.0  0.5320618613375668  0.8323976744988425  0.24577967785609897  1.0000
  N   N9        1.0  0.8815701939663967  0.5005422131234026  0.34447342640928713  1.0000
  N   N10       1.0  0.11843881863064343  0.9994602811671099  0.8444706448356597  1.0000
  N   N11       1.0  0.11842740372835439  0.4994528992165996  0.6555255991139929  1.0000
  N   N12       1.0  0.881565817698693  0.0005282152008092947  0.1555292592086843  1.0000
