data_image0
_chemical_formula_structural       La2H14C16O18
_chemical_formula_sum              "La2 H14 C16 O18"
_cell_length_a       7.147353192952328
_cell_length_b       8.132544791000202
_cell_length_c       9.382625706225571
_cell_angle_alpha    67.70031997916695
_cell_angle_beta     86.35250114307964
_cell_angle_gamma    83.61786091984239

_space_group_name_H-M_alt    "P 1"
_space_group_IT_number       1

loop_
  _space_group_symop_operation_xyz
  'x, y, z'

loop_
  _atom_site_type_symbol
  _atom_site_label
  _atom_site_symmetry_multiplicity
  _atom_site_fract_x
  _atom_site_fract_y
  _atom_site_fract_z
  _atom_site_occupancy
  La  La1       1.0  0.24687207826211482  0.5090703820770343  0.8614686240587589  1.0000
  La  La2       1.0  0.7531276974263647  0.49092925711705243  0.1385318595432281  1.0000
  H   H1        1.0  0.32288881371122347  0.5943772175352818  0.3621531819057325  1.0000
  H   H2        1.0  0.6771109619772486  0.4056224216588048  0.6378473016962476  1.0000
  H   H3        1.0  0.3605690514719484  0.944154005068384  0.08535358049059036  1.0000
  H   H4        1.0  0.6394307207421333  0.05584562468696669  0.914645840616302  1.0000
  H   H5        1.0  0.2526870002291801  0.9594915866478358  0.39896059355567814  1.0000
  H   H6        1.0  0.7473141739998255  0.040508042476005784  0.6010387564634883  1.0000
  H   H7        1.0  0.9592635655699268  0.8321247302038373  0.24898061154945583  1.0000
  H   H8        1.0  0.040737612133483495  0.16787490835874047  0.7510198009647909  1.0000
  H   H9        1.0  0.5842409226442838  0.7270253840692361  0.7782400778847035  1.0000
  H   H10       1.0  0.4157588495697978  0.2729742456861217  0.2217593432221889  1.0000
  H   H11       1.0  0.4306767049843143  0.864441188456645  0.6773940113107814  1.0000
  H   H12       1.0  0.5693230672297602  0.13555844129871278  0.3226054097961182  1.0000
  H   H13       1.0  0.7641699327118443  0.8130822221523601  0.4512146014279709  1.0000
  H   H14       1.0  0.23583124499155864  0.1869174164102105  0.548785811086276  1.0000
  C   C1        1.0  0.23278546250873688  0.6288101155322465  0.14172936168210273  1.0000
  C   C2        1.0  0.7672143131797423  0.3711895236618473  0.8582711219198842  1.0000
  C   C3        1.0  0.5581600072393655  0.8408216033409345  0.2668881210070283  1.0000
  C   C4        1.0  0.4418396398415395  0.15917938022271733  0.7331129849012185  1.0000
  C   C5        1.0  0.11690689860211727  0.14550729764148676  0.1991655927004885  1.0000
  C   C6        1.0  0.8830928770863623  0.8544923415525999  0.8008348909014913  1.0000
  C   C7        1.0  0.03123468771345732  0.7072655323688436  0.48964223195096696  1.0000
  C   C8        1.0  0.968765087975022  0.292734106825243  0.5103582516510131  1.0000
  C   C9        1.0  0.25345797821331917  0.7023116722866901  0.2641633221646488  1.0000
  C   C10       1.0  0.7465417940007555  0.2976879574686676  0.7358360989422508  1.0000
  C   C11       1.0  0.35866307581096635  0.8747691483739928  0.21126321509745347  1.0000
  C   C12       1.0  0.6413366998775131  0.1252304908200941  0.7887372685045335  1.0000
  C   C13       1.0  0.20238476641002728  0.9581990793083718  0.29099300090023666  1.0000
  C   C14       1.0  0.7976150058040544  0.04180055044698611  0.7090064202066628  1.0000
  C   C15       1.0  0.0829675032299306  0.7972102559964468  0.32145288088923973  1.0000
  C   C16       1.0  0.9170322689841511  0.2027893737589039  0.6785465402176598  1.0000
  O   O1        1.0  0.38343702424553067  0.5995338666660784  0.06971169322802247  1.0000
  O   O2        1.0  0.6165627479685437  0.40046576308927934  0.9302877278788771  1.0000
  O   O3        1.0  0.2338035702784893  0.2519569461715037  0.1121740536608158  1.0000
  O   O4        1.0  0.766196205409983  0.7480426930225831  0.887826429941164  1.0000
  O   O5        1.0  0.6703324566015636  0.7349544371683476  0.22442940303218967  1.0000
  O   O6        1.0  0.3296671835305459  0.2650465275178462  0.7755695778858892  1.0000
  O   O7        1.0  0.9435325185205911  0.18611288831897346  0.214825214350931  1.0000
  O   O8        1.0  0.0564672606422789  0.8138867603138492  0.7851763317461363  1.0000
  O   O9        1.0  0.47150394789434097  0.7344259469887361  0.7187981962585326  1.0000
  O   O10       1.0  0.5284958243197406  0.26557368276662163  0.2812012248483668  1.0000
  O   O11       1.0  0.15387951919340273  0.6130679097719138  0.5825440431931527  1.0000
  O   O12       1.0  0.8461202530206788  0.38693171998343695  0.4174553779137469  1.0000
  O   O13       1.0  0.07337103820767511  0.5990391904160787  0.10897455838762228  1.0000
  O   O14       1.0  0.9266287374808043  0.40096044877800807  0.8910259252143646  1.0000
  O   O15       1.0  0.605258801960936  0.9126128369684848  0.3570000093852386  1.0000
  O   O16       1.0  0.3947409737275436  0.08738680222560188  0.6430004742167413  1.0000
  O   O17       1.0  0.859573448058164  0.7351531069558844  0.5384172377918119  1.0000
  O   O18       1.0  0.14042619207394577  0.26484785773030234  0.461581743126267  1.0000
