data_image0
_chemical_formula_structural       AlH15C27O6
_chemical_formula_sum              "Al1 H15 C27 O6"
_cell_length_a       3.989604836292919
_cell_length_b       16.028985470331786
_cell_length_c       16.029661048137676
_cell_angle_alpha    119.87150880967728
_cell_angle_beta     90.98852190963434
_cell_angle_gamma    90.98942614923662

_space_group_name_H-M_alt    "P 1"
_space_group_IT_number       1

loop_
  _space_group_symop_operation_xyz
  'x, y, z'

loop_
  _atom_site_type_symbol
  _atom_site_label
  _atom_site_symmetry_multiplicity
  _atom_site_fract_x
  _atom_site_fract_y
  _atom_site_fract_z
  _atom_site_occupancy
  Al  Al1       1.0  3.3716330200700116e-05  0.500166043405308  0.49974297992616795  1.0000
  H   H1        1.0  0.5000675520954019  0.9226018523174561  0.07727788218257091  1.0000
  H   H2        1.0  0.4759655841263424  0.6546850067149708  0.0773398419712592  1.0000
  H   H3        1.0  0.5238643417726222  0.9225410276241917  0.34517228569873726  1.0000
  H   H4        1.0  0.7514156118785138  0.23603983470568582  0.2515141484689494  1.0000
  H   H5        1.0  0.7669751234744525  0.05861196051225902  0.16379413732190068  1.0000
  H   H6        1.0  0.22447611146375124  0.05110447484810981  0.3902182947204693  1.0000
  H   H7        1.0  0.21984755470352013  0.2287909943597768  0.47963297286856477  1.0000
  H   H8        1.0  0.2330985715489433  0.8361042404528406  0.941275473920491  1.0000
  H   H9        1.0  0.24882823994034456  0.7483822945451667  0.7638701156498016  1.0000
  H   H10       1.0  0.7799358807061979  0.5201836369034042  0.7711236145320156  1.0000
  H   H11       1.0  0.7752814312078016  0.6096179431665902  0.9487898499142556  1.0000
  H   H12       1.0  0.7627148713394192  0.6074830951715597  0.16250434509631612  1.0000
  H   H13       1.0  0.7674120044193485  0.5192061267602169  0.2529519230797205  1.0000
  H   H14       1.0  0.23251487561228862  0.7470119590396679  0.48073291130165774  1.0000
  H   H15       1.0  0.2370955635905716  0.8374671782930039  0.3924519680675686  1.0000
  C   C1        1.0  0.5138943733842182  0.5741442825680211  0.6483703729971992  1.0000
  C   C2        1.0  0.5000039417426337  0.5740798670239613  0.4258685682024888  1.0000
  C   C3        1.0  0.48619242577268557  0.35154766320911085  0.425748302667081  1.0000
  C   C4        1.0  0.49952107537624363  0.7824844581889752  0.0649649708241781  1.0000
  C   C5        1.0  0.5000724497337998  0.8833228245886743  0.11655764465942287  1.0000
  C   C6        1.0  0.5004750220734877  0.9349218233642421  0.21738245808730747  1.0000
  C   C7        1.0  0.5058224666985041  0.8832882294795398  0.2667680697759493  1.0000
  C   C8        1.0  0.4998850089653216  0.7823761457940036  0.21750155450408204  1.0000
  C   C9        1.0  0.49400948891852886  0.7330920920941683  0.11659859212379332  1.0000
  C   C10       1.0  0.6330452263632651  0.19529414160053454  0.2814108860995005  1.0000
  C   C11       1.0  0.6393420328373765  0.09524507110174342  0.23195623701277407  1.0000
  C   C12       1.0  0.49685479437906827  0.04123377300107481  0.2702821213603102  1.0000
  C   C13       1.0  0.3474061272288936  0.09128061287156443  0.3603286190178849  1.0000
  C   C14       1.0  0.34194004342625567  0.19133751757170364  0.4106146705635965  1.0000
  C   C15       1.0  0.4848980006268349  0.24388296190563352  0.37126732553879543  1.0000
  C   C16       1.0  0.3607713547219548  0.7679380525317118  0.9046566926321515  1.0000
  C   C17       1.0  0.36713426702454655  0.7184787171678128  0.8046283503316259  1.0000
  C   C18       1.0  0.5151522552253384  0.6286012806202167  0.7560235014385197  1.0000
  C   C19       1.0  0.6579446791263877  0.5892344764041015  0.8085701147831017  1.0000
  C   C20       1.0  0.6525049540048614  0.6395201049754323  0.9086140228036824  1.0000
  C   C21       1.0  0.5031327690042601  0.7295922836654329  0.9586642500384313  1.0000
  C   C22       1.0  0.6431980543212602  0.6380977443424952  0.2318756826301678  1.0000
  C   C23       1.0  0.6481763114383482  0.5885327126511303  0.2824123497903486  1.0000
  C   C24       1.0  0.5000341187955613  0.6275363276945713  0.3724374745450376  1.0000
  C   C25       1.0  0.35177399474825694  0.7175592420622012  0.4114243775177541  1.0000
  C   C26       1.0  0.35669350818664475  0.7680847990376166  0.3618422630901178  1.0000
  C   C27       1.0  0.4998920401692643  0.729175572642099  0.2707716421188876  1.0000
  O   O1        1.0  0.24923207021363677  0.3928771357020154  0.4076434109480686  1.0000
  O   O2        1.0  0.2732152025656092  0.5132212727302347  0.6055100683324851  1.0000
  O   O3        1.0  0.27139900375907905  0.5923489968440949  0.487125466255172  1.0000
  O   O4        1.0  0.7268730558405139  0.39437745092332943  0.48664975115649156  1.0000
  O   O5        1.0  0.7286195018648983  0.5127853837282289  0.4075643608139997  1.0000
  O   O6        1.0  0.7508601591101965  0.5922636468666413  0.6070495183503083  1.0000
