data_image0
_chemical_formula_structural       Cu2H12C10N6O6
_chemical_formula_sum              "Cu2 H12 C10 N6 O6"
_cell_length_a       6.420462094156459
_cell_length_b       7.188873289535802
_cell_length_c       8.552768740028435
_cell_angle_alpha    90.62948997294124
_cell_angle_beta     100.77283562249487
_cell_angle_gamma    101.7648190001218

_space_group_name_H-M_alt    "P 1"
_space_group_IT_number       1

loop_
  _space_group_symop_operation_xyz
  'x, y, z'

loop_
  _atom_site_type_symbol
  _atom_site_label
  _atom_site_symmetry_multiplicity
  _atom_site_fract_x
  _atom_site_fract_y
  _atom_site_fract_z
  _atom_site_occupancy
  Cu  Cu1       1.0  0.5000051625177163  0.50000486529742  0.5000033638483503  1.0000
  Cu  Cu2       1.0  2.0681241679029683e-06  0.4999904327766346  0.499999211547113  1.0000
  H   H1        1.0  0.14843539628211735  0.9874182805322036  0.8132418535259094  1.0000
  H   H2        1.0  0.8515581477183501  0.01258150836942919  0.1867508167619363  1.0000
  H   H3        1.0  0.7268048583775909  0.7690049899517675  0.9592578402952371  1.0000
  H   H4        1.0  0.2731871421724108  0.2309935795975591  0.0407309716139892  1.0000
  H   H5        1.0  0.9789777186944518  0.643421472541938  0.1298888105239229  1.0000
  H   H6        1.0  0.02103004205751086  0.356578918458446  0.870108732221013  1.0000
  H   H7        1.0  0.11602939486940757  0.44892805434764665  0.1614055642865821  1.0000
  H   H8        1.0  0.8839669609103495  0.5510715299600334  0.8385922801081379  1.0000
  H   H9        1.0  0.26427629724777546  0.6792470023813592  0.12656988721845153  1.0000
  H   H10       1.0  0.7357325761917011  0.32075300080238367  0.8734336946468915  1.0000
  H   H11       1.0  0.19187847208355172  0.7840638640710436  0.3703470687535956  1.0000
  H   H12       1.0  0.8081129579289622  0.21592911546191113  0.629658927257353  1.0000
  C   C1        1.0  0.3589583935710863  0.7164024536883034  0.7378752898714822  1.0000
  C   C2        1.0  0.6410390929766763  0.28359438502382517  0.26212259892630396  1.0000
  C   C3        1.0  0.4303174004673878  0.8625933070408109  0.8738064742798032  1.0000
  C   C4        1.0  0.569670868870169  0.13740338406741162  0.126185097709282  1.0000
  C   C5        1.0  0.30134621069732487  0.9928597071301934  0.8957776972832151  1.0000
  C   C6        1.0  0.6986406527505833  0.007137086275008587  0.10421128765243273  1.0000
  C   C7        1.0  0.6286656795021628  0.8709259762739449  0.9783931977431166  1.0000
  C   C8        1.0  0.3713213794138284  0.1290710074777053  0.02159348581455591  1.0000
  C   C9        1.0  0.13212831501846978  0.6020880223433736  0.1809032005283129  1.0000
  C   C10       1.0  0.8678739176952207  0.3979102118199975  0.8190991179990095  1.0000
  N   N1        1.0  0.26872677983804033  0.28803032762308317  0.5446783197089575  1.0000
  N   N2        1.0  0.731274700842853  0.7119819938396359  0.4553234831404183  1.0000
  N   N3        1.0  0.22400061306605318  0.1461968576092758  0.459792425396266  1.0000
  N   N4        1.0  0.7760131138187275  0.8538191814648144  0.5402269837222209  1.0000
  N   N5        1.0  0.17458233191310774  0.00871530300251069  0.3756358425881673  1.0000
  N   N6        1.0  0.8254301090042658  0.9912763503217973  0.624387840510856  1.0000
  O   O1        1.0  0.5026167700769901  0.6336366977173  0.70294831475848  1.0000
  O   O2        1.0  0.49738866535216897  0.3663617125450074  0.2970545751197591  1.0000
  O   O3        1.0  0.15993616704325578  0.6885191963504625  0.6681448309116507  1.0000
  O   O4        1.0  0.8400620774168387  0.31147215829433605  0.33185171032781824  1.0000
  O   O5        1.0  0.18514623968424357  0.6435560590527415  0.3506805232555337  1.0000
  O   O6        1.0  0.8148474179170361  0.3564388060450624  0.6493212763110989  1.0000
