data_image0
_chemical_formula_structural       Zn2H48C20N8Cl4
_chemical_formula_sum              "Zn2 H48 C20 N8 Cl4"
_cell_length_a       6.040482379865722
_cell_length_b       7.52282349674993
_cell_length_c       18.412335243730308
_cell_angle_alpha    96.74293822600151
_cell_angle_beta     89.99401629870472
_cell_angle_gamma    113.66260566225205

_space_group_name_H-M_alt    "P 1"
_space_group_IT_number       1

loop_
  _space_group_symop_operation_xyz
  'x, y, z'

loop_
  _atom_site_type_symbol
  _atom_site_label
  _atom_site_symmetry_multiplicity
  _atom_site_fract_x
  _atom_site_fract_y
  _atom_site_fract_z
  _atom_site_occupancy
  Zn  Zn1       1.0  0.8306773145594734  0.00010503248712009989  0.7500241744638032  1.0000
  Zn  Zn2       1.0  0.1693289714540285  0.9998918311201876  0.2499799215864087  1.0000
  H   H1        1.0  0.816511089540292  0.24619071206328869  0.44005949683737816  1.0000
  H   H2        1.0  0.5697980464401339  0.7536357140927163  0.0600764129409157  1.0000
  H   H3        1.0  0.18346673028796798  0.7538220605125474  0.559933379230209  1.0000
  H   H4        1.0  0.43021060895691215  0.2463493295835946  0.9399200814542468  1.0000
  H   H5        1.0  0.13647382356296592  0.3353172393746462  0.7174346766307167  1.0000
  H   H6        1.0  0.8010221512883505  0.6647948497639788  0.7826380830979289  1.0000
  H   H7        1.0  0.8635601130674643  0.6646885758017261  0.2825806910394206  1.0000
  H   H8        1.0  0.19898411401000254  0.33521521907688606  0.21736878985150546  1.0000
  H   H9        1.0  0.2815464270673189  0.23713951950243478  0.7627257059261296  1.0000
  H   H10       1.0  0.04437651090725583  0.7628546422845162  0.737369950763572  1.0000
  H   H11       1.0  0.7184759368085453  0.7628265855708918  0.23727535260383087  1.0000
  H   H12       1.0  0.9556118294387729  0.23712619449292296  0.2626377570953409  1.0000
  H   H13       1.0  0.6924930554744009  0.5151067934697267  0.47716013518000017  1.0000
  H   H14       1.0  0.17729726212215982  0.48440076585610836  0.022839795265049607  1.0000
  H   H15       1.0  0.30749889824181753  0.4849176939398133  0.5228338199098204  1.0000
  H   H16       1.0  0.8227149135078876  0.5155813854002672  0.9771587391663913  1.0000
  H   H17       1.0  0.46209053133659955  0.20579439133521052  0.520377228370954  1.0000
  H   H18       1.0  0.2559707831917494  0.7941484276446716  0.9797362776749311  1.0000
  H   H19       1.0  0.537888295136824  0.7942402628953431  0.47961230421095274  1.0000
  H   H20       1.0  0.7440390693193778  0.2058323902587986  0.020270342631548  1.0000
  H   H21       1.0  0.2622730051590665  0.010168446696610498  0.6547209220667511  1.0000
  H   H22       1.0  0.25172638592290036  0.9898629853947724  0.8454431889454808  1.0000
  H   H23       1.0  0.7377561758000653  0.9898444087480767  0.3452773879769637  1.0000
  H   H24       1.0  0.7482726234352911  0.010132571193850004  0.1545706236576905  1.0000
  H   H25       1.0  0.6170557547234737  0.101086700683588  0.5716384542011994  1.0000
  H   H26       1.0  0.5155274922505768  0.8990158854093977  0.9285357782718221  1.0000
  H   H27       1.0  0.3829173860819139  0.8989332680094648  0.4283471475976199  1.0000
  H   H28       1.0  0.4844780999555026  0.1009663442506437  0.0714676479961938  1.0000
  H   H29       1.0  0.49595075021251495  0.4450634529567806  0.6361442398777511  1.0000
  H   H30       1.0  0.050610756536002596  0.5549318432329216  0.8640099455829215  1.0000
  H   H31       1.0  0.5040370703699536  0.554949457432599  0.3638573322711309  1.0000
  H   H32       1.0  0.9494108045462682  0.4450591483527901  0.1359927951439559  1.0000
  H   H33       1.0  0.12406510153977729  0.1330378693049354  0.6064451874012562  1.0000
  H   H34       1.0  0.9905638545224988  0.8668949543054582  0.8936396316202462  1.0000
  H   H35       1.0  0.8759154838176785  0.8669473235986443  0.3935605475021333  1.0000
  H   H36       1.0  0.009413161904241504  0.13306985516290132  0.10637168788962008  1.0000
  H   H37       1.0  0.7427269027872397  0.6252864644975419  0.5704797248714897  1.0000
  H   H38       1.0  0.1176349092371112  0.3746508969840505  0.929475279303901  1.0000
  H   H39       1.0  0.2572610212740614  0.3747365857796154  0.42951579389436734  1.0000
  H   H40       1.0  0.8823654860076929  0.6253341819243587  0.0705233893679278  1.0000
  H   H41       1.0  0.6311233048378924  0.3183442019280919  0.6835193030095752  1.0000
  H   H42       1.0  0.3125431489391489  0.6816297078116947  0.8166279311061969  1.0000
  H   H43       1.0  0.36889203377979385  0.6816641430989706  0.3164711971446934  1.0000
  H   H44       1.0  0.6874600270426826  0.3183642465383585  0.1833771180982993  1.0000
  H   H45       1.0  0.9554098158500538  0.16762836689804314  0.5077898202473605  1.0000
  H   H46       1.0  0.7873377634650114  0.8325923956890122  0.9923707886640045  1.0000
  H   H47       1.0  0.044574399910573104  0.8324005112707271  0.492204335966413  1.0000
  H   H48       1.0  0.21267346273408086  0.1673911670843466  0.0076245516500961  1.0000
  C   C1        1.0  0.5979242871205628  0.23857061607337468  0.5663977173474778  1.0000
  C   C2        1.0  0.35905495765383216  0.7614912685917614  0.9337326316278336  1.0000
  C   C3        1.0  0.4020635779013729  0.7614655615128783  0.43359568663878173  1.0000
  C   C4        1.0  0.6409529880549627  0.23850560355402453  0.0662720079028105  1.0000
  C   C5        1.0  0.8164505544036446  0.5564247948373692  0.5266334133616866  1.0000
  C   C6        1.0  0.26010552532262926  0.44341245065187007  0.9733381009731303  1.0000
  C   C7        1.0  0.18353696371458034  0.4436040657752542  0.473359655733482  1.0000
  C   C8        1.0  0.7399042462818316  0.5565682027444225  0.026658192455826703  1.0000
  C   C9        1.0  0.2546769767585674  0.1524411289574559  0.6513447953973354  1.0000
  C   C10       1.0  0.10198405778591296  0.8475175830794017  0.8487757644730038  1.0000
  C   C11       1.0  0.745321327874464  0.847562948323237  0.3486531135027207  1.0000
  C   C12       1.0  0.8980248245791103  0.1524778515745879  0.1512304386153644  1.0000
  C   C13       1.0  0.5046310026753602  0.3021409362763308  0.6374707244383515  1.0000
  C   C14       1.0  0.20218746518474967  0.6978309598369705  0.86267312862455  1.0000
  C   C15       1.0  0.49535679235763297  0.697871922163415  0.36252758659130535  1.0000
  C   C16       1.0  0.7978249246385333  0.30216155642227  0.1373334839404876  1.0000
  C   C17       1.0  0.9370610246164973  0.29652504320938533  0.49050113823999203  1.0000
  C   C18       1.0  0.6402499859985655  0.7035608177924646  0.009617744573269204  1.0000
  C   C19       1.0  0.06291931549092313  0.7034993930891317  0.5094895560066703  1.0000
  C   C20       1.0  0.35976511585372617  0.2964271868511403  0.9903810577079498  1.0000
  N   N1        1.0  0.15634755595404223  0.20726170683254713  0.7202457602828503  1.0000
  N   N2        1.0  0.9490055218377407  0.7927801402551822  0.7798480408703838  1.0000
  N   N3        1.0  0.843677328777062  0.7927293104883901  0.27975861092475907  1.0000
  N   N4        1.0  0.05094962757976872  0.20719060232188724  0.2201684387596501  1.0000
  N   N5        1.0  0.833541010733626  0.3819134770318157  0.5494179727712093  1.0000
  N   N6        1.0  0.4515512056734394  0.6182148304063801  0.9506733834458672  1.0000
  N   N7        1.0  0.1664429871515978  0.618118276000736  0.45057305628767347  1.0000
  N   N8        1.0  0.5484568770040781  0.3817790023684466  0.0493240563621384  1.0000
  Cl  Cl1       1.0  0.5270970658635575  0.8102258927921255  0.6685305650226852  1.0000
  Cl  Cl2       1.0  0.7166045365424553  0.1898662100582129  0.8314877476198317  1.0000
  Cl  Cl3       1.0  0.4729242268204387  0.18978111828301536  0.3314680208094387  1.0000
  Cl  Cl4       1.0  0.28338826680805346  0.8101334860799341  0.1685105039916337  1.0000
