data_image0
_chemical_formula_structural       Zn4Co2H28C24O32
_chemical_formula_sum              "Zn4 Co2 H28 C24 O32"
_cell_length_a       6.100288209919689
_cell_length_b       9.402113307540645
_cell_length_c       15.111782787520804
_cell_angle_alpha    89.99966679487507
_cell_angle_beta     89.99915499412221
_cell_angle_gamma    102.97761775724304

_space_group_name_H-M_alt    "P 1"
_space_group_IT_number       1

loop_
  _space_group_symop_operation_xyz
  'x, y, z'

loop_
  _atom_site_type_symbol
  _atom_site_label
  _atom_site_symmetry_multiplicity
  _atom_site_fract_x
  _atom_site_fract_y
  _atom_site_fract_z
  _atom_site_occupancy
  Zn  Zn1       1.0  0.5942947793756872  0.8488997682384323  0.09167595341454421  1.0000
  Zn  Zn2       1.0  0.4057028634047414  0.6510941318364021  0.5916814647567888  1.0000
  Zn  Zn3       1.0  0.4057094574190998  0.15110348915914784  0.9083247621664866  1.0000
  Zn  Zn4       1.0  0.594300244481076  0.3489058511456023  0.4083205743047174  1.0000
  Co  Co1       1.0  3.3934213448643432e-06  0.5000007998625763  0.9999988406938414  1.0000
  Co  Co2       1.0  0.999996080758834  0.9999970356224995  0.5000001460960206  1.0000
  H   H1        1.0  0.16607830145620292  0.8320841624622093  0.06758684286183582  1.0000
  H   H2        1.0  0.833920545599895  0.6679155418804754  0.5675876434548996  1.0000
  H   H3        1.0  0.833922279827313  0.16791800148813965  0.9324138727326883  1.0000
  H   H4        1.0  0.16608218600496372  0.3320833496376352  0.4324137338746112  1.0000
  H   H5        1.0  0.28566133113008624  0.0010622488519729  0.0779508664060913  1.0000
  H   H6        1.0  0.7143444469005189  0.4989354835219473  0.5779504572499334  1.0000
  H   H7        1.0  0.714343416417151  0.9989377351384195  0.9220485257091511  1.0000
  H   H8        1.0  0.28565462920627743  0.5010623145537069  0.42205025835777826  1.0000
  H   H9        1.0  0.3156444635952981  0.43905337120609306  0.2391228288476412  1.0000
  H   H10       1.0  0.684322836320412  0.060944196781150595  0.7391216670515206  1.0000
  H   H11       1.0  0.6843539674065298  0.5609520651908256  0.7608752398060047  1.0000
  H   H12       1.0  0.3156757290471576  0.9390568747064664  0.2608797102866873  1.0000
  H   H13       1.0  0.48049729622817966  0.36790294328648804  0.16342126159274525  1.0000
  H   H14       1.0  0.5194903110732696  0.13209354592696343  0.6634135672160683  1.0000
  H   H15       1.0  0.5195003821324208  0.6321003101539732  0.836579454008664  1.0000
  H   H16       1.0  0.48050825428108385  0.8679075255558787  0.3365884718574321  1.0000
  H   H17       1.0  0.2071956940210669  0.1539830321197968  0.22138855391649057  1.0000
  H   H18       1.0  0.7927903501579224  0.3460148028983028  0.7213816363733585  1.0000
  H   H19       1.0  0.7928045109947066  0.8460180403714335  0.7786108382107386  1.0000
  H   H20       1.0  0.20721842918154468  0.6539873660032286  0.2786184174604003  1.0000
  H   H21       1.0  0.996980428941356  0.2367628892074194  0.2625074940962193  1.0000
  H   H22       1.0  0.0029959088769544195  0.26322998212252463  0.7625064670391737  1.0000
  H   H23       1.0  0.0030214156565265458  0.7632381842635354  0.7374932214964999  1.0000
  H   H24       1.0  0.997006446460162  0.7367678179364675  0.23749358682304936  1.0000
  H   H25       1.0  0.8986546535348412  0.4277380156654972  0.1790632685045424  1.0000
  H   H26       1.0  0.10133977418698241  0.07225606960633972  0.6790636987908981  1.0000
  H   H27       1.0  0.10134353561785768  0.5722619643821149  0.8209341384252014  1.0000
  H   H28       1.0  0.8986593019594695  0.9277417284836532  0.3209350316109294  1.0000
  C   C1        1.0  0.3984212770757765  0.5653553631192381  0.12163254781879118  1.0000
  C   C2        1.0  0.601573018767283  0.9346413768094664  0.6216324281062385  1.0000
  C   C3        1.0  0.6015805675485383  0.43464571036127353  0.8783668443033504  1.0000
  C   C4        1.0  0.3984259228680359  0.06536078613726912  0.3783702726992573  1.0000
  C   C5        1.0  0.3362816752622352  0.41975135693703447  0.16825558472511656  1.0000
  C   C6        1.0  0.6637000674102894  0.0802428765237693  0.6682524906094116  1.0000
  C   C7        1.0  0.6637181534593566  0.5802486240855274  0.8317438074054166  1.0000
  C   C8        1.0  0.3362948424460088  0.9197571015166166  0.3317488867422753  1.0000
  C   C9        1.0  0.12240529305122294  0.31418461255764646  0.1336232148273879  1.0000
  C   C10       1.0  0.8775823756524873  0.185809032539396  0.633620365707671  1.0000
  C   C11       1.0  0.8775936486501836  0.6858175504129778  0.8663761773016391  1.0000
  C   C12       1.0  0.12241506087219996  0.8141887645565333  0.3663790264345436  1.0000
  C   C13       1.0  0.17165740241244984  0.25564913979670223  0.0424274501460644  1.0000
  C   C14       1.0  0.8283471336919562  0.24435565144047908  0.5424253403697605  1.0000
  C   C15       1.0  0.8283419155566989  0.7443541146330404  0.9575732654502573  1.0000
  C   C16       1.0  0.1716394436633309  0.7556486865293622  0.4575773604698909  1.0000
  C   C17       1.0  0.05574710117154073  0.19158327850836093  0.2021053228297731  1.0000
  C   C18       1.0  0.9442396058591884  0.3084050137283469  0.7021009198462096  1.0000
  C   C19       1.0  0.9442534801384072  0.8084188854515377  0.7978940692941592  1.0000
  C   C20       1.0  0.05576640498919973  0.6915938797778834  0.2978991340025345  1.0000
  C   C21       1.0  0.8788794236539701  0.05936113167891931  0.17507643129001585  1.0000
  C   C22       1.0  0.12112096918581026  0.44063083218978255  0.6750766257186029  1.0000
  C   C23       1.0  0.12112153395015934  0.9406421237496546  0.8249229608306196  1.0000
  C   C24       1.0  0.8788880790834243  0.559362606964811  0.3249201194548732  1.0000
  O   O1        1.0  0.5380661274047612  0.6669837268128305  0.1620851178436027  1.0000
  O   O2        1.0  0.46191999396710787  0.8330124249591152  0.6620862618879143  1.0000
  O   O3        1.0  0.46193117468809664  0.3330184351685119  0.8379142742905258  1.0000
  O   O4        1.0  0.5380761791506856  0.16698646258276284  0.3379177624031442  1.0000
  O   O5        1.0  0.3173434105932246  0.5864923488857132  0.04669917739180109  1.0000
  O   O6        1.0  0.6826470783173947  0.9135000128370976  0.5467039303729352  1.0000
  O   O7        1.0  0.6826609607523582  0.4135065436694633  0.9532955825796988  1.0000
  O   O8        1.0  0.317343799693795  0.08649778027304221  0.4532994322014119  1.0000
  O   O9        1.0  0.08614103720293542  0.29919138864864436  0.9736797669069972  1.0000
  O   O10       1.0  0.9138776655422447  0.20081264987093317  0.473676818367565  1.0000
  O   O11       1.0  0.9138615600097424  0.700811867769211  0.0263196252085436  1.0000
  O   O12       1.0  0.08611447590227078  0.7991840528028221  0.5263205885873603  1.0000
  O   O13       1.0  0.30959099922925765  0.17167623103633645  0.0386149284504  1.0000
  O   O14       1.0  0.6904207584210981  0.3283253458288868  0.5386087158641288  1.0000
  O   O15       1.0  0.6904121086697829  0.8283237519504496  0.961386448875821  1.0000
  O   O16       1.0  0.30958323651135095  0.6716724552146119  0.4613919997282991  1.0000
  O   O17       1.0  0.7982432595938463  0.05130551422616491  0.09648372024253858  1.0000
  O   O18       1.0  0.201758391563736  0.44868212733717877  0.5964767650216556  1.0000
  O   O19       1.0  0.20175100513103683  0.9487021021259212  0.9035163336256744  1.0000
  O   O20       1.0  0.7982579676090824  0.5513134986688756  0.4035259357424863  1.0000
  O   O21       1.0  0.8155282756169344  0.9554752422041802  0.22937489374448458  1.0000
  O   O22       1.0  0.18446854351560668  0.5445112160057732  0.7293689602243488  1.0000
  O   O23       1.0  0.18447571936837903  0.044522558858432114  0.7706231749067738  1.0000
  O   O24       1.0  0.8155356932395322  0.45549204137747534  0.27063374056255907  1.0000
  O   O25       1.0  0.9450431397013193  0.38966463979587473  0.1197187776466464  1.0000
  O   O26       1.0  0.054945595145298426  0.11032593266841674  0.6197180241726059  1.0000
  O   O27       1.0  0.05495504945137957  0.6103353402517372  0.8802786292830973  1.0000
  O   O28       1.0  0.9450514650852144  0.8896707729588442  0.38028136797291273  1.0000
  O   O29       1.0  0.28671594700843894  0.9009802396896096  0.0994270509100872  1.0000
  O   O30       1.0  0.7132813861760781  0.5990135484658765  0.5994301930143918  1.0000
  O   O31       1.0  0.7132855213217015  0.09901974232223411  0.9005723412153445  1.0000
  O   O32       1.0  0.2867188188264791  0.40098752402057874  0.40056986084813667  1.0000
