data_image0
_chemical_formula_structural       Hg2H36C36S4N16
_chemical_formula_sum              "Hg2 H36 C36 S4 N16"
_cell_length_a       8.191961855852671
_cell_length_b       11.475947803341015
_cell_length_c       11.475947299877877
_cell_angle_alpha    112.0134472039165
_cell_angle_beta     89.15212226951677
_cell_angle_gamma    89.15192719629025

_space_group_name_H-M_alt    "P 1"
_space_group_IT_number       1

loop_
  _space_group_symop_operation_xyz
  'x, y, z'

loop_
  _atom_site_type_symbol
  _atom_site_label
  _atom_site_symmetry_multiplicity
  _atom_site_fract_x
  _atom_site_fract_y
  _atom_site_fract_z
  _atom_site_occupancy
  Hg  Hg1       1.0  0.7499987394275037  0.03568539403988779  0.9643095506025786  1.0000
  Hg  Hg2       1.0  0.2500014637484539  0.9643114569461417  0.03568585932280383  1.0000
  H   H1        1.0  0.31251768804670377  0.6419617489649667  0.840267250531511  1.0000
  H   H2        1.0  0.18748029879698438  0.15973871494915667  0.3580354999930435  1.0000
  H   H3        1.0  0.6874884500363477  0.35803528576357724  0.15974127373724656  1.0000
  H   H4        1.0  0.8125172375931909  0.8402732813784866  0.6419697137931593  1.0000
  H   H5        1.0  0.14823481761176532  0.6371535685412367  0.6585843231068081  1.0000
  H   H6        1.0  0.351761892688863  0.34142234855551823  0.3628465957515274  1.0000
  H   H7        1.0  0.8517700049629366  0.36285193780934577  0.3414272467181689  1.0000
  H   H8        1.0  0.648238050865693  0.6585887485868226  0.6371617714769329  1.0000
  H   H9        1.0  0.9459240913849384  0.4615039833224373  0.5697344569700178  1.0000
  H   H10       1.0  0.5540764323991069  0.4302672599173931  0.5384962997979983  1.0000
  H   H11       1.0  0.05408202291089029  0.5385041828992597  0.4302702179317562  1.0000
  H   H12       1.0  0.44592598129952415  0.5697372985619751  0.4615131968869193  1.0000
  H   H13       1.0  0.9145971777216243  0.30744140674924136  0.6763517747145897  1.0000
  H   H14       1.0  0.5854037354763122  0.32364331719958983  0.6925526402367481  1.0000
  H   H15       1.0  0.08540906681282928  0.6925600981584309  0.32364615146008896  1.0000
  H   H16       1.0  0.4145975970629009  0.6763527289301123  0.3074503201187325  1.0000
  H   H17       1.0  0.3872784671269115  0.2588094362530455  0.026786711461475862  1.0000
  H   H18       1.0  0.11272058894484616  0.9732088922628395  0.7411855745951499  1.0000
  H   H19       1.0  0.612720469600383  0.7411874926772837  0.9732122179696745  1.0000
  H   H20       1.0  0.8872771503044202  0.026788939831931202  0.2588110692982966  1.0000
  H   H21       1.0  0.38743596505565847  0.34501550081816384  0.9257416427389913  1.0000
  H   H22       1.0  0.1125576450459604  0.07425401812718489  0.6549784655736914  1.0000
  H   H23       1.0  0.6125630040173317  0.6549795319015885  0.0742557345481671  1.0000
  H   H24       1.0  0.8874364424393448  0.9257438347995546  0.34501732957023984  1.0000
  H   H25       1.0  0.2760121196888646  0.535886625550326  0.10422185493109735  1.0000
  H   H26       1.0  0.22398628447718483  0.895774392778016  0.464109275836634  1.0000
  H   H27       1.0  0.7239856527619322  0.4641102338621295  0.8957726966672509  1.0000
  H   H28       1.0  0.7760150855428021  0.10422529831066639  0.5358888914682538  1.0000
  H   H29       1.0  0.4666116115455877  0.4818518889754201  0.13960698365355734  1.0000
  H   H30       1.0  0.03338740612598909  0.8603869919545487  0.5181429016072059  1.0000
  H   H31       1.0  0.5333861399119826  0.518146850262923  0.8603882426067244  1.0000
  H   H32       1.0  0.9666152609766597  0.139608877922754  0.481851274350106  1.0000
  H   H33       1.0  0.2823273475353928  0.44850881906668855  0.2048464564701006  1.0000
  H   H34       1.0  0.2176723847202239  0.7951497864968929  0.5514859534204603  1.0000
  H   H35       1.0  0.7176703812172532  0.5514899529410257  0.7951505247543125  1.0000
  H   H36       1.0  0.7823290185013076  0.20484893190947429  0.44851012158932957  1.0000
  C   C1        1.0  0.22256925165697783  0.5690615968893198  0.8013076551274666  1.0000
  C   C2        1.0  0.27742919983353426  0.19869406096928793  0.4309340949940363  1.0000
  C   C3        1.0  0.7774394079709307  0.43093529833532784  0.19869470761180708  1.0000
  C   C4        1.0  0.7225683461974127  0.8013160719171566  0.5690713216122986  1.0000
  C   C5        1.0  0.13147818698784866  0.5653444585554794  0.6982064481304491  1.0000
  C   C6        1.0  0.3685208071572034  0.30179912710258344  0.4346548970582731  1.0000
  C   C7        1.0  0.8685254477495902  0.43466008751833835  0.30180303897694927  1.0000
  C   C8        1.0  0.6314815986123535  0.6982091418745069  0.5653533165043142  1.0000
  C   C9        1.0  0.01962731822468559  0.4691101781509274  0.6504903688834105  1.0000
  C   C10       1.0  0.4803714378362613  0.34950981928081154  0.5308870931842833  1.0000
  C   C11       1.0  0.9803763741309124  0.5308952095277278  0.3495141906625605  1.0000
  C   C12       1.0  0.519630989782378  0.650497493398646  0.46911990556527167  1.0000
  C   C13       1.0  0.001345863627662398  0.38323713632155443  0.7083722113125717  1.0000
  C   C14       1.0  0.4986547236137539  0.2916253556463744  0.6167586944122547  1.0000
  C   C15       1.0  0.9986604010441694  0.6167615652319681  0.2916255803512726  1.0000
  C   C16       1.0  0.5013428924701131  0.7083745037364438  0.3832465214817091  1.0000
  C   C17       1.0  0.095585367199746  0.39710702274501847  0.8138981456197739  1.0000
  C   C18       1.0  0.4044103968829943  0.18609885424112346  0.6028879371374387  1.0000
  C   C19       1.0  0.9044160124610128  0.602890804902465  0.18610022450524605  1.0000
  C   C20       1.0  0.5955835813569194  0.8139037801737531  0.39711393207165463  1.0000
  C   C21       1.0  0.0656611524950748  0.31387745976788745  0.8817353131762431  1.0000
  C   C22       1.0  0.43433712332590346  0.11826143641206953  0.6861178078567391  1.0000
  C   C23       1.0  0.934343944476879  0.6861174781547347  0.11826026125918782  1.0000
  C   C24       1.0  0.5656568759072371  0.8817393181769263  0.31388338669042065  1.0000
  C   C25       1.0  0.07279045980656208  0.21853601206357345  0.015784898597978266  1.0000
  C   C26       1.0  0.42720763848936366  0.9842139594822684  0.7814587421699457  1.0000
  C   C27       1.0  0.927209741657698  0.7814589918659465  0.9842115916295952  1.0000
  C   C28       1.0  0.5727888578720125  0.015784841315678505  0.2185391261140524  1.0000
  C   C29       1.0  0.3279390551459257  0.33637674492060643  0.008045618242604663  1.0000
  C   C30       1.0  0.17205851710369294  0.991949729252397  0.6636167133215878  1.0000
  C   C31       1.0  0.6720611358217211  0.6636191989218503  0.9919512093159355  1.0000
  C   C32       1.0  0.82793679142042  0.0080481112687849  0.3363790722448314  1.0000
  C   C33       1.0  0.33761929620320064  0.4585145677388596  0.12147648416239315  1.0000
  C   C34       1.0  0.16237891946582286  0.8785192359129752  0.5414808489271721  1.0000
  C   C35       1.0  0.6623784535426792  0.5414823244429597  0.8785198224000864  1.0000
  C   C36       1.0  0.8376212618610522  0.12147857137068739  0.4585157758112359  1.0000
  S   S1        1.0  0.12557897788011013  0.1780700772849713  0.1403958991611844  1.0000
  S   S2        1.0  0.37441834055191947  0.8596024716598051  0.8219262735880404  1.0000
  S   S3        1.0  0.8744163402847676  0.821925899795019  0.859600089225367  1.0000
  S   S4        1.0  0.6255818634798798  0.1403953028544862  0.1780685961862432  1.0000
  N   N1        1.0  0.20638837713237015  0.4878314400567093  0.8591332978870341  1.0000
  N   N2        1.0  0.2936107210647803  0.14086686184927538  0.5121635349181517  1.0000
  N   N3        1.0  0.793616651724811  0.5121635961740196  0.14086754144079086  1.0000
  N   N4        1.0  0.7063856799712125  0.8591394746368974  0.4878379094956386  1.0000
  N   N5        1.0  0.9301587008297786  0.24770175991847757  0.8667700904721444  1.0000
  N   N6        1.0  0.5698373663015414  0.1332271152361955  0.752293427767981  1.0000
  N   N7        1.0  0.06984276708313791  0.7522931660667496  0.13322288024965442  1.0000
  N   N8        1.0  0.4301578539704066  0.8667736269472428  0.24770775720165966  1.0000
  N   N9        1.0  0.934888101261805  0.18911756202615493  0.9497753035844526  1.0000
  N   N10       1.0  0.5651049286910207  0.05022442567120321  0.810879977217212  1.0000
  N   N11       1.0  0.06510965983653699  0.8108793137709895  0.05022012549596152  1.0000
  N   N12       1.0  0.43489030293338965  0.9497763001275528  0.18912033027036998  1.0000
  N   N13       1.0  0.1599184978057693  0.29683694422170254  0.9728466361943475  1.0000
  N   N14       1.0  0.34007811883763134  0.027150042161288496  0.7031578444505584  1.0000
  N   N15       1.0  0.8400817150109532  0.7031580433231354  0.027148976551167322  1.0000
  N   N16       1.0  0.6599171451324749  0.9728487874268977  0.2968409108930245  1.0000
