data_image0
_chemical_formula_structural       CdH18C22N8O8
_chemical_formula_sum              "Cd1 H18 C22 N8 O8"
_cell_length_a       7.799866895128644
_cell_length_b       8.25563478630989
_cell_length_c       9.913806678957323
_cell_angle_alpha    93.5274734328862
_cell_angle_beta     97.36410421502524
_cell_angle_gamma    112.67027057785654

_space_group_name_H-M_alt    "P 1"
_space_group_IT_number       1

loop_
  _space_group_symop_operation_xyz
  'x, y, z'

loop_
  _atom_site_type_symbol
  _atom_site_label
  _atom_site_symmetry_multiplicity
  _atom_site_fract_x
  _atom_site_fract_y
  _atom_site_fract_z
  _atom_site_occupancy
  Cd  Cd1       1.0  0.5000004422370382  0.4999993060924695  0.9999997734622782  1.0000
  H   H1        1.0  0.5178789249111446  0.12665097311284515  0.8632135490703021  1.0000
  H   H2        1.0  0.4821196935587866  0.8733492145567116  0.1367861754341391  1.0000
  H   H3        1.0  0.4091591159373495  0.9272260041238527  0.6403497494243098  1.0000
  H   H4        1.0  0.5908389470179003  0.07277286108414673  0.359649851346191  1.0000
  H   H5        1.0  0.2634590241273642  0.020749965283137307  0.43751043595625566  1.0000
  H   H6        1.0  0.736541999898144  0.9792528716230823  0.5624896735021778  1.0000
  H   H7        1.0  0.3613087881013472  0.5038269135817475  0.6870315459131434  1.0000
  H   H8        1.0  0.638692419421027  0.4961732827148851  0.31296845356352077  1.0000
  H   H9        1.0  0.17384490336131364  0.22622626088924147  0.3457227074360603  1.0000
  H   H10       1.0  0.8261550096348318  0.7737739310938566  0.6542771545544923  1.0000
  H   H11       1.0  0.8995829883922825  0.18205069071949254  0.2576085270461306  1.0000
  H   H12       1.0  0.10041618559232303  0.8179508194116284  0.742391321192251  1.0000
  H   H13       1.0  0.6554218930548716  0.20083561276496914  0.08182267329304692  1.0000
  H   H14       1.0  0.34457820343814677  0.799161938608542  0.9181770787157361  1.0000
  H   H15       1.0  0.9331523261527507  0.7463445926567405  0.10479616704735407  1.0000
  H   H16       1.0  0.06684831725393543  0.2536542812072184  0.8952047165013681  1.0000
  H   H17       1.0  0.1814642191573412  0.7512939843417996  0.29038239822637024  1.0000
  H   H18       1.0  0.8185351297231167  0.2487048852086247  0.7096183478362477  1.0000
  C   C1        1.0  0.45612429747792055  0.16429160870838905  0.772128597953305  1.0000
  C   C2        1.0  0.5438756155182249  0.8357085832747091  0.22787126403724764  1.0000
  C   C3        1.0  0.39597719383696983  0.05395115773628591  0.648185489522902  1.0000
  C   C4        1.0  0.6040227191591756  0.9460490342468121  0.35181437246765057  1.0000
  C   C5        1.0  0.3149105818452684  0.1055564331994319  0.5351230492173968  1.0000
  C   C6        1.0  0.6850906428791248  0.8944437630394334  0.4648749346472556  1.0000
  C   C7        1.0  0.3003097158598962  0.27017367266914505  0.5466846791152804  1.0000
  C   C8        1.0  0.6996894667257226  0.7298278374330923  0.4533141613170955  1.0000
  C   C9        1.0  0.3672080450797851  0.3746944322235351  0.6744497332538231  1.0000
  C   C10       1.0  0.6327931624425888  0.6253057640731045  0.32555026622284083  1.0000
  C   C11       1.0  0.19088231447573648  0.4718024226681125  0.41864078360471524  1.0000
  C   C12       1.0  0.8091170258037156  0.5281964469111955  0.5813609702639085  1.0000
  C   C13       1.0  0.060318734436933155  0.46709271202778535  0.2916499087261784  1.0000
  C   C14       1.0  0.9396824644844274  0.5329074842977377  0.7083510985564843  1.0000
  C   C15       1.0  0.9141017012603643  0.3104602417214721  0.22742209418976964  1.0000
  C   C16       1.0  0.0859008093892443  0.6895399588598183  0.7725770349669928  1.0000
  C   C17       1.0  0.776801790374492  0.31956303705224803  0.1276908403787402  1.0000
  C   C18       1.0  0.2231994257488951  0.680437159215508  0.8723081512919107  1.0000
  C   C19       1.0  0.9301422206847935  0.6235532365148587  0.14116187034224484  1.0000
  C   C20       1.0  0.06985713679667789  0.3764456330066751  0.8588378679143673  1.0000
  C   C21       1.0  0.06963346698123024  0.6260415118530533  0.24457452825053846  1.0000
  C   C22       1.0  0.9303658818992349  0.3739573576973712  0.7554262178120794  1.0000
  N   N1        1.0  0.4396183881800085  0.3203714383555152  0.7845061291512323  1.0000
  N   N2        1.0  0.5603815334171574  0.6796287535986923  0.21549272503331451  1.0000
  N   N3        1.0  0.21457464034048004  0.3173366700572586  0.4322840230915403  1.0000
  N   N4        1.0  0.7854273061934409  0.6826622080913581  0.5677159901372946  1.0000
  N   N5        1.0  0.7819729018065474  0.47339292955884826  0.08658670115913479  1.0000
  N   N6        1.0  0.21802701118959802  0.5266072624242498  0.9134131608314178  1.0000
  N   N7        1.0  0.2569575964810654  0.125519447586143  0.1301765133260631  1.0000
  N   N8        1.0  0.7430423165150873  0.8744807443969552  0.8698233486644895  1.0000
  O   O1        1.0  0.26085606521343874  0.6051849654963563  0.5046135555585138  1.0000
  O   O2        1.0  0.7391438477827139  0.3948152264867417  0.4953863064320387  1.0000
  O   O3        1.0  0.3138830627867578  0.2945449587190794  0.1398644547699277  1.0000
  O   O4        1.0  0.6861155556831733  0.705455228950477  0.8601352697345135  1.0000
  O   O5        1.0  0.1461988645071131  0.0447702823275904  0.2101791713033094  1.0000
  O   O6        1.0  0.8537991984481367  0.9552285828804088  0.7898204294671984  1.0000
  O   O7        1.0  0.309820366445635  0.04384185873014702  0.045244681389263505  1.0000
  O   O8        1.0  0.6901795465505176  0.9561583332529511  0.954755180601289  1.0000
