data_image0
_chemical_formula_structural       La4H40C20O32
_chemical_formula_sum              "La4 H40 C20 O32"
_cell_length_a       8.930097494030269
_cell_length_b       8.930168488523227
_cell_length_c       14.897341649014953
_cell_angle_alpha    105.85445007061467
_cell_angle_beta     105.85437753875833
_cell_angle_gamma    95.1447554297742

_space_group_name_H-M_alt    "P 1"
_space_group_IT_number       1

loop_
  _space_group_symop_operation_xyz
  'x, y, z'

loop_
  _atom_site_type_symbol
  _atom_site_label
  _atom_site_symmetry_multiplicity
  _atom_site_fract_x
  _atom_site_fract_y
  _atom_site_fract_z
  _atom_site_occupancy
  La  La1       1.0  0.246935194023024  0.496945246230936  0.9938947862525819  1.0000
  La  La2       1.0  0.0030592057579922846  0.2530611879666509  0.5061024433952566  1.0000
  La  La3       1.0  0.7530626763068045  0.5030552618474785  0.006110078848301756  1.0000
  La  La4       1.0  0.9969465387323667  0.7469440774923584  0.49389712597661617  1.0000
  H   H1        1.0  0.4570893451096865  0.8892173137205858  0.8484032296302926  1.0000
  H   H2        1.0  0.8914855368627813  0.9590591433357504  0.848519602342584  1.0000
  H   H3        1.0  0.5409391381101827  0.6085247028319074  0.6514838704657391  1.0000
  H   H4        1.0  0.6107788378743706  0.0429102264807568  0.6516001049604012  1.0000
  H   H5        1.0  0.5429046014767495  0.1107808289982799  0.15160193831055574  1.0000
  H   H6        1.0  0.1085169879117203  0.0409413540799761  0.15148603045084025  1.0000
  H   H7        1.0  0.45905824845758053  0.391479398417303  0.348514124741861  1.0000
  H   H8        1.0  0.3892251050716099  0.9570914930354136  0.34839858038134247  1.0000
  H   H9        1.0  0.6239730729815562  0.7886762610541708  0.8703002095042646  1.0000
  H   H10       1.0  0.7465024709484852  0.0815284214707717  0.870357239111655  1.0000
  H   H11       1.0  0.4184715411708666  0.753504744103104  0.629643860746057  1.0000
  H   H12       1.0  0.7113252997392794  0.8760304301065318  0.6297027925419342  1.0000
  H   H13       1.0  0.376021522969701  0.2113254416995503  0.12970364052252847  1.0000
  H   H14       1.0  0.2535019633806145  0.9184697124921682  0.12964697610934184  1.0000
  H   H15       1.0  0.5815267925531276  0.24649816780214448  0.3703547656893561  1.0000
  H   H16       1.0  0.2886811830734431  0.12397246694779797  0.3702965073484065  1.0000
  H   H17       1.0  0.6021466299844674  0.9447314871806607  0.9655673369688454  1.0000
  H   H18       1.0  0.8635543531251458  0.0208284283873041  0.9656428447131942  1.0000
  H   H19       1.0  0.47918408611719343  0.6364584897775529  0.5343617473756551  1.0000
  H   H20       1.0  0.5552658816031554  0.8978554374256972  0.534436261838813  1.0000
  H   H21       1.0  0.3978477533223811  0.05526903270355629  0.034436282355621003  1.0000
  H   H22       1.0  0.13644955552599916  0.9791732568498189  0.034361870691661495  1.0000
  H   H23       1.0  0.5208185966389962  0.36354915322626613  0.46563703762445374  1.0000
  H   H24       1.0  0.4447405973990258  0.10214745581984631  0.4655637080585392  1.0000
  H   H25       1.0  0.5403478624046941  0.7151777768854827  0.16412453441003547  1.0000
  H   H26       1.0  0.12375212958757231  0.4494476645256284  0.1642545874313227  1.0000
  H   H27       1.0  0.05055196108219919  0.3762490352908897  0.3357487834272986  1.0000
  H   H28       1.0  0.7848163325528716  0.9596507275540275  0.33587377748424513  1.0000
  H   H29       1.0  0.45965404729982146  0.28481919477442824  0.8358763862343108  1.0000
  H   H30       1.0  0.8762425667528363  0.5505481212149022  0.8357483010069584  1.0000
  H   H31       1.0  0.949444149619147  0.6237479687413057  0.6642478275663135  1.0000
  H   H32       1.0  0.21518877781480944  0.040350993105249686  0.6641244297736151  1.0000
  H   H33       1.0  0.4078870060709079  0.7416597997220006  0.21604035885358278  1.0000
  H   H34       1.0  0.30812585501175965  0.47455208442883645  0.2162564601864004  1.0000
  H   H35       1.0  0.025444041014154102  0.19187868287974646  0.2837373266580413  1.0000
  H   H36       1.0  0.758331141745053  0.09210769058886828  0.2839572073125252  1.0000
  H   H37       1.0  0.5921193378128039  0.25833597078815257  0.7839624387950008  1.0000
  H   H38       1.0  0.6918685435372397  0.5254484506905185  0.7837444791100123  1.0000
  H   H39       1.0  0.9745493209865828  0.808115964553565  0.7162577690776286  1.0000
  H   H40       1.0  0.2416674008128084  0.9078964003771046  0.7160423198322261  1.0000
  C   C1        1.0  0.4448712881036911  0.7300769516144429  0.9330240703397477  1.0000
  C   C2        1.0  0.9884137176633135  0.20295299264859068  0.9332091017572136  1.0000
  C   C3        1.0  0.2970480410746816  0.5115964481940409  0.5667871678316557  1.0000
  C   C4        1.0  0.7699147593704511  0.0551245592947538  0.5669730631534263  1.0000
  C   C5        1.0  0.555126168368929  0.26992120215131615  0.0669783233354337  1.0000
  C   C6        1.0  0.011584708828763671  0.797043994625909  0.06678990310370377  1.0000
  C   C7        1.0  0.7029530604026063  0.4884088393540082  0.43320962382663436  1.0000
  C   C8        1.0  0.2300811272548771  0.9448712504415792  0.4330253271589013  1.0000
  C   C9        1.0  0.5364575297773015  0.8435707724525655  0.900823600536256  1.0000
  C   C10       1.0  0.864553584576129  0.05717376478911258  0.9009240786194039  1.0000
  C   C11       1.0  0.44282948492271157  0.635458190869066  0.5990761569898806  1.0000
  C   C12       1.0  0.6564307494502728  0.9635442464073308  0.5991785860980412  1.0000
  C   C13       1.0  0.4635370661739558  0.15643093030115549  0.09918024949054428  1.0000
  C   C14       1.0  0.13544736654053927  0.942824384788416  0.09907822081817125  1.0000
  C   C15       1.0  0.5571722506772474  0.3645506414787079  0.400921996782415  1.0000
  C   C16       1.0  0.34357711723908585  0.03645983846838869  0.40081979640373777  1.0000
  C   C17       1.0  0.0669323529563997  0.4330390996143478  0.7499868384564718  1.0000
  C   C18       1.0  0.1833830902069522  0.31660933230143223  0.7499854854486399  1.0000
  C   C19       1.0  0.9330466941368983  0.5669472703933564  0.2500092212575068  1.0000
  C   C20       1.0  0.8166200368907256  0.6834006954853037  0.2500104109210709  1.0000
  O   O1        1.0  0.3046928950908097  0.740591496141995  0.9332321916248529  1.0000
  O   O2        1.0  0.12884608196976188  0.19268680048609346  0.9335115716212952  1.0000
  O   O3        1.0  0.30731170967084864  0.3711618335689905  0.5664776627966572  1.0000
  O   O4        1.0  0.7594002116073855  0.19529836440627685  0.5667576265735759  1.0000
  O   O5        1.0  0.6953011938006812  0.2594007714602923  0.06676464465033402  1.0000
  O   O6        1.0  0.8711547839998985  0.807317281339749  0.06648900937674532  1.0000
  O   O7        1.0  0.6926843158834899  0.6288411027115257  0.43351722975742024  1.0000
  O   O8        1.0  0.24060344073377143  0.8046951066367427  0.4332336057118764  1.0000
  O   O9        1.0  0.5125436114326263  0.6220755317154383  0.9621468259853853  1.0000
  O   O10       1.0  0.9498133927780615  0.3400830516832442  0.9622847663245505  1.0000
  O   O11       1.0  0.15992095900528372  0.5501915303172709  0.5377106397648459  1.0000
  O   O12       1.0  0.8779325931077793  0.9874537821004093  0.5378629066045304  1.0000
  O   O13       1.0  0.48745159196754895  0.37792968917652553  0.037863076204501994  1.0000
  O   O14       1.0  0.05018290008339219  0.6599151047481866  0.03771743542749556  1.0000
  O   O15       1.0  0.8400834473348625  0.44981259302573307  0.4622818069114273  1.0000
  O   O16       1.0  0.12208294022345001  0.012547865053640795  0.46214573805270465  1.0000
  O   O17       1.0  0.04244733608219779  0.4944955717418225  0.8306698921124889  1.0000
  O   O18       1.0  0.28831519835814134  0.33557627816206553  0.8307638824215003  1.0000
  O   O19       1.0  0.1644243191644392  0.2116850351798902  0.6692405202670385  1.0000
  O   O20       1.0  0.005505433565815589  0.45753956704353266  0.669328095433208  1.0000
  O   O21       1.0  0.9575506498789254  0.5054990345585325  0.16933133137182207  1.0000
  O   O22       1.0  0.7116788791017399  0.6644159780138706  0.16923496387472164  1.0000
  O   O23       1.0  0.8355834861218554  0.7883059832857667  0.3307644184465416  1.0000
  O   O24       1.0  0.9945034882900077  0.5424574190926065  0.330668616693849  1.0000
  O   O25       1.0  0.4254080175763662  0.7237358664709389  0.15266926144560233  1.0000
  O   O26       1.0  0.22723229586647165  0.42942990351209437  0.15282404398763555  1.0000
  O   O27       1.0  0.0705657903931396  0.2727621791203915  0.3471714013956983  1.0000
  O   O28       1.0  0.7762623439758657  0.07459054695993929  0.3473267527153537  1.0000
  O   O29       1.0  0.5745954810281191  0.2762634682623072  0.8473323125265393  1.0000
  O   O30       1.0  0.7727646387387281  0.5705718053366338  0.8471781798643927  1.0000
  O   O31       1.0  0.9294287428398393  0.7272324732648201  0.6528225462490835  1.0000
  O   O32       1.0  0.22374328825924286  0.9254076186163757  0.6526716243656663  1.0000
