data_image0
_chemical_formula_structural       Hg4H32C36N12Cl4O8
_chemical_formula_sum              "Hg4 H32 C36 N12 Cl4 O8"
_cell_length_a       7.094660444000509
_cell_length_b       10.083316231002055
_cell_length_c       14.983163411002499
_cell_angle_alpha    89.99993696847434
_cell_angle_beta     90.00002188983046
_cell_angle_gamma    89.99996312773871

_space_group_name_H-M_alt    "P 1"
_space_group_IT_number       1

loop_
  _space_group_symop_operation_xyz
  'x, y, z'

loop_
  _atom_site_type_symbol
  _atom_site_label
  _atom_site_symmetry_multiplicity
  _atom_site_fract_x
  _atom_site_fract_y
  _atom_site_fract_z
  _atom_site_occupancy
  Hg  Hg1       1.0  0.44647066035604865  0.7536060875413501  0.0585101021939067  1.0000
  Hg  Hg2       1.0  0.05352909532218321  0.24639267884129634  0.5585108078710094  1.0000
  Hg  Hg3       1.0  0.9464709775842337  0.7463953260332803  0.9414899093144555  1.0000
  Hg  Hg4       1.0  0.5535304245099296  0.2536055648391625  0.4414895024487677  1.0000
  H   H1        1.0  0.5947090841834212  0.8434897125070153  0.6250219577447993  1.0000
  H   H2        1.0  0.9052920704341715  0.15651070128438255  0.1250216887290065  1.0000
  H   H3        1.0  0.09470346460869189  0.6565069027161671  0.3749786555855081  1.0000
  H   H4        1.0  0.4052923100141186  0.34349134901182055  0.8749773523529996  1.0000
  H   H5        1.0  0.5753197507768705  0.9407346340512819  0.4724139599204733  1.0000
  H   H6        1.0  0.9246816754993644  0.05926719826812393  0.9724135392309137  1.0000
  H   H7        1.0  0.0753199769374007  0.5592629817454906  0.5275866497943582  1.0000
  H   H8        1.0  0.4246825735799504  0.440734843190093  0.027585505466845496  1.0000
  H   H9        1.0  0.5481345295298539  0.7989629382221609  0.338753984876071  1.0000
  H   H10       1.0  0.9518653827134216  0.20104010319952442  0.8387534637532639  1.0000
  H   H11       1.0  0.04813755042413699  0.7010346899645301  0.6612472871854322  1.0000
  H   H12       1.0  0.4518651046155142  0.2989629176052306  0.1612462534289349  1.0000
  H   H13       1.0  0.5381144345828375  0.5525489587191147  0.3512060522160567  1.0000
  H   H14       1.0  0.9618854873981134  0.44745406245198904  0.8512060170040172  1.0000
  H   H15       1.0  0.038112993321988094  0.9474496657740804  0.6487938831445489  1.0000
  H   H16       1.0  0.46188542344702194  0.052547962048855416  0.1487930346312822  1.0000
  H   H17       1.0  0.7028666078398942  0.6662185456413284  0.745231628424925  1.0000
  H   H18       1.0  0.7971360502922594  0.3337816726582475  0.24523187473672436  1.0000
  H   H19       1.0  0.2028649617285865  0.8337809954952109  0.25476767024184  1.0000
  H   H20       1.0  0.29713353791068203  0.16621943519861304  0.7547678135926716  1.0000
  H   H21       1.0  0.6769598869910356  0.4943762594615749  0.7663246989040857  1.0000
  H   H22       1.0  0.823042787635792  0.5056239245354703  0.266324822167249  1.0000
  H   H23       1.0  0.17695993205057897  0.005623911432998303  0.233676301847531  1.0000
  H   H24       1.0  0.32304137011624323  0.9943765535610753  0.7336751663249643  1.0000
  H   H25       1.0  0.318832797402372  0.5259750707729085  0.7682761775558901  1.0000
  H   H26       1.0  0.18116853182240789  0.4740243462148471  0.2682762978781668  1.0000
  H   H27       1.0  0.8188323527782089  0.9740244175045804  0.2317244775675107  1.0000
  H   H28       1.0  0.6811660662589388  0.025975822762532602  0.7317240362422268  1.0000
  H   H29       1.0  0.35098647254439186  0.6975376801758203  0.7538946410517511  1.0000
  H   H30       1.0  0.14901484543339896  0.30246275193758987  0.2538942156334656  1.0000
  H   H31       1.0  0.850986195043035  0.8024617934464476  0.2461053526517674  1.0000
  H   H32       1.0  0.6490136447508588  0.19753842343299519  0.7461054450749813  1.0000
  C   C1        1.0  0.5776047423237286  0.6421938807073675  0.5722501311297279  1.0000
  C   C2        1.0  0.9223963710275384  0.3578046354293961  0.0722503829219505  1.0000
  C   C3        1.0  0.077597571613282  0.8578047257868064  0.4277504790101432  1.0000
  C   C4        1.0  0.4223968347644841  0.14219740707002876  0.9277493287654223  1.0000
  C   C5        1.0  0.5817796478037992  0.7807713097448856  0.5662666973062046  1.0000
  C   C6        1.0  0.918220051354858  0.21923415828267426  0.0662677188579579  1.0000
  C   C7        1.0  0.0817754267004318  0.7192272948473148  0.4337319113650651  1.0000
  C   C8        1.0  0.41822039386935483  0.2807668943836816  0.9337313246351826  1.0000
  C   C9        1.0  0.5716325227379642  0.8335774213970455  0.48096359585092335  1.0000
  C   C10       1.0  0.9283675007139394  0.16642241354500706  0.9809624286907166  1.0000
  C   C11       1.0  0.0716298258323391  0.6664192043427378  0.5190383480080314  1.0000
  C   C12       1.0  0.4283684894676653  0.33357962623264126  0.019037284110176203  1.0000
  C   C13       1.0  0.5569961703452931  0.7520904068083569  0.4041801066371349  1.0000
  C   C14       1.0  0.9430037930606402  0.2479145116874193  0.9041808838116836  1.0000
  C   C15       1.0  0.0569948689559681  0.7479092008156771  0.5958198322441034  1.0000
  C   C16       1.0  0.4430049158990527  0.2520865296817122  0.0958188317189084  1.0000
  C   C17       1.0  0.5517570835123918  0.6150819063800061  0.4100580880812146  1.0000
  C   C18       1.0  0.9482428844919893  0.38491705213509425  0.9100567620301163  1.0000
  C   C19       1.0  0.0517528340254714  0.8849137366827267  0.5899431846558656  1.0000
  C   C20       1.0  0.44824271770033863  0.11508597032078433  0.0899429544765837  1.0000
  C   C21       1.0  0.5621635593894965  0.5609428993635817  0.49595452270315116  1.0000
  C   C22       1.0  0.9378364757848913  0.43905988640911203  0.9959558240847315  1.0000
  C   C23       1.0  0.06215778402982149  0.939054722433355  0.5040434148946034  1.0000
  C   C24       1.0  0.43783770052468174  0.06094115731528402  0.0040438904822864  1.0000
  C   C25       1.0  0.6075738515721696  0.5812762810531  0.7372066435620752  1.0000
  C   C26       1.0  0.8924273907739887  0.41872395029692916  0.2372075118479842  1.0000
  C   C27       1.0  0.10757213456100348  0.9187223117803784  0.2627933047510282  1.0000
  C   C28       1.0  0.39242778086523344  0.08127711412468842  0.7627928616670516  1.0000
  C   C29       1.0  0.41753516354535947  0.6077824490693332  0.7814229127551116  1.0000
  C   C30       1.0  0.0824675854704253  0.3922179382754011  0.2814230755500233  1.0000
  C   C31       1.0  0.9175333734568626  0.8922179859574373  0.21857709335763792  1.0000
  C   C32       1.0  0.582466444809313  0.10778326742758543  0.718576572748951  1.0000
  C   C33       1.0  0.43462832919922784  0.6298832277757642  0.8814438402160719  1.0000
  C   C34       1.0  0.0653759075433769  0.3701169969095164  0.3814440162704216  1.0000
  C   C35       1.0  0.9346278904851103  0.8701181911968023  0.11855616908390229  1.0000
  C   C36       1.0  0.5653746685866777  0.12988322484616083  0.6185562962575234  1.0000
  N   N1        1.0  0.5886440975592536  0.554270366548508  0.6420191429812689  1.0000
  N   N2        1.0  0.9113584798612563  0.4457300195999637  0.1420199947002345  1.0000
  N   N3        1.0  0.08864102093733087  0.9457272431762861  0.3579808018021282  1.0000
  N   N4        1.0  0.4113575594147463  0.05427103619365432  0.8579797149290725  1.0000
  N   N5        1.0  0.5788198535182119  0.4287541463293182  0.6131334329279525  1.0000
  N   N6        1.0  0.9211812918027249  0.5712462867955069  0.1131335256577231  1.0000
  N   N7        1.0  0.07881995875180078  0.07124309408606423  0.3868675495239983  1.0000
  N   N8        1.0  0.4211800537006312  0.9287551383058956  0.8868671485504223  1.0000
  N   N9        1.0  0.563048802305822  0.43231554913139564  0.5259962906520812  1.0000
  N   N10       1.0  0.9369522748741088  0.5676850257002785  0.025996388972998795  1.0000
  N   N11       1.0  0.0630461598946823  0.06768169847310193  0.4740046888586917  1.0000
  N   N12       1.0  0.4369511016770389  0.9323163922131958  0.9740036207602714  1.0000
  Cl  Cl1       1.0  0.44234795419883  0.614109220330633  0.1847198163953294  1.0000
  Cl  Cl2       1.0  0.0576533096852145  0.3858893408042051  0.6847190842006512  1.0000
  Cl  Cl3       1.0  0.9423480459891493  0.8858912033859743  0.815280194344588  1.0000
  Cl  Cl4       1.0  0.5576532574098535  0.11410890099782738  0.3152798920564663  1.0000
  O   O1        1.0  0.5969475939588307  0.6392570624876728  0.9164838487976681  1.0000
  O   O2        1.0  0.9030537885811823  0.36074386904982714  0.4164847622123489  1.0000
  O   O3        1.0  0.0969471989416206  0.86074649387507  0.0835160975321685  1.0000
  O   O4        1.0  0.4030539857998788  0.13925520705439712  0.583514945869176  1.0000
  O   O5        1.0  0.28253226868982745  0.6388881997964476  0.926447002687361  1.0000
  O   O6        1.0  0.21746777471341258  0.3611109599661192  0.4264472138051971  1.0000
  O   O7        1.0  0.7825318029654582  0.8611122967646881  0.07355297825069579  1.0000
  O   O8        1.0  0.7174679018929665  0.13888820072816097  0.5735531270847573  1.0000
