data_image0
_chemical_formula_structural       Zn8H72C106N16O40
_chemical_formula_sum              "Zn8 H72 C106 N16 O40"
_cell_length_a       17.44519081087419
_cell_length_b       17.444976051988263
_cell_length_c       17.445139695542252
_cell_angle_alpha    92.54007669223235
_cell_angle_beta     118.54475840116757
_cell_angle_gamma    118.54434559192865

_space_group_name_H-M_alt    "P 1"
_space_group_IT_number       1

loop_
  _space_group_symop_operation_xyz
  'x, y, z'

loop_
  _atom_site_type_symbol
  _atom_site_label
  _atom_site_symmetry_multiplicity
  _atom_site_fract_x
  _atom_site_fract_y
  _atom_site_fract_z
  _atom_site_occupancy
  Zn  Zn1       1.0  0.022553672742425642  0.46421688800433003  0.7793920676257429  1.0000
  Zn  Zn2       1.0  0.47744939171660405  0.25684181888956203  0.441661787226998  1.0000
  Zn  Zn3       1.0  0.31518074600731444  0.779391651285664  0.2568483902849009  1.0000
  Zn  Zn4       1.0  0.18482030663768984  0.4416667202994163  0.46420981658712174  1.0000
  Zn  Zn5       1.0  0.977449812232713  0.5357865171699814  0.220608448482757  1.0000
  Zn  Zn6       1.0  0.5225532177578888  0.743160033087989  0.5583382107748277  1.0000
  Zn  Zn7       1.0  0.684819878804646  0.22061020627341332  0.7431547013899474  1.0000
  Zn  Zn8       1.0  0.8151792259031301  0.5583327434656769  0.5357903020638659  1.0000
  H   H1        1.0  0.8623219761421271  0.5228762121981279  0.9355452734047133  1.0000
  H   H2        1.0  0.6376847174729647  0.5732296475584635  0.6605571511314422  1.0000
  H   H3        1.0  0.4126770498185765  0.9355541002270302  0.5732330933674136  1.0000
  H   H4        1.0  0.08731972776652698  0.6605512436831091  0.522874734025251  1.0000
  H   H5        1.0  0.13767822358818194  0.47712190035493063  0.06445276368935988  1.0000
  H   H6        1.0  0.36231504029512984  0.4267686089059951  0.3394447053893471  1.0000
  H   H7        1.0  0.5873259931968847  0.06444943294496853  0.4267718144687791  1.0000
  H   H8        1.0  0.9126802467542848  0.3394479647745784  0.4771255713058693  1.0000
  H   H9        1.0  0.013361972745457229  0.694312867186241  0.025547114988924622  1.0000
  H   H10       1.0  0.48664796285449097  0.5121911631938191  0.6809557926377109  1.0000
  H   H11       1.0  0.33123281631442586  0.025548573836758123  0.5121901699263204  1.0000
  H   H12       1.0  0.16876437133932862  0.6809527231533538  0.694311064907815  1.0000
  H   H13       1.0  0.9866369010550359  0.30568594763416707  0.974452651268656  1.0000
  H   H14       1.0  0.5133515781507257  0.4878062049322694  0.31904532586883505  1.0000
  H   H15       1.0  0.6687673665226302  0.9744535072022988  0.4878138796703483  1.0000
  H   H16       1.0  0.8312342857008305  0.3190451874149716  0.30568853563649157  1.0000
  H   H17       1.0  0.16339783961041135  0.7615935520082787  0.00877169102709272  1.0000
  H   H18       1.0  0.3366099525758202  0.34537873629659555  0.598196968889951  1.0000
  H   H19       1.0  0.24717012642540945  0.008764382292646615  0.3453741565145521  1.0000
  H   H20       1.0  0.2528227501985966  0.5981962096700143  0.7615883119724101  1.0000
  H   H21       1.0  0.8366023432063301  0.2384086563404892  0.9912277801617433  1.0000
  H   H22       1.0  0.6633876037313372  0.6546188602030227  0.4017992310759126  1.0000
  H   H23       1.0  0.752824561266863  0.9912336826621629  0.6546264806669981  1.0000
  H   H24       1.0  0.747174147373315  0.40180070605749324  0.2384086802020065  1.0000
  H   H25       1.0  0.20438356733424007  0.4631017589621252  0.8133007128031265  1.0000
  H   H26       1.0  0.2956112478492302  0.10891283774624581  0.2587116977305897  1.0000
  H   H27       1.0  0.3501984228828051  0.8132962349676947  0.10891848903138175  1.0000
  H   H28       1.0  0.14980099326530194  0.2587183403576603  0.46310079091552564  1.0000
  H   H29       1.0  0.7956194756609137  0.5369019015195917  0.18669961662523346  1.0000
  H   H30       1.0  0.7043887266741182  0.8910863547977286  0.741289179901514  1.0000
  H   H31       1.0  0.6498013264183485  0.18670413304947436  0.891081795332873  1.0000
  H   H32       1.0  0.8502002987412283  0.7412821341619561  0.5369013638043683  1.0000
  H   H33       1.0  0.25865019419934754  0.35548143302504803  0.8319362990334013  1.0000
  H   H34       1.0  0.2413486239191798  0.0732853262074258  0.09682764984350456  1.0000
  H   H35       1.0  0.4764566065890464  0.8319372069530858  0.07328981653179781  1.0000
  H   H36       1.0  0.023544160611649517  0.09683107865451031  0.3554793093764843  1.0000
  H   H37       1.0  0.7413519732849924  0.6445207379147605  0.1680612230843649  1.0000
  H   H38       1.0  0.7586500331235161  0.9267125684471866  0.9031725230017783  1.0000
  H   H39       1.0  0.5235438014524335  0.16806381000876774  0.926710820225864  1.0000
  H   H40       1.0  0.9764580153472413  0.9031689329914417  0.6445215018007602  1.0000
  H   H41       1.0  0.9839162312683174  0.1663794933315828  0.8350196411288023  1.0000
  H   H42       1.0  0.5160860237324628  0.35110573327983746  0.18246703849199963  1.0000
  H   H43       1.0  0.6686377750007041  0.8350150880147639  0.35110583106754933  1.0000
  H   H44       1.0  0.8313631353577763  0.1824685634718081  0.16637911290877855  1.0000
  H   H45       1.0  0.01608396000013813  0.8336206989467598  0.16497796841069604  1.0000
  H   H46       1.0  0.4839115241255314  0.6488938633764931  0.8175315954241782  1.0000
  H   H47       1.0  0.33136131556266696  0.1649846151440144  0.6488946732042746  1.0000
  H   H48       1.0  0.16863926581569916  0.8175303204420886  0.8336205746333717  1.0000
  H   H49       1.0  0.9390564966166296  0.283836866243405  0.8114461163122825  1.0000
  H   H50       1.0  0.5609415062055164  0.37238912129822666  0.34478036839459486  1.0000
  H   H51       1.0  0.5276110112609799  0.8114431657870398  0.372391510610896  1.0000
  H   H52       1.0  0.9723911505255034  0.3447831829886996  0.2838370784212004  1.0000
  H   H53       1.0  0.06094368619503879  0.7161653739327891  0.18855221027460095  1.0000
  H   H54       1.0  0.4390586850705562  0.627611023238977  0.6552189580478398  1.0000
  H   H55       1.0  0.47238830452204184  0.18855537781225715  0.6276090146278007  1.0000
  H   H56       1.0  0.027609924710539177  0.6552164509336933  0.7161626213815139  1.0000
  H   H57       1.0  0.3119986711265669  0.2718987112161386  0.9157456239064672  1.0000
  H   H58       1.0  0.18800261270668983  0.1037478111851229  0.9598972138409322  1.0000
  H   H59       1.0  0.6438508794210097  0.9157499400086808  0.10375187491290924  1.0000
  H   H60       1.0  0.8561489456294781  0.9599008789226389  0.2718977789668243  1.0000
  H   H61       1.0  0.6880015201469619  0.728101449234778  0.08425313023499119  1.0000
  H   H62       1.0  0.81199692829091  0.8962496046821118  0.04010218776267053  1.0000
  H   H63       1.0  0.35614931186012916  0.0842501727010898  0.8962485961314854  1.0000
  H   H64       1.0  0.14385168762911604  0.040098994393439134  0.7281023064567335  1.0000
  H   H65       1.0  0.23504900256187977  0.21311751845363602  0.7922354188582118  1.0000
  H   H66       1.0  0.2649531550212103  0.0571875466810567  0.9780673811838835  1.0000
  H   H67       1.0  0.5791178957035541  0.7922372533306258  0.05718956363621426  1.0000
  H   H68       1.0  0.920880835335112  0.978068097688521  0.21311885061158625  1.0000
  H   H69       1.0  0.7649527314119527  0.7868827803271476  0.20776406103693296  1.0000
  H   H70       1.0  0.73504660273165  0.9428108052656868  0.02193104153103316  1.0000
  H   H71       1.0  0.42088185359505575  0.207763130600256  0.9428101484270639  1.0000
  H   H72       1.0  0.07912002314059662  0.021930631981788917  0.7868806834778538  1.0000
  C   C1        1.0  0.8527794517548203  0.40011424652895755  0.8146859998575094  1.0000
  C   C2        1.0  0.6472265153622987  0.46191067812613107  0.5473378520276881  1.0000
  C   C3        1.0  0.4145795461611356  0.8146900322943508  0.46191926945166273  1.0000
  C   C4        1.0  0.08541561249653976  0.54733701459552  0.4001074674722388  1.0000
  C   C5        1.0  0.14722382492185201  0.5998861746679864  0.18531477809229807  1.0000
  C   C6        1.0  0.35277543538202133  0.5380904612518761  0.45266408278464343  1.0000
  C   C7        1.0  0.5854245975695634  0.1853139263423529  0.5380850328561165  1.0000
  C   C8        1.0  0.9145825941017733  0.45266323100548783  0.5998915188373458  1.0000
  C   C9        1.0  0.9338069998146925  0.5026197097159584  0.8716702512355995  1.0000
  C   C10       1.0  0.5661985485581625  0.43786952160731124  0.5688150772366285  1.0000
  C   C11       1.0  0.3690540564282118  0.8716732327603439  0.4378729142207902  1.0000
  C   C12       1.0  0.1309407003987673  0.5688140250019984  0.5026138651953856  1.0000
  C   C13       1.0  0.06619627685944349  0.497380727394699  0.12832995441323186  1.0000
  C   C14       1.0  0.43380208469789516  0.5621303676224871  0.431184435885946  1.0000
  C   C15       1.0  0.6309478858669381  0.12832990677437559  0.5621314545418555  1.0000
  C   C16       1.0  0.8690575146563263  0.4311841727011585  0.4973844040668213  1.0000
  C   C17       1.0  0.9293752435621915  0.5557520344716098  0.9296478219817956  1.0000
  C   C18       1.0  0.5706309059096102  0.5002775665280412  0.6263788066432737  1.0000
  C   C19       1.0  0.3739026167242372  0.9296550702531404  0.5002821082367248  1.0000
  C   C20       1.0  0.1260958096963449  0.626376881899894  0.5557505738373576  1.0000
  C   C21       1.0  0.07062538969640306  0.4442478388444756  0.07035226344176243  1.0000
  C   C22       1.0  0.42936929382832306  0.49972049828387816  0.37362094735374274  1.0000
  C   C23       1.0  0.6260993255709125  0.07034806928157873  0.49972226052592106  1.0000
  C   C24       1.0  0.8739048235622492  0.3736229914161839  0.4442495115861931  1.0000
  C   C25       1.0  0.012826215559869125  0.6500829691551075  0.9788677168936883  1.0000
  C   C26       1.0  0.4871804060271857  0.4660455858799822  0.6372602956154837  1.0000
  C   C27       1.0  0.3287813168824771  0.9788677551367047  0.46604440492313154  1.0000
  C   C28       1.0  0.17121558783821936  0.6372577727834924  0.6500818968865687  1.0000
  C   C29       1.0  0.9871737589584058  0.3499162552162928  0.021132016136462532  1.0000
  C   C30       1.0  0.5128182510079  0.5339523565157693  0.3627381603268631  1.0000
  C   C31       1.0  0.6712182072117159  0.02113369287138065  0.5339587199791467  1.0000
  C   C32       1.0  0.8287826272194182  0.3627404090059513  0.34991694467661455  1.0000
  C   C33       1.0  0.09746962223094614  0.6886114196169473  0.969447901844802  1.0000
  C   C34       1.0  0.40253613234409624  0.3719814261559692  0.5911400173179828  1.0000
  C   C35       1.0  0.2808336484076223  0.9694446260758485  0.37197975495130453  1.0000
  C   C36       1.0  0.2191613054993908  0.5911406713217531  0.6886056249456656  1.0000
  C   C37       1.0  0.9025296850927521  0.31138918779391384  0.030552768140296498  1.0000
  C   C38       1.0  0.5974629666684451  0.6280162768461042  0.4088580530035273  1.0000
  C   C39       1.0  0.7191645582059253  0.030555524042874545  0.6280226651641598  1.0000
  C   C40       1.0  0.7808358088353915  0.4088571327441246  0.31139210524299443  1.0000
  C   C41       1.0  0.09653518885581039  0.6309764086716784  0.9103575566699573  1.0000
  C   C42       1.0  0.4034692446230468  0.3138276529016864  0.5344374405673378  1.0000
  C   C43       1.0  0.2793842974182614  0.9103543153458775  0.3138284593243982  1.0000
  C   C44       1.0  0.22060913554833678  0.5344371818906739  0.6309629711400291  1.0000
  C   C45       1.0  0.9034667534241051  0.36902682634533324  0.08964337828680863  1.0000
  C   C46       1.0  0.5965285284444449  0.6861708478500219  0.46555892511180014  1.0000
  C   C47       1.0  0.7206136924400254  0.08964489869333657  0.686174939679752  1.0000
  C   C48       1.0  0.779388637526772  0.46556127111988854  0.3690351114420381  1.0000
  C   C49       1.0  0.18246022545404372  0.6618213262665193  0.8920933483553525  1.0000
  C   C50       1.0  0.3175418733560706  0.2096354363021718  0.4793556445081463  1.0000
  C   C51       1.0  0.23027230795458586  0.8920886857532724  0.20963624486332585  1.0000
  C   C52       1.0  0.269722092544825  0.47935643877100637  0.6618199552636169  1.0000
  C   C53       1.0  0.8175417083716285  0.33818394073463065  0.10790887594977525  1.0000
  C   C54       1.0  0.6824565584441232  0.7903637611353531  0.520639356661455  1.0000
  C   C55       1.0  0.7697219631483492  0.10790336350566324  0.7903666329037761  1.0000
  C   C56       1.0  0.730275238552828  0.5206422536332482  0.3381785129392937  1.0000
  C   C57       1.0  0.15797599977222634  0.3974189182213196  0.8194220875796887  1.0000
  C   C58       1.0  0.34202159124134124  0.16144265825209203  0.23943944786655177  1.0000
  C   C59       1.0  0.42200353804795293  0.8194176065584672  0.16144995937918336  1.0000
  C   C60       1.0  0.07799798672299124  0.23944541113996112  0.3974165209303067  1.0000
  C   C61       1.0  0.8420268264575199  0.6025838698357405  0.18057693153344453  1.0000
  C   C62       1.0  0.6579770657988251  0.8385552523162404  0.7605601526777547  1.0000
  C   C63       1.0  0.5779955525179546  0.18058208068659093  0.8385511171936242  1.0000
  C   C64       1.0  0.9220033052733926  0.7605551270345148  0.6025833445856748  1.0000
  C   C65       1.0  0.18872382526604545  0.33633931241548265  0.8305702399314541  1.0000
  C   C66       1.0  0.3112755419138012  0.14184534689503894  0.14761295993847776  1.0000
  C   C67       1.0  0.49423096626573254  0.8305682419232456  0.14185020632147177  1.0000
  C   C68       1.0  0.005770791973731102  0.147617704368713  0.33633778495899946  1.0000
  C   C69       1.0  0.8112790009611572  0.6636634915552903  0.16942820688070262  1.0000
  C   C70       1.0  0.6887235486470333  0.8581543721774524  0.8523869720323701  1.0000
  C   C71       1.0  0.5057696585360816  0.16943367929069103  0.8581505961494641  1.0000
  C   C72       1.0  0.9942313839877034  0.8523822913635258  0.6636635985192212  1.0000
  C   C73       1.0  0.12646372194038238  0.25235229288833944  0.8375667287876495  1.0000
  C   C74       1.0  0.3735370995266437  0.21110441369689445  0.12588981463257912  1.0000
  C   C75       1.0  0.5852144521863423  0.8375662311708966  0.21110603044052564  1.0000
  C   C76       1.0  0.9147874083671398  0.1258910333855852  0.2523527605357927  1.0000
  C   C77       1.0  0.873534926625226  0.7476477769738425  0.162429582697186  1.0000
  C   C78       1.0  0.6264600148182923  0.7888933267141311  0.8741102047599937  1.0000
  C   C79       1.0  0.4147861810697152  0.1624336580589016  0.7888934826820487  1.0000
  C   C80       1.0  0.0852154347939377  0.8741075474797669  0.7476488305894334  1.0000
  C   C81       1.0  0.034977340640836026  0.23181300008448605  0.8312454864052369  1.0000
  C   C82       1.0  0.46502342443766065  0.29626980180692203  0.19683809480315523  1.0000
  C   C83       1.0  0.5994342026403887  0.8312423445490182  0.29627139393655705  1.0000
  C   C84       1.0  0.9005658589622672  0.19683597241826328  0.2318086754603358  1.0000
  C   C85       1.0  0.9650252603743258  0.7681909157046294  0.1687546563429835  1.0000
  C   C86       1.0  0.5349747821631896  0.7037304278803804  0.8031614638074132  1.0000
  C   C87       1.0  0.400564671157568  0.16875648618510308  0.7037278000200402  1.0000
  C   C88       1.0  0.09943522473055588  0.8031616136062711  0.7681903072950006  1.0000
  C   C89       1.0  0.01027549659907832  0.2965752985156414  0.8190952511642634  1.0000
  C   C90       1.0  0.4897235214011317  0.3088183081179636  0.2862989118071155  1.0000
  C   C91       1.0  0.5225222978313723  0.8190899967260992  0.30882342424843046  1.0000
  C   C92       1.0  0.9774784349041072  0.286300752855162  0.29657075997572957  1.0000
  C   C93       1.0  0.9897257869303646  0.703427351211545  0.18090304219518333  1.0000
  C   C94       1.0  0.5102755691622393  0.6911813950408146  0.7137015924647087  1.0000
  C   C95       1.0  0.4774776766894321  0.18090921173158853  0.6911768810826899  1.0000
  C   C96       1.0  0.022522198346870137  0.7136991682020621  0.7034276085448922  1.0000
  C   C97       1.0  0.24156798686125575  0.20655804459853042  0.8571842778070432  1.0000
  C   C98       1.0  0.25843499162776606  0.11561967325286561  0.9649907409846533  1.0000
  C   C99       1.0  0.6506289888840869  0.8571877837344956  0.11562083281099692  1.0000
  C   C100      1.0  0.8493705630503644  0.9649902836562136  0.2065575109824849  1.0000
  C   C101      1.0  0.7584328631525924  0.7934427647970639  0.14281482872782897  1.0000
  C   C102      1.0  0.7415645409130535  0.8843797905122203  0.03500937766633429  1.0000
  C   C103      1.0  0.34937120239705177  0.14281232897527477  0.8843796382333976  1.0000
  C   C104      1.0  0.1506291947050329  0.035008052376824084  0.7934414840334085  1.0000
  C   C105      1.0  0.2500002977660146  0.12499830403330495  0.8749984072041598  1.0000
  C   C106      1.0  0.7499992347748049  0.8750011597317807  0.12500171144682068  1.0000
  N   N1        1.0  0.07110420036713094  0.37884503968950883  0.8143645081726234  1.0000
  N   N2        1.0  0.4288931945365065  0.24325877512465877  0.3077380711409887  1.0000
  N   N3        1.0  0.4355210984166436  0.8143610046885572  0.2432641294343938  1.0000
  N   N4        1.0  0.06447825401831868  0.3077423363440134  0.3788411929602801  1.0000
  N   N5        1.0  0.928899943340724  0.6211590621706266  0.18563464342634717  1.0000
  N   N6        1.0  0.5711067799843053  0.756740433333029  0.6922622341901388  1.0000
  N   N7        1.0  0.5644786508870467  0.1856393474148987  0.7567367272308372  1.0000
  N   N8        1.0  0.9355212785199644  0.6922571433347856  0.621158353389731  1.0000
  N   N9        1.0  0.015746288036140844  0.5408884785087978  0.8637997066294856  1.0000
  N   N10       1.0  0.4842606068561326  0.3480596790385989  0.5251429384212472  1.0000
  N   N11       1.0  0.3229158787473169  0.8638000399533255  0.3480648366367446  1.0000
  N   N12       1.0  0.17708151605415898  0.5251458992489761  0.5408796972336631  1.0000
  N   N13       1.0  0.9842563214383448  0.45911337346875314  0.136200291372333  1.0000
  N   N14       1.0  0.5157389256719968  0.6519398642950591  0.47485431872484435  1.0000
  N   N15       1.0  0.6770849712919259  0.13620061030512443  0.6519399929079127  1.0000
  N   N16       1.0  0.822917357741261  0.47485294739886547  0.4591189244219508  1.0000
  O   O1        1.0  0.867257062907221  0.3626905306028688  0.7638034503343645  1.0000
  O   O2        1.0  0.6327478508854513  0.3965512915399145  0.4954361135124401  1.0000
  O   O3        1.0  0.40111973414380514  0.763803838846748  0.3965567516476938  1.0000
  O   O4        1.0  0.09887593924738532  0.4954341797357032  0.3626814103444715  1.0000
  O   O5        1.0  0.13274510459488917  0.6373115289409413  0.23619807789025773  1.0000
  O   O6        1.0  0.36725123966776607  0.6034484752737228  0.5045621015554715  1.0000
  O   O7        1.0  0.5988874949925747  0.23620036462227753  0.6034501467694184  1.0000
  O   O8        1.0  0.9011205078902907  0.5045650232833554  0.6373166844981668  1.0000
  O   O9        1.0  0.7752447513345403  0.3565469468358842  0.8225837610472765  1.0000
  O   O10       1.0  0.7247648206329915  0.5473449431577536  0.5813092984469392  1.0000
  O   O11       1.0  0.4660470348196173  0.8225924250150671  0.5473494854657305  1.0000
  O   O12       1.0  0.033949302018044185  0.5813020231531424  0.35654307074931063  1.0000
  O   O13       1.0  0.2247572078690966  0.6434521287305586  0.17741802901865364  1.0000
  O   O14       1.0  0.2752362546106682  0.4526546430234932  0.4186921182587112  1.0000
  O   O15       1.0  0.5339571004568385  0.1774135656057751  0.4526561061904104  1.0000
  O   O16       1.0  0.9660508808012412  0.4187001692819124  0.6434569727405018  1.0000
  O   O17       1.0  0.16598146055318366  0.5965671617463998  0.835563844916379  1.0000
  O   O18       1.0  0.33402553755033904  0.16958708736341074  0.43058361676211376  1.0000
  O   O19       1.0  0.23899396304722867  0.8355526388254548  0.16958657632059734  1.0000
  O   O20       1.0  0.2609950136099783  0.4305808116514314  0.596551174020483  1.0000
  O   O21       1.0  0.834023558678169  0.4034383500870646  0.16444097549808842  1.0000
  O   O22       1.0  0.6659768551536589  0.8304139240169165  0.5694139263225253  1.0000
  O   O23       1.0  0.7609965554478465  0.1644405963817662  0.8304129253891901  1.0000
  O   O24       1.0  0.7390012252292238  0.5694154073902596  0.4034471826634629  1.0000
  O   O25       1.0  0.25892900652627315  0.7455567783412677  0.9310229385357117  1.0000
  O   O26       1.0  0.2410710941943535  0.1720926318629736  0.48662068975077216  1.0000
  O   O27       1.0  0.1854694815708342  0.9310173200739271  0.1720982336843022  1.0000
  O   O28       1.0  0.31451214725146315  0.4866136901849387  0.7455327798261351  1.0000
  O   O29       1.0  0.7410685244181536  0.25444691411077264  0.06897712947522895  1.0000
  O   O30       1.0  0.7589238186744183  0.8279045440654969  0.5133702392810093  1.0000
  O   O31       1.0  0.8145199277572959  0.06897750573901364  0.827903735203236  1.0000
  O   O32       1.0  0.6854865097861595  0.5133842362970997  0.2544662484171881  1.0000
  O   O33       1.0  0.14805077650046886  0.18728732722428285  0.8498360993072396  1.0000
  O   O34       1.0  0.35195006944164936  0.2017881491412936  0.03923708970990698  1.0000
  O   O35       1.0  0.6625512537374264  0.849838870801847  0.2017921944681761  1.0000
  O   O36       1.0  0.8374519403277106  0.03924042975361906  0.1872875254441553  1.0000
  O   O37       1.0  0.8519498482911841  0.8127146576445129  0.15016241395977661  1.0000
  O   O38       1.0  0.6480474784214183  0.7982114156876109  0.9607626888082307  1.0000
  O   O39       1.0  0.33744959628657517  0.1501618749388811  0.7982092012706018  1.0000
  O   O40       1.0  0.1625513363438816  0.9607600232707585  0.8127121079036995  1.0000
