data_image0
_chemical_formula_structural       Ag4H40C48N20O8
_chemical_formula_sum              "Ag4 H40 C48 N20 O8"
_cell_length_a       10.550777740671204
_cell_length_b       10.55076658429822
_cell_length_c       12.052926329836414
_cell_angle_alpha    76.73293971240273
_cell_angle_beta     76.73298152805182
_cell_angle_gamma    77.96320135795685

_space_group_name_H-M_alt    "P 1"
_space_group_IT_number       1

loop_
  _space_group_symop_operation_xyz
  'x, y, z'

loop_
  _atom_site_type_symbol
  _atom_site_label
  _atom_site_symmetry_multiplicity
  _atom_site_fract_x
  _atom_site_fract_y
  _atom_site_fract_z
  _atom_site_occupancy
  Ag  Ag1       1.0  0.27579822544325344  0.21603834639319797  0.7303082366943201  1.0000
  Ag  Ag2       1.0  0.7839606657307457  0.7242030674306932  0.7696912596951079  1.0000
  Ag  Ag3       1.0  0.7242032275294719  0.783961522626342  0.2696912986735214  1.0000
  Ag  Ag4       1.0  0.21603964848029023  0.2757977857371258  0.2303083067155569  1.0000
  H   H1        1.0  0.20016541419975198  0.520963476486763  0.3311229675278398  1.0000
  H   H2        1.0  0.4790370642244285  0.7998350913025973  0.16887598321039118  1.0000
  H   H3        1.0  0.7998360387729662  0.47903639253277663  0.6688765678399943  1.0000
  H   H4        1.0  0.5209647196169414  0.2001628031312563  0.8311247118547268  1.0000
  H   H5        1.0  0.009727444617958296  0.2671631895248439  0.6786952037709141  1.0000
  H   H6        1.0  0.732839856382171  0.9902723665681706  0.8213028855364967  1.0000
  H   H7        1.0  0.9902727043206241  0.7328386510981063  0.3213025382149511  1.0000
  H   H8        1.0  0.2671637087335555  0.0097265215017472  0.17869559303832713  1.0000
  H   H9        1.0  0.35661987339912565  0.6348702890058179  0.39182560388635324  1.0000
  H   H10       1.0  0.3651306650489802  0.6433801151970187  0.10817420603842723  1.0000
  H   H11       1.0  0.6433804408119103  0.3651305641619942  0.6081739625243046  1.0000
  H   H12       1.0  0.6348696491620488  0.35662073797079324  0.8918253603722374  1.0000
  H   H13       1.0  0.3882703480074595  0.4999875009532958  0.6129461084549489  1.0000
  H   H14       1.0  0.5000129904817356  0.611729548627025  0.8870533361150734  1.0000
  H   H15       1.0  0.6117299662035691  0.5000133522145163  0.3870534579557159  1.0000
  H   H16       1.0  0.4999863504558988  0.38827130145032385  0.11294642632833528  1.0000
  H   H17       1.0  0.8869153501980167  0.11521218096507366  0.6177490989717852  1.0000
  H   H18       1.0  0.8847853742838937  0.11308696158278761  0.8822506312501304  1.0000
  H   H19       1.0  0.11308463292852622  0.8847906465720285  0.3822509671764749  1.0000
  H   H20       1.0  0.11521185461864297  0.8869148695523775  0.11774935826885273  1.0000
  H   H21       1.0  0.9693983926723176  0.13926201599216634  0.3790978322283323  1.0000
  H   H22       1.0  0.8607375194414999  0.030602434497268394  0.12090315097248794  1.0000
  H   H23       1.0  0.0305999748839838  0.8607388308865184  0.6209029559652635  1.0000
  H   H24       1.0  0.1392608481148017  0.9693984123814232  0.8790976372211076  1.0000
  H   H25       1.0  0.2512906430780575  0.08288062533274139  0.49152515447074296  1.0000
  H   H26       1.0  0.9171199601777289  0.7487105627457923  0.00847623593850246  1.0000
  H   H27       1.0  0.7487103331940262  0.9171162789882958  0.5084742421821673  1.0000
  H   H28       1.0  0.0828793803282224  0.2512902868987652  0.9915268453746576  1.0000
  H   H29       1.0  0.509734533590212  0.710497211051603  0.49386412486360587  1.0000
  H   H30       1.0  0.289499976247356  0.49026712489837376  0.006135292271132171  1.0000
  H   H31       1.0  0.4902683890128401  0.2894996992339713  0.5061365391586818  1.0000
  H   H32       1.0  0.7104943330508038  0.5097346971817984  0.9938636259112243  1.0000
  H   H33       1.0  0.5279644647202203  0.7125707153938662  0.6980847698157574  1.0000
  H   H34       1.0  0.28742393746417605  0.47203411500233716  0.8019185855069607  1.0000
  H   H35       1.0  0.4720384576669971  0.2874261946753052  0.30191755364140954  1.0000
  H   H36       1.0  0.7125685905596272  0.5279667134417636  0.1980825491656901  1.0000
  H   H37       1.0  0.4036146194997699  0.904272605405083  0.7885789613608906  1.0000
  H   H38       1.0  0.09572423935800599  0.5963831994806625  0.711422382499009  1.0000
  H   H39       1.0  0.5963842445213885  0.0957252797573744  0.21142232180246617  1.0000
  H   H40       1.0  0.9042703811525072  0.4036225745367475  0.28857650940835095  1.0000
  C   C1        1.0  0.1939329142599959  0.39145201326320483  0.5007022206680957  1.0000
  C   C2        1.0  0.6085495727888385  0.8060683402319242  0.9992967139144749  1.0000
  C   C3        1.0  0.8060683732244415  0.6085488429950773  0.49929714970981814  1.0000
  C   C4        1.0  0.3914507415301146  0.1939325130440892  0.0007020227787534844  1.0000
  C   C5        1.0  0.31456997213209803  0.5509842943621236  0.44707201430266247  1.0000
  C   C6        1.0  0.44901544713080443  0.6854288475518119  0.05292828234430396  1.0000
  C   C7        1.0  0.6854295344017345  0.44901556858468433  0.5529270834132376  1.0000
  C   C8        1.0  0.5509840592951107  0.3145710152867948  0.9470716450890249  1.0000
  C   C9        1.0  0.3281648688071428  0.48405399319707937  0.5572651790817389  1.0000
  C   C10       1.0  0.515945642612742  0.6718348838943131  0.9427344571258445  1.0000
  C   C11       1.0  0.6718364185693702  0.5159468629530011  0.44273502101361106  1.0000
  C   C12       1.0  0.484054671706204  0.3281659693817005  0.057264279567377264  1.0000
  C   C13       1.0  0.1048642519930993  0.3060318962883386  0.4971335668379879  1.0000
  C   C14       1.0  0.6939676015973077  0.8951361444266582  0.0028656396943063135  1.0000
  C   C15       1.0  0.8951360623258536  0.6939689569876749  0.5028651698552409  1.0000
  C   C16       1.0  0.30603173944824397  0.10486470575889227  0.9971332930316662  1.0000
  C   C17       1.0  0.9575330443223538  0.1719459542206607  0.5576685455219347  1.0000
  C   C18       1.0  0.8280536547725249  0.0424707930969959  0.9423304688822467  1.0000
  C   C19       1.0  0.04246629661527377  0.8280548958566956  0.44233121692147387  1.0000
  C   C20       1.0  0.17194616297365434  0.9575330217870502  0.05766860255864968  1.0000
  C   C21       1.0  0.9985241776127795  0.1849903204127301  0.4390862084966897  1.0000
  C   C22       1.0  0.8150085753486567  0.0014770903292742  0.06091149254029917  1.0000
  C   C23       1.0  0.0014751633248479834  0.815010529664619  0.5609135539467189  1.0000
  C   C24       1.0  0.1849897924234868  0.9985237567658133  0.9390876362184241  1.0000
  C   C25       1.0  0.31156948513553584  0.9988571728559279  0.536462957494031  1.0000
  C   C26       1.0  0.001138841704111784  0.6884298126482166  0.9635382178947293  1.0000
  C   C27       1.0  0.6884340996364884  0.0011357886910659005  0.4635367070530733  1.0000
  C   C28       1.0  0.9988554670544618  0.3115720088909555  0.03646484887480738  1.0000
  C   C29       1.0  0.37750262423730163  0.8960887705318967  0.4783833161047325  1.0000
  C   C30       1.0  0.10390850342702157  0.6224959190457467  0.02161996266187321  1.0000
  C   C31       1.0  0.6224991596040682  0.10390912390194983  0.5216173789603857  1.0000
  C   C32       1.0  0.8960879172587257  0.3775049213274145  0.9783837067495326  1.0000
  C   C33       1.0  0.45588928123756745  0.7906231148632443  0.537631214192622  1.0000
  C   C34       1.0  0.20937570601189034  0.5441094353590331  0.9623704163614235  1.0000
  C   C35       1.0  0.5441151109958255  0.20937083668836462  0.46237057848411917  1.0000
  C   C36       1.0  0.7906218536513734  0.4558904210822518  0.03763156257227969  1.0000
  C   C37       1.0  0.4653846106888082  0.7918265910944838  0.6505232392346159  1.0000
  C   C38       1.0  0.20817251549844681  0.5346143270980123  0.8494766318943687  1.0000
  C   C39       1.0  0.5346155378181053  0.2081752490956744  0.3494778216210007  1.0000
  C   C40       1.0  0.7918196820883737  0.4653884763645663  0.15052002421125368  1.0000
  C   C41       1.0  0.3967100858778565  0.8989363758061086  0.7008867502425531  1.0000
  C   C42       1.0  0.10105965942522492  0.6032899304543379  0.7991151443253058  1.0000
  C   C43       1.0  0.6032912212628715  0.10105855392924207  0.2991138061076343  1.0000
  C   C44       1.0  0.8989374038811064  0.39671288781137554  0.20088550992119986  1.0000
  C   C45       1.0  0.36737866061192664  0.9001661068107151  0.35506991048404757  1.0000
  C   C46       1.0  0.09983187179880566  0.6326210026688698  0.14493051000000176  1.0000
  C   C47       1.0  0.6326284860613073  0.09982884135922632  0.6449302993870915  1.0000
  C   C48       1.0  0.9001674694625805  0.3673798477330763  0.8550667632910987  1.0000
  N   N1        1.0  0.2532895827449835  0.38409281416732455  0.5903458350048751  1.0000
  N   N2        1.0  0.6159069752727576  0.7467104502876082  0.9096537192134305  1.0000
  N   N3        1.0  0.746710896846416  0.6159070516535509  0.4096547261131462  1.0000
  N   N4        1.0  0.384092531261068  0.25328941265919264  0.09034537850246237  1.0000
  N   N5        1.0  0.2298035217907355  0.49162341745621757  0.41298099867905336  1.0000
  N   N6        1.0  0.5083770058397619  0.7701973235569426  0.08701874916036448  1.0000
  N   N7        1.0  0.770197765801619  0.5083774389102657  0.5870175419814245  1.0000
  N   N8        1.0  0.4916223349899483  0.2298035264122048  0.9129818430004875  1.0000
  N   N9        1.0  0.0906733106157418  0.2686166780606669  0.4016833255281752  1.0000
  N   N10       1.0  0.7313831732428612  0.909327701552705  0.09831569117564949  1.0000
  N   N11       1.0  0.909326838107006  0.7313851623458945  0.5983160758925692  1.0000
  N   N12       1.0  0.2686151945292821  0.09067314554238239  0.901683437583074  1.0000
  N   N13       1.0  0.0249936047913977  0.24889001526469207  0.5927232939749771  1.0000
  N   N14       1.0  0.7511091091586691  0.9750087772832999  0.9072759030494311  1.0000
  N   N15       1.0  0.9750063782272279  0.7511128121642158  0.40727760189071194  1.0000
  N   N16       1.0  0.24888925861347386  0.024992069811780503  0.09272322570928543  1.0000
  N   N17       1.0  0.320564025093205  0.0012871205728473005  0.6453753039255403  1.0000
  N   N18       1.0  0.9987096278566768  0.6794352972806551  0.8546267551297503  1.0000
  N   N19       1.0  0.6794340311428331  0.9987097742604049  0.3546263402604949  1.0000
  N   N20       1.0  0.0012853234145709126  0.32056850204286746  0.1453741261923298  1.0000
  O   O1        1.0  0.4435803645405444  0.8109808728871356  0.3042233310671135  1.0000
  O   O2        1.0  0.1890190417863451  0.5564215831066264  0.1957762759379946  1.0000
  O   O3        1.0  0.5564279208943789  0.18901309113452663  0.6957768477611951  1.0000
  O   O4        1.0  0.8109812722088563  0.44357926984478985  0.8042249499075425  1.0000
  O   O5        1.0  0.2828007184301314  0.9903141981322674  0.31081926195336246  1.0000
  O   O6        1.0  0.009684230740191395  0.7171988366690769  0.18918271338974074  1.0000
  O   O7        1.0  0.7172138836696079  0.0096827494552727  0.6891773902410705  1.0000
  O   O8        1.0  0.9903162486353737  0.2828010289353955  0.8108195071631525  1.0000
