data_image0
_chemical_formula_structural       Na4Zn6H32C16S4O40
_chemical_formula_sum              "Na4 Zn6 H32 C16 S4 O40"
_cell_length_a       6.191200837
_cell_length_b       11.013724732116133
_cell_length_c       15.089
_cell_angle_alpha    94.69703946316648
_cell_angle_beta     90.0
_cell_angle_gamma    90.0

_space_group_name_H-M_alt    "P 1"
_space_group_IT_number       1

loop_
  _space_group_symop_operation_xyz
  'x, y, z'

loop_
  _atom_site_type_symbol
  _atom_site_label
  _atom_site_symmetry_multiplicity
  _atom_site_fract_x
  _atom_site_fract_y
  _atom_site_fract_z
  _atom_site_occupancy
  Na  Na1       1.0  0.728377275867075  0.48785447509075647  0.3123796594770596  1.0000
  Na  Na2       1.0  0.22837572826746572  0.0121438644885856  0.18762027441506043  1.0000
  Na  Na3       1.0  0.2716242041366073  0.5121458481382888  0.687620426116034  1.0000
  Na  Na4       1.0  0.7716257517362166  0.9878564587404525  0.8123798111780332  1.0000
  Zn  Zn1       1.0  0.9999966344170446  0.499998339579335  0.9999992711576767  1.0000
  Zn  Zn2       1.0  0.4999999324040658  9.110175938e-07  0.5000013799211018  1.0000
  Zn  Zn3       1.0  0.4767992636191707  0.294531076166173  0.7976832117107692  1.0000
  Zn  Zn4       1.0  0.9767991960232365  0.20546908544834955  0.7023161683513308  1.0000
  Zn  Zn5       1.0  0.523200601188961  0.7054674250276846  0.20231742771233027  1.0000
  Zn  Zn6       1.0  0.0232022839804387  0.7945321487982824  0.2976839716939708  1.0000
  H   H1        1.0  0.8983653004374331  0.6402003027702818  0.1853684465016059  1.0000
  H   H2        1.0  0.3983685984244545  0.8598001820732788  0.3146330073569104  1.0000
  H   H3        1.0  0.1016377947617855  0.3598000204587564  0.8146296508881576  1.0000
  H   H4        1.0  0.6016361119703078  0.14020014115575918  0.685367078236176  1.0000
  H   H5        1.0  0.0815673749399295  0.5729590053930876  0.41307978267234097  1.0000
  H   H6        1.0  0.5815673073439953  0.9270423904680596  0.0869190747006243  1.0000
  H   H7        1.0  0.9184357202592892  0.42704405088872477  0.5869191408085044  1.0000
  H   H8        1.0  0.4184374030507669  0.07295793276097838  0.9130796854235825  1.0000
  H   H9        1.0  0.2163150631451529  0.45851788662402976  0.3774503658364594  1.0000
  H   H10       1.0  0.7163133803536823  0.041484097025673294  0.12254912313007081  1.0000
  H   H11       1.0  0.7836880320540658  0.5414833476226021  0.6225497742088423  1.0000
  H   H12       1.0  0.28368809965  0.9585180482385522  0.8774504086330096  1.0000
  H   H13       1.0  0.5362497659838041  0.6170641000281876  0.48597775781016134  1.0000
  H   H14       1.0  0.0362498335797383  0.8829363848153732  0.014019719641702002  1.0000
  H   H15       1.0  0.463751714019871  0.3829362232008505  0.514022327782925  1.0000
  H   H16       1.0  0.9637532616194805  0.1170612053608977  0.9859802025947458  1.0000
  H   H17       1.0  0.7012952921914746  0.6874648064111142  0.4351661108801678  1.0000
  H   H18       1.0  0.2012985901784887  0.8125375004676272  0.0648321382105692  1.0000
  H   H19       1.0  0.2987061878122077  0.3125364278355178  0.5648340291651338  1.0000
  H   H20       1.0  0.7987077354118172  0.1874619117438172  0.9351678929303091  1.0000
  H   H21       1.0  0.3098478066703336  0.3148121497779428  0.21011021913008682  1.0000
  H   H22       1.0  0.8098477390743994  0.18518710081898598  0.289889106479805  1.0000
  H   H23       1.0  0.6901488277467108  0.6851890844686891  0.7898899209152148  1.0000
  H   H24       1.0  0.1901505105381887  0.8148114003748717  0.7101121956777448  1.0000
  H   H25       1.0  0.5738531334288908  0.3295897661222256  0.0925701337305398  1.0000
  H   H26       1.0  0.0738564314159049  0.17040948447470328  0.407429191879352  1.0000
  H   H27       1.0  0.42614350098816095  0.6704105571068125  0.9074299518625537  1.0000
  H   H28       1.0  0.9261418181966832  0.8295935718071092  0.5925703943359365  1.0000
  H   H29       1.0  0.4216435662043452  0.19595350670991954  0.0793357243412487  1.0000
  H   H30       1.0  0.921643498608411  0.30404483286942247  0.42066420955087114  1.0000
  H   H31       1.0  0.5783546834082429  0.804044994483938  0.9206662405507443  1.0000
  H   H32       1.0  0.07835152061309  0.6959573123948032  0.5793353222122021  1.0000
  C   C1        1.0  0.2724350322993701  0.48966284500897217  0.1609965946265177  1.0000
  C   C2        1.0  0.7724365798989794  0.010336405587956699  0.3390020682489308  1.0000
  C   C3        1.0  0.727559986922131  0.510337478220073  0.8390041537010121  1.0000
  C   C4        1.0  0.227553593735891  0.9896639176410814  0.6609993428130494  1.0000
  C   C5        1.0  0.2587155613540304  0.3506643360557931  0.14758549287999762  1.0000
  C   C6        1.0  0.7587138785625528  0.1493358255587296  0.352413224447659  1.0000
  C   C7        1.0  0.7412843034541012  0.6493350761556584  0.8524138755264304  1.0000
  C   C8        1.0  0.24128437105003542  0.8506654086879023  0.6475869155976426  1.0000
  C   C9        1.0  0.4112707804248572  0.2948963942201813  0.07572347106605548  1.0000
  C   C10       1.0  0.9112723280244666  0.20510103434156687  0.42427574563940607  1.0000
  C   C11       1.0  0.588727469187738  0.7051021069736833  0.9242758428881643  1.0000
  C   C12       1.0  0.08872592158812859  0.7949001999050651  0.5757243944058956  1.0000
  C   C13       1.0  0.3829596329407536  0.32123482379478213  0.9799201792112697  1.0000
  C   C14       1.0  0.8829627957359065  0.17876442680214666  0.520079146398615  1.0000
  C   C15       1.0  0.617040231867378  0.6787645884166693  0.020080514664044802  1.0000
  C   C16       1.0  0.1170386842677686  0.8212377184620792  0.4799203853644585  1.0000
  S   S1        1.0  0.9872818150996778  0.2931463294277847  0.1335484859653135  1.0000
  S   S2        1.0  0.4872834978911555  0.20685383218673078  0.36645089409678633  1.0000
  S   S3        1.0  0.0127148193173667  0.7068530827836597  0.866452207910001  1.0000
  S   S4        1.0  0.5127163669169761  0.793147402059901  0.6335492459485154  1.0000
  O   O1        1.0  0.1455565767814235  0.5580502025156946  0.121678366670757  1.0000
  O   O2        1.0  0.6455581243810329  0.9419475492750917  0.37832027289334746  1.0000
  O   O3        1.0  0.854440057635621  0.441948298678163  0.8783196218145761  1.0000
  O   O4        1.0  0.35444012523155527  0.0580545959891268  0.621679258869726  1.0000
  O   O5        1.0  0.4237917762770209  0.5304873652987325  0.21241808439943097  1.0000
  O   O6        1.0  0.9237900934855432  0.9695122085272416  0.2875813268035472  1.0000
  O   O7        1.0  0.5762064733355672  0.4695129579303127  0.7875806757247759  1.0000
  O   O8        1.0  0.0762065409315014  0.030484470631435594  0.7124152273084761  1.0000
  O   O9        1.0  0.2826253009824597  0.41207512085031783  0.9550528677889574  1.0000
  O   O10       1.0  0.7826284637776126  0.0879186636410623  0.5449467938420868  1.0000
  O   O11       1.0  0.7173664878479542  0.5879179142379911  0.0449454567175351  1.0000
  O   O12       1.0  0.2173746314216061  0.9120834816231564  0.455055388858753  1.0000
  O   O13       1.0  0.48427761898495447  0.2466625678624794  0.9237126571254777  1.0000
  O   O14       1.0  0.9842710906068461  0.2533357717168627  0.5762852885633123  1.0000
  O   O15       1.0  0.5157270914098149  0.7533350223137913  0.07628859057984978  1.0000
  O   O16       1.0  0.015727159005742  0.7466654625297762  0.4237141887475532  1.0000
  O   O17       1.0  0.8999804959807989  0.33926477293908863  0.05106477915587959  1.0000
  O   O18       1.0  0.39998217877227654  0.1607344776578401  0.4489371973917784  1.0000
  O   O19       1.0  0.1000177536317892  0.6607328172371822  0.9489351430805684  1.0000
  O   O20       1.0  0.6000160708403115  0.8392667565887917  0.5510636053879665  1.0000
  O   O21       1.0  0.8669125976214858  0.33739172077190455  0.212888009975579  1.0000
  O   O22       1.0  0.3669126652174199  0.1626075298250242  0.2871146293065223  1.0000
  O   O23       1.0  0.1330840367955588  0.6626086024571335  0.787113401086394  1.0000
  O   O24       1.0  0.6330871995907117  0.8373946154392016  0.7128855651909944  1.0000
  O   O25       1.0  0.0053915227237553  0.15919667996416106  0.12230210490574218  1.0000
  O   O26       1.0  0.5053914551278211  0.34080348165036156  0.37769793789080097  1.0000
  O   O27       1.0  0.9946115724754706  0.8408009102121026  0.8776998055340285  1.0000
  O   O28       1.0  0.4946067944847741  0.6591986636138643  0.6223015938722725  1.0000
  O   O29       1.0  0.824444261199794  0.677634015586186  0.23832561757643586  1.0000
  O   O30       1.0  0.3244443287957282  0.822365558239788  0.2616771072987518  1.0000
  O   O31       1.0  0.1755604491949683  0.3223644856076788  0.7616736963777839  1.0000
  O   O32       1.0  0.6755571512079541  0.1776365870244376  0.7383237499332082  1.0000
  O   O33       1.0  0.0692434329440559  0.4893576541159702  0.38561683149656995  1.0000
  O   O34       1.0  0.5692417501525782  0.0106425074985452  0.1143832112999732  1.0000
  O   O35       1.0  0.9307580470596193  0.5106454021658422  0.6143827547187186  1.0000
  O   O36       1.0  0.43075972985109706  0.989357815730493  0.8856168742931132  1.0000
  O   O37       1.0  0.5930884971548238  0.6226194852983581  0.4259771147206806  1.0000
  O   O38       1.0  0.093088564750758  0.8773819105627891  0.07402041718339798  1.0000
  O   O39       1.0  0.406914598044402  0.37738174894827375  0.5740223625901777  1.0000
  O   O40       1.0  0.9069161456440114  0.12261659063106829  0.9259802222397086  1.0000
