data_image0
_chemical_formula_structural       Zn2H16C16O12
_chemical_formula_sum              "Zn2 H16 C16 O12"
_cell_length_a       4.977771475151361
_cell_length_b       7.849694720910217
_cell_length_c       12.142242569384774
_cell_angle_alpha    101.68016606248615
_cell_angle_beta     89.90560477015921
_cell_angle_gamma    108.66463631619794

_space_group_name_H-M_alt    "P 1"
_space_group_IT_number       1

loop_
  _space_group_symop_operation_xyz
  'x, y, z'

loop_
  _atom_site_type_symbol
  _atom_site_label
  _atom_site_symmetry_multiplicity
  _atom_site_fract_x
  _atom_site_fract_y
  _atom_site_fract_z
  _atom_site_occupancy
  Zn  Zn1       1.0  0.9538452114220137  0.0007064577551361015  0.250493915279371  1.0000
  Zn  Zn2       1.0  0.04615302740858611  0.9992938390741986  0.7495059757195931  1.0000
  H   H1        1.0  0.21982193178040185  0.7669916910222058  0.9125126653957805  1.0000
  H   H2        1.0  0.4582501139150281  0.2361021066463778  0.5894002651252918  1.0000
  H   H3        1.0  0.7801729270234432  0.2330058715020655  0.08748602202937408  1.0000
  H   H4        1.0  0.5417567855093566  0.7638994546770093  0.41060474106995304  1.0000
  H   H5        1.0  0.2208184269440991  0.4754266351256646  0.17737874616138063  1.0000
  H   H6        1.0  0.7430273751305949  0.5233471512532193  0.3216590827607816  1.0000
  H   H7        1.0  0.7791817823913973  0.5245695770564467  0.8226189275671061  1.0000
  H   H8        1.0  0.25698019185678334  0.4766557463762595  0.6783477567606508  1.0000
  H   H9        1.0  0.2970278106582285  0.12452947486593051  0.08742161749712099  1.0000
  H   H10       1.0  0.1732336813529117  0.8763692950731399  0.4126176730077303  1.0000
  H   H11       1.0  0.7029730779010209  0.8754680935337407  0.9125770686710339  1.0000
  H   H12       1.0  0.8267645064033433  0.12362689523902762  0.587380822026283  1.0000
  H   H13       1.0  0.4762415198042973  0.16475739598818254  0.20927269631743428  1.0000
  H   H14       1.0  0.3113755193092589  0.8371043510023102  0.2904332577586501  1.0000
  H   H15       1.0  0.5237560281417757  0.8352415247121173  0.7907270031283815  1.0000
  H   H16       1.0  0.688619351155353  0.16289323143343643  0.7095646087799778  1.0000
  C   C1        1.0  0.522452731304668  0.7788621448117682  0.10089210288627726  1.0000
  C   C2        1.0  0.7440375965797729  0.2220976959295484  0.39943178604712404  1.0000
  C   C3        1.0  0.4775414993497692  0.2211381680121107  0.89910696806416  1.0000
  C   C4        1.0  0.25596531798998984  0.7779039212113334  0.6005707583265475  1.0000
  C   C5        1.0  0.25222096669837424  0.6355741128946805  0.0492770966317835  1.0000
  C   C6        1.0  0.6173404884935536  0.3650781520573645  0.4509939644261676  1.0000
  C   C7        1.0  0.7477725614107629  0.36442480388868154  0.950722603652032  1.0000
  C   C8        1.0  0.38266168854860183  0.634922009308582  0.5490116719404482  1.0000
  C   C9        1.0  0.12681066525408377  0.6478310462968083  0.9492048591300841  1.0000
  C   C10       1.0  0.4815208341972125  0.353794330263682  0.5517408341340371  1.0000
  C   C11       1.0  0.873184884434288  0.3521678923564978  0.050794019848218894  1.0000
  C   C12       1.0  0.5184841297045892  0.6462113754413608  0.44826392667211207  1.0000
  C   C13       1.0  0.12285080252624436  0.4870666030606118  0.1003564927484177  1.0000
  C   C14       1.0  0.6341727159902605  0.5120954965245944  0.39904387106672345  1.0000
  C   C15       1.0  0.8771433653930744  0.512929583334625  0.8996420031235954  1.0000
  C   C16       1.0  0.36583892913788674  0.4879075045791907  0.6009588631840898  1.0000
  O   O1        1.0  0.5794912560443564  0.7949827462947354  0.20776818198798705  1.0000
  O   O2        1.0  0.7865004191568873  0.20635518369658004  0.292665572054851  1.0000
  O   O3        1.0  0.42050171831125044  0.2050230671283515  0.7922316560130226  1.0000
  O   O4        1.0  0.21349647731823054  0.7936464474803772  0.707336152689301  1.0000
  O   O5        1.0  0.6908751508793785  0.881149995670505  0.04539700834627068  1.0000
  O   O6        1.0  0.8081877920492104  0.11941418102883725  0.4548155556380564  1.0000
  O   O7        1.0  0.3091257493406374  0.1188475926406412  0.9546008569353572  1.0000
  O   O8        1.0  0.19181648819756  0.8805861415873795  0.5451835132173883  1.0000
  O   O9        1.0  0.28415443863197254  0.1269481604766369  0.1707902953038456  1.0000
  O   O10       1.0  0.15693234820103905  0.874141000813495  0.3293374643779002  1.0000
  O   O11       1.0  0.7158444400088088  0.873049405964565  0.829208391283309  1.0000
  O   O12       1.0  0.8430645088605075  0.12585654375776303  0.6706620435147811  1.0000
