data_image0
_chemical_formula_structural       Fe2H16C24N8
_chemical_formula_sum              "Fe2 H16 C24 N8"
_cell_length_a       5.596541811817949
_cell_length_b       13.675786628092276
_cell_length_c       13.675706287827422
_cell_angle_alpha    87.60999400235193
_cell_angle_beta     72.2512632813916
_cell_angle_gamma    72.25008788204872

_space_group_name_H-M_alt    "P 1"
_space_group_IT_number       1

loop_
  _space_group_symop_operation_xyz
  'x, y, z'

loop_
  _atom_site_type_symbol
  _atom_site_label
  _atom_site_symmetry_multiplicity
  _atom_site_fract_x
  _atom_site_fract_y
  _atom_site_fract_z
  _atom_site_occupancy
  Fe  Fe1       1.0  0.7500099905672218  0.47321783287697633  0.5267724793122921  1.0000
  Fe  Fe2       1.0  0.2500063269402943  0.5267658217082954  0.47323305803708837  1.0000
  H   H1        1.0  0.7522584161886671  0.4099363590155108  0.2934634807720471  1.0000
  H   H2        1.0  0.7477824126652665  0.7065371495851807  0.5900554814790836  1.0000
  H   H3        1.0  0.24777379452118004  0.5899860107542241  0.7065687969185176  1.0000
  H   H4        1.0  0.25226721179075184  0.2934250909554167  0.41000705053919967  1.0000
  H   H5        1.0  0.3182721546141352  0.5809296472646397  0.21364780134862116  1.0000
  H   H6        1.0  0.18172169153732648  0.7863489144876471  0.4190874888619972  1.0000
  H   H7        1.0  0.6813543573947956  0.41918674983669046  0.7863858120441946  1.0000
  H   H8        1.0  0.8185782737081978  0.2136047391181962  0.5808559632675027  1.0000
  H   H9        1.0  0.7697125227187412  0.3913093290176948  0.948947872197337  1.0000
  H   H10       1.0  0.7302827028673211  0.05103911478919088  0.6086999236387098  1.0000
  H   H11       1.0  0.22998556987788993  0.6087633155251384  0.051091795365365976  1.0000
  H   H12       1.0  0.27004366036737826  0.9488944250394412  0.39123763332963074  1.0000
  H   H13       1.0  0.8043554390139962  0.38668872227111006  0.1235527409419817  1.0000
  H   H14       1.0  0.6956763598953726  0.8764344196090125  0.6133094709174427  1.0000
  H   H15       1.0  0.19532703715236024  0.6133982487971325  0.8764908691402409  1.0000
  H   H16       1.0  0.30464910721502764  0.12350274121671131  0.38661168403492496  1.0000
  C   C1        1.0  0.8926318219719109  0.4510100243903211  0.28990198354209434  1.0000
  C   C2        1.0  0.6073898241341099  0.7100929235117166  0.5489878246763238  1.0000
  C   C3        1.0  0.10740194949448789  0.5489619584190849  0.7100948414952766  1.0000
  C   C4        1.0  0.39262741761623243  0.2898993174052791  0.4510383761270304  1.0000
  C   C5        1.0  0.1785735211612689  0.5398221240155793  0.24971875144316866  1.0000
  C   C6        1.0  0.32140959195705704  0.7502784425991608  0.46018848055104644  1.0000
  C   C7        1.0  0.821215764059545  0.46023432169243983  0.750325519576073  1.0000
  C   C8        1.0  0.6787638792234676  0.2496730585664154  0.5397848819157571  1.0000
  C   C9        1.0  0.03392699677949912  0.49544318783711827  0.20647349644207935  1.0000
  C   C10       1.0  0.4660712005973337  0.7935217427402605  0.5045620793658115  1.0000
  C   C11       1.0  0.9659750926350624  0.5045834967114688  0.7935355063936382  1.0000
  C   C12       1.0  0.5340116930636473  0.2064556430028617  0.4954199194578732  1.0000
  C   C13       1.0  0.020120122105161897  0.49730458268759764  0.10157767763634948  1.0000
  C   C14       1.0  0.47986372461871674  0.8984262784484405  0.5027067066932673  1.0000
  C   C15       1.0  0.9796723624166931  0.5027637556849954  0.898440399526471  1.0000
  C   C16       1.0  0.5203175591233561  0.10155441294084261  0.4972454401803501  1.0000
  C   C17       1.0  0.8699890599461427  0.4397230507176247  0.9708682586842555  1.0000
  C   C18       1.0  0.6299870116880797  0.0291289802255577  0.560285692607863  1.0000
  C   C19       1.0  0.12969271123620268  0.5603691694910538  0.0291750258086836  1.0000
  C   C20       1.0  0.3702812578545932  0.9708239474611845  0.4396346756849566  1.0000
  C   C21       1.0  0.8901195799351811  0.43704292504302344  0.06978592991836048  1.0000
  C   C22       1.0  0.6098743355871507  0.930212765951133  0.5629635717258593  1.0000
  C   C23       1.0  0.10960796423043473  0.5630228263570913  0.9302591452738083  1.0000
  C   C24       1.0  0.39037806354826193  0.06973446621462642  0.43699096644773755  1.0000
  N   N1        1.0  0.9474738092172287  0.46869800580364557  0.37566102814984237  1.0000
  N   N2        1.0  0.5525529556305532  0.624333077343316  0.5313005705247916  1.0000
  N   N3        1.0  0.05262486134611785  0.5312887426612678  0.6243395964993679  1.0000
  N   N4        1.0  0.4473886574826693  0.3756471205286617  0.46872252971816397  1.0000
  N   N5        1.0  0.12390297814113885  0.5234448405395044  0.3509518928967949  1.0000
  N   N6        1.0  0.37610103013692936  0.6490387448101986  0.4765612070810121  1.0000
  N   N7        1.0  0.8760896447864258  0.4765970026750497  0.6490734719301157  1.0000
  N   N8        1.0  0.6239063145996796  0.3509187605796527  0.5234248908555157  1.0000
