data_image0
_chemical_formula_structural       Zn2H50C58N12O8
_chemical_formula_sum              "Zn2 H50 C58 N12 O8"
_cell_length_a       10.095876902413556
_cell_length_b       11.905392843738577
_cell_length_c       11.961211696265469
_cell_angle_alpha    84.6187424589515
_cell_angle_beta     67.32491061645034
_cell_angle_gamma    83.21438826875433

_space_group_name_H-M_alt    "P 1"
_space_group_IT_number       1

loop_
  _space_group_symop_operation_xyz
  'x, y, z'

loop_
  _atom_site_type_symbol
  _atom_site_label
  _atom_site_symmetry_multiplicity
  _atom_site_fract_x
  _atom_site_fract_y
  _atom_site_fract_z
  _atom_site_occupancy
  Zn  Zn1       1.0  0.5609057320195774  0.3106598085256067  0.37990740176013577  1.0000
  Zn  Zn2       1.0  0.4390938064727764  0.6893405231206698  0.6200930263654814  1.0000
  H   H1        1.0  0.36000673836908004  0.1813761742789168  0.33088584332384136  1.0000
  H   H2        1.0  0.639992798939261  0.8186241577596715  0.6691154211855592  1.0000
  H   H3        1.0  0.34661936895963663  0.981763679301153  0.2860104670674062  1.0000
  H   H4        1.0  0.6533802690340523  0.018235805689684498  0.7139908441389764  1.0000
  H   H5        1.0  0.5586517868208533  0.8407898095747797  0.2574086003806925  1.0000
  H   H6        1.0  0.44134989780236117  0.15921052914220718  0.7425911305356937  1.0000
  H   H7        1.0  0.7748799029870385  0.1051093126258067  0.3209719194178221  1.0000
  H   H8        1.0  0.22512050956807894  0.8948927158666888  0.679026393941655  1.0000
  H   H9        1.0  0.9420224827474474  0.7345087999983233  0.2024589162697198  1.0000
  H   H10       1.0  0.057978128810340514  0.26549153518330115  0.797541163251282  1.0000
  H   H11       1.0  0.7978006962486577  0.7772578411736858  0.15095995003006388  1.0000
  H   H12       1.0  0.20219894411305728  0.22274164303252764  0.849039688408759  1.0000
  H   H13       1.0  0.7625891273273525  0.7076733054965129  0.29689093721663085  1.0000
  H   H14       1.0  0.23741041116500136  0.29232702614976347  0.7031094909089859  1.0000
  H   H15       1.0  0.8584636198350356  0.9112557492512889  0.5339929697901625  1.0000
  H   H16       1.0  0.14153504814659362  0.08874288437181826  0.4660070639502509  1.0000
  H   H17       1.0  0.00891397489296251  0.905257582554853  0.5788786130536183  1.0000
  H   H18       1.0  0.9910856654687524  0.09474190165135352  0.42112102538519747  1.0000
  H   H19       1.0  0.9157258322213908  0.7834408180696782  0.6003955094772097  1.0000
  H   H20       1.0  0.0842738069563111  0.21655866652884725  0.39960496534538953  1.0000
  H   H21       1.0  0.1807344981611507  0.7852203804550228  0.5754757352259858  1.0000
  H   H22       1.0  0.8192652428859121  0.21477825670343978  0.42452394990981196  1.0000
  H   H23       1.0  0.5480627123651304  0.5904920034047619  0.37462570364432696  1.0000
  H   H24       1.0  0.45193692799658447  0.4095074808014445  0.6253739347944887  1.0000
  H   H25       1.0  0.2329134181751941  0.7037559831123587  0.21620968863737033  1.0000
  H   H26       1.0  0.7670862210025079  0.2962435014861668  0.7837907861852289  1.0000
  H   H27       1.0  0.15122640064817014  0.4689271566393741  0.624166937467841  1.0000
  H   H28       1.0  0.8487732385295249  0.5310723279591513  0.3758335373547582  1.0000
  H   H29       1.0  0.8990561753712287  0.5628906472472223  0.7115933621793291  1.0000
  H   H30       1.0  0.10094336312113232  0.4371096843990471  0.2884070659462878  1.0000
  H   H31       1.0  0.4655097866646046  0.5913731930573005  0.20262985517064186  1.0000
  H   H32       1.0  0.534490926762544  0.40862629468426104  0.7973694346635583  1.0000
  H   H33       1.0  0.7387663171422008  0.5639776906991044  0.08950596583285628  1.0000
  H   H34       1.0  0.2612311759046407  0.43602178682871073  0.9104952061989737  1.0000
  H   H35       1.0  0.9053009148940135  0.6694289842904908  0.9061943688565467  1.0000
  H   H36       1.0  0.09469872428368124  0.3305705003080347  0.09380610596605271  1.0000
  H   H37       1.0  0.3980468279393819  0.3280762442703988  0.04043205852848079  1.0000
  H   H38       1.0  0.6019536817490447  0.6719249383512886  0.9595688106793222  1.0000
  H   H39       1.0  0.6028738214813104  0.3764684184313438  0.0886083253024665  1.0000
  H   H40       1.0  0.39712668939112933  0.6235327637980319  0.9113917075215527  1.0000
  H   H41       1.0  0.8213666234158056  0.23492538971282065  0.047614559162312296  1.0000
  H   H42       1.0  0.17863398932599492  0.765074945076499  0.9523846839749059  1.0000
  H   H43       1.0  0.6090750438539771  0.018570516921165795  0.9147493192877009  1.0000
  H   H44       1.0  0.3909242932676875  0.9814315088205985  0.08525101544395149  1.0000
  H   H45       1.0  0.9559995966870718  0.8682696341539182  0.8809242113197516  1.0000
  H   H46       1.0  0.044001117924082706  0.13172985319533123  0.11907424213066523  1.0000
  H   H47       1.0  0.8499388589697718  0.9490292154104407  0.8066892084991296  1.0000
  H   H48       1.0  0.15006185445736972  0.05097027233112779  0.19331008133507058  1.0000
  H   H49       1.0  0.7620991351379873  0.8760887352775413  0.9472002008750879  1.0000
  H   H50       1.0  0.23790157828916145  0.12391075246402748  0.052799088959112325  1.0000
  C   C1        1.0  0.4476438415069525  0.11567451045948468  0.32138469865128644  1.0000
  C   C2        1.0  0.552357742430914  0.8843266753052461  0.6786149855681176  1.0000
  C   C3        1.0  0.4427112816126313  0.0056172037193178  0.2949950442906157  1.0000
  C   C4        1.0  0.5572893299451493  0.9943831314623068  0.7050050352303857  1.0000
  C   C5        1.0  0.5612496892162825  0.9268120849486717  0.2798783650415189  1.0000
  C   C6        1.0  0.43874984809205836  0.07318824708991657  0.7201228994678746  1.0000
  C   C7        1.0  0.6826897199442714  0.9602305233338768  0.29317700976473304  1.0000
  C   C8        1.0  0.3173119670469689  0.039769814598479086  0.706821048384086  1.0000
  C   C9        1.0  0.6800306960701052  0.0737615410058581  0.3171338870829246  1.0000
  C   C10       1.0  0.3199698171703604  0.9262396404388864  0.6828644729735346  1.0000
  C   C11       1.0  0.8094633815429193  0.880651218074412  0.28426962996989863  1.0000
  C   C12       1.0  0.1905371305135333  0.11934996376265158  0.715729566470344  1.0000
  C   C13       1.0  0.8290313070627352  0.7688541851229047  0.22984234453758032  1.0000
  C   C14       1.0  0.17096930567906551  0.23114614966640792  0.7701568985996377  1.0000
  C   C15       1.0  0.04937229101729202  0.8229262335782149  0.4138724905978251  1.0000
  C   C16       1.0  0.9506273493444227  0.17707325062799834  0.5861271478409905  1.0000
  C   C17       1.0  0.9523976140678131  0.8579531866806819  0.5388204015099022  1.0000
  C   C18       1.0  0.04760105391381591  0.14204544694242566  0.4611796322305113  1.0000
  C   C19       1.0  0.1890773525679492  0.7579287641735989  0.3956035544632216  1.0000
  C   C20       1.0  0.8109234615445403  0.24206987652021886  0.6043957820679612  1.0000
  C   C21       1.0  0.24218980576291926  0.7490969840869539  0.48832585565105563  1.0000
  C   C22       1.0  0.7578098334147825  0.2509025005115717  0.5116746191715439  1.0000
  C   C23       1.0  0.4476430658763633  0.6376048464208848  0.37726373341993763  1.0000
  C   C24       1.0  0.5523565733013386  0.3623946381776406  0.6227367414026618  1.0000
  C   C25       1.0  0.27189702462153065  0.7009406232039195  0.28964515888436193  1.0000
  C   C26       1.0  0.728103687621598  0.2990588649299609  0.7103549673336219  1.0000
  C   C27       1.0  0.28979241997983257  0.391468247416469  0.39747495288826695  1.0000
  C   C28       1.0  0.7102061461324355  0.6085312336467082  0.6025258705389477  1.0000
  C   C29       1.0  0.13984006795426757  0.4470885079786127  0.4516225334625121  1.0000
  C   C30       1.0  0.8601583974726597  0.5529118201323017  0.5483782432677203  1.0000
  C   C31       1.0  0.08384532312378214  0.4825205416303006  0.5708332638105491  1.0000
  C   C32       1.0  0.9161542141845589  0.517479790408288  0.4291680006988516  1.0000
  C   C33       1.0  0.9447016193707615  0.5350487378763445  0.6190095282406531  1.0000
  C   C34       1.0  0.05529899218702644  0.464951597305287  0.3809905512803483  1.0000
  C   C35       1.0  0.401200500542025  0.6397508491428281  0.281433930620068  1.0000
  C   C36       1.0  0.5987991386356769  0.36024863545569713  0.7185665442025313  1.0000
  C   C37       1.0  0.9077724078243108  0.44171126237666414  0.10191041193327531  1.0000
  C   C38       1.0  0.09222840510415865  0.5582873787094725  0.8980897609816838  1.0000
  C   C39       1.0  0.8097487422176786  0.3757131066222996  0.20805311424962264  1.0000
  C   C40       1.0  0.19024982507860955  0.6242863740485587  0.7919468727938083  1.0000
  C   C41       1.0  0.8534013122040847  0.5368425836709108  0.04933007599099435  1.0000
  C   C42       1.0  0.14659822628826907  0.4631577479753587  0.9506703521346227  1.0000
  C   C43       1.0  0.9450536012013733  0.5948335359050174  0.9480092754819154  1.0000
  C   C44       1.0  0.05494721172709662  0.4051651051811191  0.05199089743305052  1.0000
  C   C45       1.0  0.49530545929359715  0.2695847323249083  0.020615604553896  1.0000
  C   C46       1.0  0.5046951498961577  0.7304156036413473  0.9793861477346655  1.0000
  C   C47       1.0  0.6103083156468473  0.296994475919142  0.04749856812756555  1.0000
  C   C48       1.0  0.38969229591094035  0.7030058592624824  0.9525015113934362  1.0000
  C   C49       1.0  0.7299932197826209  0.2189670151782792  0.026275537986258226  1.0000
  C   C50       1.0  0.27000739059114665  0.7810333203956645  0.9737253779185269  1.0000
  C   C51       1.0  0.7323488887573646  0.11480272249796289  0.9786971538478045  1.0000
  C   C52       1.0  0.26765075042033715  0.8851967621005624  0.021303320974787782  1.0000
  C   C53       1.0  0.6128735116587124  0.09784390250765539  0.9516009010638913  1.0000
  C   C54       1.0  0.3871260268336414  0.9021564291386212  0.04839952706172574  1.0000
  C   C55       1.0  0.8524185381801888  0.025592198874932096  0.9606728867474817  1.0000
  C   C56       1.0  0.14758100268019092  0.9744081319867061  0.03932586861057535  1.0000
  C   C57       1.0  0.8567575318955533  0.9231848706385293  0.8951349118244921  1.0000
  C   C58       1.0  0.1432420077808203  0.0768154606154283  0.1048646799173483  1.0000
  N   N1        1.0  0.3689846108886101  0.6925045084243491  0.47882847063907985  1.0000
  N   N2        1.0  0.6310150294731046  0.3074949757818572  0.521171167799743  1.0000
  N   N3        1.0  0.5656835640394534  0.1490883675668826  0.3318789046777085  1.0000
  N   N4        1.0  0.4343181193997482  0.8509119715424162  0.6681216626224541  1.0000
  N   N5        1.0  0.895625510741262  0.9126821328801779  0.3301258886433728  1.0000
  N   N6        1.0  0.10437392824976403  0.08731904542152338  0.6698736564014851  1.0000
  N   N7        1.0  0.017583441923697832  0.8457312461628205  0.3183350162183773  1.0000
  N   N8        1.0  0.9824172715034438  0.15426824157874813  0.681664273615823  1.0000
  N   N9        1.0  0.49629399776939914  0.17232671982044676  0.9718999075144555  1.0000
  N   N10       1.0  0.5037066126043757  0.8276736157534967  0.02810100839032253  1.0000
  N   N11       1.0  0.9451201682580433  0.042595871543817096  0.007733040466796014  1.0000
  N   N12       1.0  0.054879472103671445  0.9574036126623894  0.9922665979720195  1.0000
  O   O1        1.0  0.35919549485142005  0.3705846399239404  0.4702934303389485  1.0000
  O   O2        1.0  0.6408039441396057  0.629416538377761  0.5297061147059098  1.0000
  O   O3        1.0  0.34207180028032275  0.3672386642260079  0.28835493564444203  1.0000
  O   O4        1.0  0.657928710592117  0.6327625180033677  0.7116450971795774  1.0000
  O   O5        1.0  0.6764849906741335  0.41860994499901216  0.25456384425983464  1.0000
  O   O6        1.0  0.32351337406745273  0.581391230159653  0.7454368857734226  1.0000
  O   O7        1.0  0.8571581496997212  0.2834117601786872  0.24429262739369761  1.0000
  O   O8        1.0  0.14284051709789486  0.7165868738367391  0.7557082427304992  1.0000
