data_image0
_chemical_formula_structural       Sr4H16C24N8O20
_chemical_formula_sum              "Sr4 H16 C24 N8 O20"
_cell_length_a       6.568232806938723
_cell_length_b       7.021363408017161
_cell_length_c       15.960266109199448
_cell_angle_alpha    89.99995064283168
_cell_angle_beta     89.99942929423892
_cell_angle_gamma    93.96716093253423

_space_group_name_H-M_alt    "P 1"
_space_group_IT_number       1

loop_
  _space_group_symop_operation_xyz
  'x, y, z'

loop_
  _atom_site_type_symbol
  _atom_site_label
  _atom_site_symmetry_multiplicity
  _atom_site_fract_x
  _atom_site_fract_y
  _atom_site_fract_z
  _atom_site_occupancy
  Sr  Sr1       1.0  0.7406656880852722  0.5420479767556543  0.4184299959506107  1.0000
  Sr  Sr2       1.0  0.25933810266649  0.9579637960837389  0.9184257188680576  1.0000
  Sr  Sr3       1.0  0.2593357608307443  0.4579526981503507  0.5815692637077419  1.0000
  Sr  Sr4       1.0  0.7406632307819051  0.04203545120793712  0.0815729142348118  1.0000
  H   H1        1.0  0.6042671347146324  0.98033511060094  0.3954637959183388  1.0000
  H   H2        1.0  0.3957281976062745  0.519678231770314  0.8954647398220672  1.0000
  H   H3        1.0  0.39573302337524296  0.0196684288096947  0.6045367168541491  1.0000
  H   H4        1.0  0.6042684550676255  0.48031961573139625  0.10453514640265382  1.0000
  H   H5        1.0  0.29349734114329357  0.0283319616950948  0.43000099003437253  1.0000
  H   H6        1.0  0.7064963425130129  0.4716748561518074  0.9300055086010419  1.0000
  H   H7        1.0  0.7065055140588754  0.9716672763194297  0.5699982696213155  1.0000
  H   H8        1.0  0.29349890388233046  0.5283244282425558  0.06999375107038472  1.0000
  H   H9        1.0  0.24276823679993245  0.7917621760251808  0.46280869098388433  1.0000
  H   H10       1.0  0.7572250010655425  0.7082452029028162  0.9628130876763807  1.0000
  H   H11       1.0  0.7572334430513195  0.20824135410948233  0.5371918217854559  1.0000
  H   H12       1.0  0.24277305787932585  0.29175120770506885  0.0371880516576155  1.0000
  H   H13       1.0  0.4416973518062833  0.9451641622515797  0.24668717032456305  1.0000
  H   H14       1.0  0.5582884890903229  0.5548383922629228  0.7466911887944292  1.0000
  H   H15       1.0  0.5583010535870017  0.05483653120635521  0.7533120893400849  1.0000
  H   H16       1.0  0.44171132256633433  0.4451608643000072  0.25330995053546  1.0000
  C   C1        1.0  0.3187793616721279  0.8794091094996122  0.41358001648492154  1.0000
  C   C2        1.0  0.6812069988375739  0.6205927902684111  0.9135847571964606  1.0000
  C   C3        1.0  0.681219043721157  0.12059158395832982  0.5864192431797336  1.0000
  C   C4        1.0  0.31879585634181495  0.379406447742589  0.0864163821271333  1.0000
  C   C5        1.0  0.19781717780931982  0.8669950763789842  0.1055622217280572  1.0000
  C   C6        1.0  0.8021758410857345  0.6329979871247318  0.6055645778338247  1.0000
  C   C7        1.0  0.8021829802805557  0.13300846303164351  0.8944382910444305  1.0000
  C   C8        1.0  0.19782503046182146  0.3669955497049032  0.3944340552709492  1.0000
  C   C9        1.0  0.15418167729851723  0.8251426017358912  0.1950044367627513  1.0000
  C   C10       1.0  0.8458138542130058  0.6748515255792714  0.695004091989361  1.0000
  C   C11       1.0  0.8458196561270982  0.17485664555225366  0.804996076008017  1.0000
  C   C12       1.0  0.1541844356974735  0.32514774026197557  0.3049957942317364  1.0000
  C   C13       1.0  0.9845481454154807  0.7435244882171403  0.23869749177454486  1.0000
  C   C14       1.0  0.015452183021032804  0.7564665826337773  0.7386974245430766  1.0000
  C   C15       1.0  0.015451781716386406  0.25647619596129806  0.7613036475548683  1.0000
  C   C16       1.0  0.9845459914142367  0.243531255591968  0.26130246167849697  1.0000
  C   C17       1.0  0.783337856586606  0.6545298079815469  0.21004865146842636  1.0000
  C   C18       1.0  0.2166609517340703  0.8454528140717557  0.7100470949179681  1.0000
  C   C19       1.0  0.2166605487990837  0.34547088547521554  0.7899512347521951  1.0000
  C   C20       1.0  0.7833374536516189  0.15454787938500664  0.2899527913026532  1.0000
  C   C21       1.0  0.2147665263929781  0.8306534278992003  0.3317990220681467  1.0000
  C   C22       1.0  0.7852310626248806  0.6693501510319565  0.8318033158400909  1.0000
  C   C23       1.0  0.7852335162216946  0.16934868389592592  0.6682014907048172  1.0000
  C   C24       1.0  0.21476874903177653  0.33064910553097354  0.1681978234897912  1.0000
  N   N1        1.0  0.2961752836763196  0.8770033645819526  0.2559429677275063  1.0000
  N   N2        1.0  0.7038221605226624  0.6229947981109378  0.755946360921115  1.0000
  N   N3        1.0  0.703824758938346  0.12299874721317391  0.7440575450454576  1.0000
  N   N4        1.0  0.2961791728953571  0.37700444917602743  0.24405477840562648  1.0000
  N   N5        1.0  0.026516438667194088  0.7471087327260262  0.3235401649277137  1.0000
  N   N6        1.0  0.9734842786419408  0.752893431067527  0.8235411451794408  1.0000
  N   N7        1.0  0.9734837194150927  0.25289480668342895  0.6764609744007402  1.0000
  N   N8        1.0  0.026513895778144603  0.2471044071558666  0.17645999415407945  1.0000
  O   O1        1.0  0.3780325745086444  0.9292797066949136  0.08496381078485633  1.0000
  O   O2        1.0  0.6219608282371637  0.570712006569025  0.5849663072481235  1.0000
  O   O3        1.0  0.6219679299992719  0.07072811556107442  0.9150373285421696  1.0000
  O   O4        1.0  0.3780427404302814  0.42927722886568637  0.41503044618388435  1.0000
  O   O5        1.0  0.5324558285897681  0.854576501630604  0.4132913625931281  1.0000
  O   O6        1.0  0.4675476247452082  0.645429580036847  0.9132938467806967  1.0000
  O   O7        1.0  0.4675500701275368  0.1454227178308116  0.5867085236122309  1.0000
  O   O8        1.0  0.5324508961156909  0.35457254103542374  0.0867060394394485  1.0000
  O   O9        1.0  0.6802350824101779  0.5563984529652971  0.2646808024778197  1.0000
  O   O10       1.0  0.31977035684433736  0.9435882003409194  0.7646756534644581  1.0000
  O   O11       1.0  0.31976472926166377  0.44360080359999193  0.7353190837401302  1.0000
  O   O12       1.0  0.6802265267723939  0.056412502390628616  0.23532485931527702  1.0000
  O   O13       1.0  0.05510691809967482  0.844542051231116  0.051648006297377015  1.0000
  O   O14       1.0  0.9448884675790055  0.6554454950558579  0.5516516437476824  1.0000
  O   O15       1.0  0.9448944153259474  0.15545719605702868  0.9483525064733912  1.0000
  O   O16       1.0  0.055114272140365024  0.34455231534198577  0.44834824246445504  1.0000
  O   O17       1.0  0.7229765054837713  0.6775596048155277  0.13528184876087582  1.0000
  O   O18       1.0  0.2770304332483136  0.8224261162174571  0.6352813031200242  1.0000
  O   O19       1.0  0.2770236526137069  0.32244393459627935  0.8647180374556458  1.0000
  O   O20       1.0  0.7229676257269375  0.17757029439513164  0.36471732999009293  1.0000
