data_image0
_chemical_formula_structural       Zn4H54C79N28O23
_chemical_formula_sum              "Zn4 H54 C79 N28 O23"
_cell_length_a       19.518809663506325
_cell_length_b       18.88466998192514
_cell_length_c       21.362563102640554
_cell_angle_alpha    108.62067460665004
_cell_angle_beta     103.46931616366514
_cell_angle_gamma    112.4160739378231

_space_group_name_H-M_alt    "P 1"
_space_group_IT_number       1

loop_
  _space_group_symop_operation_xyz
  'x, y, z'

loop_
  _atom_site_type_symbol
  _atom_site_label
  _atom_site_symmetry_multiplicity
  _atom_site_fract_x
  _atom_site_fract_y
  _atom_site_fract_z
  _atom_site_occupancy
  Zn  Zn1       1.0  0.09303752683590721  0.09332873098070851  0.47683016280789986  1.0000
  Zn  Zn2       1.0  0.8924618998690335  0.8893613232019393  0.5009886218646712  1.0000
  Zn  Zn3       1.0  0.0005744878569232969  0.8737030570309089  0.38570962191795377  1.0000
  Zn  Zn4       1.0  0.0751989370743118  0.12990203396168445  0.6365403275979701  1.0000
  H   H1        1.0  0.0396473664079622  0.1403898003158233  0.33700264965602855  1.0000
  H   H2        1.0  0.7695611264613336  0.9293113694764871  0.40938909180443517  1.0000
  H   H3        1.0  0.9338744482239748  0.08224666890161102  0.39311172573938075  1.0000
  H   H4        1.0  0.25967641053649265  0.30480418974254775  0.558258697911526  1.0000
  H   H5        1.0  0.8623699011790719  0.7071247776757018  0.49817413882140454  1.0000
  H   H6        1.0  0.16810028477823383  0.8713991443628402  0.36206613316381453  1.0000
  H   H7        1.0  0.8813155682307894  0.8641309107025706  0.6429878824801631  1.0000
  H   H8        1.0  0.26795869703851594  0.1319929493009369  0.5255209857307077  1.0000
  H   H9        1.0  0.2526233324015763  0.24741288795058847  0.7379464238648054  1.0000
  H   H10       1.0  0.0599906578924632  0.7626124647722604  0.42894321801977475  1.0000
  H   H11       1.0  0.8805081074593203  0.28405087742515894  0.5476231337191988  1.0000
  H   H12       1.0  0.9482523665555361  0.20388744862889752  0.3700045154908621  1.0000
  H   H13       1.0  0.9366738745417746  0.3158726796386375  0.34066223958235026  1.0000
  H   H14       1.0  0.0608432546440696  0.6364364836593168  0.4491447675628207  1.0000
  H   H15       1.0  0.8134964951357659  0.5594729143168352  0.4217505104456975  1.0000
  H   H16       1.0  0.7918835629316733  0.41761872712411474  0.4104477466226156  1.0000
  H   H17       1.0  0.4897213412806993  0.9101266936759844  0.40335516981006947  1.0000
  H   H18       1.0  0.612647453505268  0.8967375859941599  0.4372856730323135  1.0000
  H   H19       1.0  0.7609379950002619  0.16319659251747246  0.4945490239870194  1.0000
  H   H20       1.0  0.6386799016543705  0.176468526987847  0.4584606387561009  1.0000
  H   H21       1.0  0.27677000487888404  0.9323791219460562  0.32681840588068667  1.0000
  H   H22       1.0  0.6965557099809631  0.7713563694711995  0.19687358377923656  1.0000
  H   H23       1.0  0.5326664429112782  0.4561191049269979  0.8643009469356142  1.0000
  H   H24       1.0  0.44161135232333487  0.34826322737953325  0.736178865801598  1.0000
  H   H25       1.0  0.37758743852078425  0.567960467687783  0.8668291429543515  1.0000
  H   H26       1.0  0.543011430374783  0.4536073802736951  0.060626641405320834  1.0000
  H   H27       1.0  0.2843046834976165  0.45776602343981665  0.7390813420168454  1.0000
  H   H28       1.0  0.9873678465751466  0.06396080452233119  0.9686806645720833  1.0000
  H   H29       1.0  0.9177691491551698  0.16341881441802286  0.137699262713248  1.0000
  H   H30       1.0  0.9506980650298188  0.14232999510631575  0.24723583674199281  1.0000
  H   H31       1.0  0.8079154621349647  0.9415946194243646  0.7113379519922773  1.0000
  H   H32       1.0  0.8292335396371655  0.8960311916831573  0.00411862106685842  1.0000
  H   H33       1.0  0.8645563869082766  0.8742271149480704  0.111765259398716  1.0000
  H   H34       1.0  0.9659398047108  0.5170327016568238  0.5802263835925459  1.0000
  H   H35       1.0  0.9489287460853219  0.4491040192838582  0.6244111091473953  1.0000
  H   H36       1.0  0.890379455113461  0.5021986588677976  0.616878079402916  1.0000
  H   H37       1.0  0.15384895565955503  0.6000649753765545  0.48929563734658627  1.0000
  H   H38       1.0  0.11543022653560807  0.5615468491305509  0.39299341431584617  1.0000
  H   H39       1.0  0.1574725980211866  0.5091081057580169  0.4330218546741022  1.0000
  H   H40       1.0  0.7756339145142804  0.6334173892030749  0.13498841999545866  1.0000
  H   H41       1.0  0.7698689729893715  0.5591369545300893  0.17299952117809878  1.0000
  H   H42       1.0  0.8529200697638046  0.6042586444227211  0.14943903432654793  1.0000
  H   H43       1.0  0.4858491839634382  0.26554160189081705  0.5712474506879912  1.0000
  H   H44       1.0  0.5115645549348643  0.23882232183296281  0.6439181179892869  1.0000
  H   H45       1.0  0.43025324154601924  0.26213102233062097  0.6273160952934445  1.0000
  H   H46       1.0  0.09258761287452444  0.30043303669595645  0.6955555089535324  1.0000
  H   H47       1.0  0.003230971934726835  0.23382434030637714  0.7041564860430966  1.0000
  H   H48       1.0  0.03106783338166964  0.34279279154922193  0.7242943185007958  1.0000
  H   H49       1.0  0.0770164514429865  0.9610861276860235  0.8724712853043569  1.0000
  H   H50       1.0  0.0831122130201649  0.024983224886945307  0.9585531810711955  1.0000
  H   H51       1.0  0.16417239672971115  0.06562211597126581  0.9315448905825219  1.0000
  H   H52       1.0  0.6831931765288815  0.8399302444431598  0.6939797206717555  1.0000
  H   H53       1.0  0.6912166720235291  0.9424430281561272  0.7080877418318179  1.0000
  H   H54       1.0  0.617262517124786  0.8705990747792144  0.7270877070085644  1.0000
  C   C1        1.0  0.012120544270622702  0.07197611708148338  0.3209898687131342  1.0000
  C   C2        1.0  0.7907878350256539  0.9676301340260309  0.4670369004666027  1.0000
  C   C3        1.0  0.8264297929041503  0.7234843728872988  0.27925522152483484  1.0000
  C   C4        1.0  0.9788460812549787  0.20160255201325583  0.5617020238691736  1.0000
  C   C5        1.0  0.7596419994284461  0.7630059335302803  0.3387302019022512  1.0000
  C   C6        1.0  0.9537966517536418  0.11677136588946983  0.4509505722030694  1.0000
  C   C7        1.0  0.8179624288963582  0.05551081645132431  0.5764542101574434  1.0000
  C   C8        1.0  0.9454413090141359  0.9318483530659664  0.26677324541260816  1.0000
  C   C9        1.0  0.9519850328862205  0.0026200963586476035  0.25397851608879307  1.0000
  C   C10       1.0  0.7660996920667813  0.022102333489570507  0.5029521574595037  1.0000
  C   C11       1.0  0.7463664073998899  0.7026549007068114  0.2713633800047717  1.0000
  C   C12       1.0  0.9422022840839049  0.1833898181818512  0.4886500563953361  1.0000
  C   C13       1.0  0.24613555433663242  0.27746859051577394  0.5944505701258365  1.0000
  C   C14       1.0  0.9115508299111639  0.7338196649637823  0.4823856549841565  1.0000
  C   C15       1.0  0.17972438266813384  0.932464228186092  0.4013424239701207  1.0000
  C   C16       1.0  0.02112075496093982  0.06526304662290984  0.7266782987395217  1.0000
  C   C17       1.0  0.9290127317210946  0.9297970751892991  0.6633558940769928  1.0000
  C   C18       1.0  0.2310586333649738  0.06531175066770341  0.4854222383109671  1.0000
  C   C19       1.0  0.24307662097474753  0.24659257460734102  0.6855065675964906  1.0000
  C   C20       1.0  0.012747523349936939  0.7622481421967111  0.44776221175918346  1.0000
  C   C21       1.0  0.2873878925202504  0.3113324119349343  0.6694231880074638  1.0000
  C   C22       1.0  0.9551332987421618  0.6966232692937098  0.45523332460584937  1.0000
  C   C23       1.0  0.25294429912890587  0.0113735410864777  0.44271857980987045  1.0000
  C   C24       1.0  0.960554390400688  0.9990731974161663  0.731586049291195  1.0000
  C   C25       1.0  0.8837188680306413  0.35069322200673986  0.48329465494557394  1.0000
  C   C26       1.0  0.8918833909443861  0.2886975673650909  0.5011726576059699  1.0000
  C   C27       1.0  0.9178408381407903  0.23647046958261345  0.4625902407208286  1.0000
  C   C28       1.0  0.9294436713252594  0.24460754384975303  0.40199086009296525  1.0000
  C   C29       1.0  0.9231487623153782  0.30789887304938895  0.38546069152794604  1.0000
  C   C30       1.0  0.9036351975275565  0.3652188317482015  0.42748489831296865  1.0000
  C   C31       1.0  0.9873372380757743  0.5056300376018896  0.4286613542904972  1.0000
  C   C32       1.0  0.0011740658671115975  0.5875629938310639  0.43866392467329257  1.0000
  C   C33       1.0  0.9400251723267703  0.6094158228127426  0.4393693573087417  1.0000
  C   C34       1.0  0.8633735109218961  0.5458209678654738  0.4258438370899141  1.0000
  C   C35       1.0  0.8506794627802279  0.46526450668033453  0.4180354309245117  1.0000
  C   C36       1.0  0.9121409023147109  0.4437227455399793  0.4213842305052465  1.0000
  C   C37       1.0  0.5491812810560931  0.9655148124907669  0.42226803259806894  1.0000
  C   C38       1.0  0.6182051856667031  0.9580103557846373  0.44164706331187614  1.0000
  C   C39       1.0  0.6955375923652696  0.030279927099250908  0.47172370081680975  1.0000
  C   C40       1.0  0.7014970685140014  0.10762461437964532  0.47457885674236866  1.0000
  C   C41       1.0  0.6324385374167961  0.1151849171046138  0.4543872856059607  1.0000
  C   C42       1.0  0.5556083619330678  0.0452504732953827  0.43154158441009116  1.0000
  C   C43       1.0  0.47831926166507793  0.10432058645903201  0.4884900299588962  1.0000
  C   C44       1.0  0.4059551938788246  0.09651696153400743  0.4951186351770572  1.0000
  C   C45       1.0  0.33072923531377535  0.029516645079240802  0.43764556552071804  1.0000
  C   C46       1.0  0.33281623865676835  0.9803998473093217  0.37415858289727294  1.0000
  C   C47       1.0  0.405497068278777  0.9925684110261345  0.36838997388715455  1.0000
  C   C48       1.0  0.4812932046615331  0.05164497233207041  0.4267621816459694  1.0000
  C   C49       1.0  0.3549163034024758  0.3933274937013281  0.730261999630663  1.0000
  C   C50       1.0  0.34003972762594964  0.45908681321747485  0.7657778138951342  1.0000
  C   C51       1.0  0.3914534727816559  0.520277909507108  0.8370862336852622  1.0000
  C   C52       1.0  0.4569893971445254  0.5141537776208907  0.8739100586385999  1.0000
  C   C53       1.0  0.47851910505627154  0.45613082589849085  0.8359634236120779  1.0000
  C   C54       1.0  0.42788209357389934  0.3968100517967486  0.7645932682289495  1.0000
  C   C55       1.0  0.609114892463893  0.662123460315634  0.09580694032734986  1.0000
  C   C56       1.0  0.6606636939556978  0.7015077319812805  0.16801382267912143  1.0000
  C   C57       1.0  0.5672776897691634  0.5718931785214211  0.05472559537167136  1.0000
  C   C58       1.0  0.6739457658234187  0.6532790144240792  0.20285805604535045  1.0000
  C   C59       1.0  0.6263956160736512  0.5634359965167732  0.1635975184485972  1.0000
  C   C60       1.0  0.5755334197663302  0.5234017480667178  0.09085500749000623  1.0000
  C   C61       1.0  0.9157256729034272  0.008092975645901402  0.18872774926494165  1.0000
  C   C62       1.0  0.876614091586035  0.9380644451400999  0.1190742690767408  1.0000
  C   C63       1.0  0.8554343044964838  0.9492808017693264  0.057856567754796986  1.0000
  C   C64       1.0  0.8739384138521872  0.0315754252731111  0.06412617204848907  1.0000
  C   C65       1.0  0.905974481158708  0.10033420979636531  0.13317279160538215  1.0000
  C   C66       1.0  0.9252979023354014  0.0881665731900085  0.19415228625248196  1.0000
  C   C67       1.0  0.9489414686040759  0.03735184221202561  0.911881825231262  1.0000
  C   C68       1.0  0.9819319809317548  0.03622593198540611  0.8608414385181218  1.0000
  C   C69       1.0  0.864850929050128  0.0002252756497469  0.8919534290181017  1.0000
  C   C70       1.0  0.9302604153647991  0.0010743098450448029  0.7878038169924435  1.0000
  C   C71       1.0  0.8459418968784579  0.9651706924864957  0.767570803541723  1.0000
  C   C72       1.0  0.8121789651979371  0.9630985451799816  0.8181499034446771  1.0000
  C   C73       1.0  0.91975738923729  0.4710241075907859  0.589972091209624  1.0000
  C   C74       1.0  0.12207713794298775  0.5422972885227538  0.4366532995438063  1.0000
  C   C75       1.0  0.810129900217085  0.6163342848684793  0.17004571203047894  1.0000
  C   C76       1.0  0.4619979187671889  0.23316718151988883  0.6020057767982079  1.0000
  C   C77       1.0  0.030454679448958227  0.2853912771382952  0.6895836648978599  1.0000
  C   C78       1.0  0.09833988010773001  0.0270816557588418  0.9124951512241423  1.0000
  C   C79       1.0  0.6784280445962736  0.8939898945499751  0.728278478735717  1.0000
  N   N1        1.0  0.035485026528704104  0.043355386148583405  0.3677780641262345  1.0000
  N   N2        1.0  0.8507886522875836  0.9689523089336447  0.5164443741417414  1.0000
  N   N3        1.0  0.8794997004427642  0.7954637666695916  0.34234331375106536  1.0000
  N   N4        1.0  0.01165613443185263  0.15132525578206213  0.5660697948794109  1.0000
  N   N5        1.0  0.83861222143625  0.8187214699505176  0.3804190331827825  1.0000
  N   N6        1.0  0.9965859735780784  0.09773876026765291  0.4964474109183427  1.0000
  N   N7        1.0  0.8676369768475779  0.022761465611651495  0.5838429659807003  1.0000
  N   N8        1.0  0.9942737028797666  0.956332128430944  0.3346221975970636  1.0000
  N   N9        1.0  0.18140155664144686  0.1987363105717606  0.5686696324223988  1.0000
  N   N10       1.0  0.9406914906974395  0.8140161824974329  0.48910647087170367  1.0000
  N   N11       1.0  0.1199016872417077  0.9402096326209133  0.4178325905131642  1.0000
  N   N12       1.0  0.02308772278338721  0.036321093171892506  0.6604202643106162  1.0000
  N   N13       1.0  0.9665584443006027  0.953393009519928  0.6217776790814182  1.0000
  N   N14       1.0  0.15100698565413498  0.022518056541592602  0.4695317479872116  1.0000
  N   N15       1.0  0.17948641282803382  0.17979890048737704  0.6252953226016016  1.0000
  N   N16       1.0  0.003095347378327167  0.8327293029290105  0.467483666535834  1.0000
  N   N17       1.0  0.4954148951200495  0.5626886230159301  0.9496566674591661  1.0000
  N   N18       1.0  0.5223215717528333  0.5251800214143287  0.9798578866609942  1.0000
  N   N19       1.0  0.8780712649754676  0.05098012698318401  0.006665645546050262  1.0000
  N   N20       1.0  0.8343278618558687  0.9893746119075362  0.943258041886004  1.0000
  N   N21       1.0  0.06870655445711553  0.15395513593723822  0.7729588220520041  1.0000
  N   N22       1.0  0.5552370314572315  0.163091190964785  0.553920952123981  1.0000
  N   N23       1.0  0.4002122624479726  0.9416582626980131  0.2971646923941619  1.0000
  N   N24       1.0  0.6086778645356006  0.7201789501161003  0.06307684346884913  1.0000
  N   N25       1.0  0.6328371988968087  0.508419135102976  0.1980563998519499  1.0000
  N   N26       1.0  0.7012631526623069  0.7585556504091715  0.3695690346727146  1.0000
  N   N27       1.0  0.8213016939303798  0.11524005132656612  0.6407074763690443  1.0000
  N   N28       1.0  0.9061628564299938  0.8426212666931718  0.21515163009791385  1.0000
  O   O1        1.0  0.06724124462039782  0.18631305397529022  0.8319523143337122  1.0000
  O   O2        1.0  0.11314404662930143  0.2002587396585085  0.7491024350507727  1.0000
  O   O3        1.0  0.8570779828167687  0.3997236396264228  0.5230610924995744  1.0000
  O   O4        1.0  0.04562992133782737  0.4818971012879274  0.42928503607221546  1.0000
  O   O5        1.0  0.5676785022393601  0.13785446665486495  0.599838159145804  1.0000
  O   O6        1.0  0.6005422217498335  0.2329655697697461  0.5580267731786819  1.0000
  O   O7        1.0  0.8597265888049749  0.6871321549877507  0.24114090455120157  1.0000
  O   O8        1.0  0.4012604006840519  0.14454823808115694  0.5548510708103649  1.0000
  O   O9        1.0  0.45790516647750945  0.9726028203510426  0.28113604240341067  1.0000
  O   O10       1.0  0.33676795871915033  0.8717914467195343  0.25675489605380614  1.0000
  O   O11       1.0  0.6475335483586235  0.7267170118725091  0.025085545278777467  1.0000
  O   O12       1.0  0.5741903919198779  0.761214527036664  0.08030249900824052  1.0000
  O   O13       1.0  0.6083419345110103  0.432073114100085  0.15775489000403548  1.0000
  O   O14       1.0  0.6620124803191487  0.542005893375027  0.2649576325741804  1.0000
  O   O15       1.0  0.9809124005135174  0.26232333474515457  0.617261466974618  1.0000
  O   O16       1.0  0.06385594588745393  0.06771938203824851  0.879372452121707  1.0000
  O   O17       1.0  0.7317304758072751  0.9308624221243422  0.8023806676394541  1.0000
  O   O18       1.0  0.629669518055053  0.7268067311115233  0.3285176868592785  1.0000
  O   O19       1.0  0.7265695107403687  0.7852503587858947  0.4367447494491258  1.0000
  O   O20       1.0  0.7685319971743709  0.1371303748447588  0.6333792833780406  1.0000
  O   O21       1.0  0.8763996219211305  0.14137561840241372  0.6997882223319107  1.0000
  O   O22       1.0  0.8327178724453502  0.8055014285066732  0.17570222477002762  1.0000
  O   O23       1.0  0.9499545432350304  0.809176958505397  0.21252435671521397  1.0000
