data_image0
_chemical_formula_structural       Ag4H4C14O12
_chemical_formula_sum              "Ag4 H4 C14 O12"
_cell_length_a       3.9406670322964357
_cell_length_b       8.519260645798228
_cell_length_c       11.695836365317364
_cell_angle_alpha    89.02969839810704
_cell_angle_beta     85.63293034905861
_cell_angle_gamma    76.49916234041196

_space_group_name_H-M_alt    "P 1"
_space_group_IT_number       1

loop_
  _space_group_symop_operation_xyz
  'x, y, z'

loop_
  _atom_site_type_symbol
  _atom_site_label
  _atom_site_symmetry_multiplicity
  _atom_site_fract_x
  _atom_site_fract_y
  _atom_site_fract_z
  _atom_site_occupancy
  Ag  Ag1       1.0  0.07670557881047557  0.40442669379500973  0.394367221788066  1.0000
  Ag  Ag2       1.0  0.5171497840017452  0.4055567779783757  0.1059871267477916  1.0000
  Ag  Ag3       1.0  0.9233010108390617  0.5955733188665775  0.6056314754481065  1.0000
  Ag  Ag4       1.0  0.4828541840063067  0.5944432369307151  0.8940133348154974  1.0000
  H   H1        1.0  0.24417686434151875  0.05535999542210849  0.40668215190221707  1.0000
  H   H2        1.0  0.7024666398416669  0.055735354441360095  0.09228207305081781  1.0000
  H   H3        1.0  0.7558380443683108  0.94463880508723  0.5933146755083527  1.0000
  H   H4        1.0  0.2975420460666526  0.9442706908878263  0.9077156650490821  1.0000
  C   C1        1.0  0.9567632933214228  0.08888957581584117  0.24942812901325342  1.0000
  C   C2        1.0  0.04323619035514528  0.9111092346606282  0.750572437300292  1.0000
  C   C3        1.0  0.15087100503453124  0.9959582166286296  0.3376977440747809  1.0000
  C   C4        1.0  0.854221013477556  0.9960560441161801  0.16141581773391073  1.0000
  C   C5        1.0  0.8491272274527546  0.004043008624940099  0.6623036788694563  1.0000
  C   C6        1.0  0.14578352297220937  0.003942764063957301  0.8385854993377322  1.0000
  C   C7        1.0  0.23130813304193512  0.8319945297176544  0.33309012156131973  1.0000
  C   C8        1.0  0.9352337590369256  0.8320666332374672  0.1664976732049652  1.0000
  C   C9        1.0  0.7686894117407234  0.1680030749581718  0.6669104969402966  1.0000
  C   C10       1.0  0.06476018458570816  0.167938214010718  0.8335020916588576  1.0000
  C   C11       1.0  0.46579337524268266  0.7174577985939762  0.4089679151667269  1.0000
  C   C12       1.0  0.8141609109676224  0.7176250572545226  0.09096840197836542  1.0000
  C   C13       1.0  0.5342061465358439  0.28254101144276683  0.5910317952643497  1.0000
  C   C14       1.0  0.18583986695723798  0.2823761666310176  0.909032968403686  1.0000
  O   O1        1.0  0.12336967174926618  0.7507064844711665  0.24992427650884255  1.0000
  O   O2        1.0  0.8766214928670097  0.24929353815755914  0.7500781596302986  1.0000
  O   O3        1.0  0.571353852253182  0.7781770989724491  0.49363584853476544  1.0000
  O   O4        1.0  0.6451112745516596  0.7783267548270344  0.006845966433388593  1.0000
  O   O5        1.0  0.4286455883643826  0.22181688331787083  0.5063630570795752  1.0000
  O   O6        1.0  0.3548939065437224  0.22167084574468987  0.9931544943816775  1.0000
  O   O7        1.0  0.5455624216576495  0.57062550003738  0.3769162266721012  1.0000
  O   O8        1.0  0.8832808402265039  0.5707717567203048  0.12277769222841071  1.0000
  O   O9        1.0  0.4544378590723638  0.42937210107174195  0.6230800598549991  1.0000
  O   O10       1.0  0.11671461821146774  0.4292294725397027  0.8772289185728114  1.0000
  O   O11       1.0  0.8809716624157744  0.24250094513648426  0.24924777291037262  1.0000
  O   O12       1.0  0.11903416828227609  0.7575002764527169  0.7507543482297764  1.0000
