data_image0
_chemical_formula_structural       Ag4H44C56N8O8
_chemical_formula_sum              "Ag4 H44 C56 N8 O8"
_cell_length_a       7.859021101447985
_cell_length_b       9.528939453
_cell_length_c       17.1029
_cell_angle_alpha    90.0
_cell_angle_beta     96.58954564903937
_cell_angle_gamma    90.0

_space_group_name_H-M_alt    "P 1"
_space_group_IT_number       1

loop_
  _space_group_symop_operation_xyz
  'x, y, z'

loop_
  _atom_site_type_symbol
  _atom_site_label
  _atom_site_symmetry_multiplicity
  _atom_site_fract_x
  _atom_site_fract_y
  _atom_site_fract_z
  _atom_site_occupancy
  Ag  Ag1       1.0  0.289335266540931  0.0959907452987352  0.1521538749276417  1.0000
  Ag  Ag2       1.0  0.21067099609002335  0.0959917947334645  0.3478461337301084  1.0000
  Ag  Ag3       1.0  0.7106657307561194  0.9040082626706151  0.8478467038883082  1.0000
  Ag  Ag4       1.0  0.789330001207027  0.9040093121053444  0.6521544450858414  1.0000
  H   H1        1.0  0.7855693228919238  0.9326085073614505  0.019841700510859504  1.0000
  H   H2        1.0  0.7144328134961457  0.9326085073614505  0.4801609555733179  1.0000
  H   H3        1.0  0.21442783175017155  0.0673925994773583  0.9801586756744598  1.0000
  H   H4        1.0  0.285565622030937  0.0673852534342458  0.5198383187632131  1.0000
  H   H5        1.0  0.4860574251474788  0.8473052053508496  0.9924170827146456  1.0000
  H   H6        1.0  0.013944994828527504  0.8473073042203082  0.507586231489455  1.0000
  H   H7        1.0  0.5139422912645915  0.1526948520532301  0.007583428557758505  1.0000
  H   H8        1.0  0.9860521598135679  0.1526885554448469  0.4924135599997044  1.0000
  H   H9        1.0  0.32689721871751953  0.7716073794219724  0.1037940038091492  1.0000
  H   H10       1.0  0.17311416745337035  0.7716094782914382  0.3962132913767249  1.0000
  H   H11       1.0  0.6731024976945437  0.22839162854737785  0.8962065074632548  1.0000
  H   H12       1.0  0.8268868298436731  0.2283905791126415  0.6037867027430579  1.0000
  H   H13       1.0  0.4715808630502992  0.7748700719968795  0.2400443294048529  1.0000
  H   H14       1.0  0.028435646660540208  0.7748721708663382  0.2599632359551975  1.0000
  H   H15       1.0  0.5284214151317386  0.22512788653774146  0.7599563169546356  1.0000
  H   H16       1.0  0.9715666315214975  0.22512788653774146  0.7400362410119712  1.0000
  H   H17       1.0  0.292875632638669  0.42708530367655567  0.0882993792825886  1.0000
  H   H18       1.0  0.20712550645234987  0.42708950141547314  0.4117021132894791  1.0000
  H   H19       1.0  0.7071215220034264  0.5729116054233357  0.9117009969027308  1.0000
  H   H20       1.0  0.7928767717296881  0.5729116054233357  0.5882979483738495  1.0000
  H   H21       1.0  0.598371825031677  0.5733355770541664  0.086174449916065  1.0000
  H   H22       1.0  0.9016277495864244  0.5733355770541664  0.41382690168870784  1.0000
  H   H23       1.0  0.4016253296104183  0.4266644803499132  0.9138253415730943  1.0000
  H   H24       1.0  0.09837324771062583  0.4266644803499132  0.5861736771272419  1.0000
  H   H25       1.0  0.7048146481459625  0.1712268199465043  0.1847698625325975  1.0000
  H   H26       1.0  0.7951900500120674  0.1712268199465043  0.3152311745501848  1.0000
  H   H27       1.0  0.29518634915108083  0.8287742868923047  0.8152307162833523  1.0000
  H   H28       1.0  0.20481094728497606  0.8287732374575753  0.684769988961925  1.0000
  H   H29       1.0  0.9520702811692419  0.319734427427889  0.1732280883597426  1.0000
  H   H30       1.0  0.5479318552188206  0.319731279123701  0.3267728136359552  1.0000
  H   H31       1.0  0.0479294352428212  0.6802687782803787  0.8267694994318546  1.0000
  H   H32       1.0  0.4520704229632103  0.6802677288456492  0.6732295868120275  1.0000
  H   H33       1.0  0.9081154320339737  0.49908806992185356  0.1932930179427501  1.0000
  H   H34       1.0  0.5918828616991407  0.49908492161766554  0.30670651202999016  1.0000
  H   H35       1.0  0.09188300349310913  0.5009140863516848  0.8067050870014612  1.0000
  H   H36       1.0  0.4081168547129224  0.5009130369169554  0.6932945839385738  1.0000
  H   H37       1.0  0.9193500742348562  0.2512829483081802  0.020252315811944793  1.0000
  H   H38       1.0  0.5806507812682256  0.2512808494387214  0.4797479339440471  1.0000
  H   H39       1.0  0.0806496421772067  0.7487181585306288  0.9797452719796454  1.0000
  H   H40       1.0  0.419351496913805  0.7487181585306288  0.5202538818077754  1.0000
  H   H41       1.0  0.9880426550798094  0.6765747680315357  0.1060355285532992  1.0000
  H   H42       1.0  0.5119582004232728  0.6765737185968062  0.39396472120269277  1.0000
  H   H43       1.0  0.0119557804472734  0.3234263388072733  0.8939625763909191  1.0000
  H   H44       1.0  0.48804407775875813  0.323425289372544  0.6060382639414499  1.0000
  C   C1        1.0  0.7955461360378211  0.9072531148551093  0.1456313489620058  1.0000
  C   C2        1.0  0.7044624047751713  0.9072478676814625  0.3543704754475669  1.0000
  C   C3        1.0  0.20445229948926175  0.0927553380268051  0.8543685100706924  1.0000
  C   C4        1.0  0.2955373116368918  0.09275114028788779  0.64562828173635  1.0000
  C   C5        1.0  0.7159058312285609  0.8980747587084109  0.0681588079275599  1.0000
  C   C6        1.0  0.7840975860444888  0.8980716104042159  0.4318445003963305  1.0000
  C   C7        1.0  0.2840926042985218  0.10192949643459309  0.9318416358013052  1.0000
  C   C8        1.0  0.21589956859760664  0.10192319982620998  0.5681552910928288  1.0000
  C   C9        1.0  0.5475770500780615  0.8504304219761494  0.0527684057427038  1.0000
  C   C10       1.0  0.9524327716199184  0.8504325208456152  0.4472340709065747  1.0000
  C   C11       1.0  0.4524239472189891  0.149571734297389  0.9472321730732459  1.0000
  C   C12       1.0  0.04756438302217701  0.1495622893848179  0.5527657205825847  1.0000
  C   C13       1.0  0.4586426438197506  0.8085957559079873  0.1149971982844491  1.0000
  C   C14       1.0  0.0413687423511391  0.8085957559079873  0.3850065887244583  1.0000
  C   C15       1.0  0.5413583534772997  0.1914043014960924  0.8850027958353408  1.0000
  C   C16       1.0  0.9586296931759364  0.1914022026266338  0.614993855004407  1.0000
  C   C17       1.0  0.5400518507928924  0.8116275728423403  0.1919297910075315  1.0000
  C   C18       1.0  0.9599630944450157  0.8116307211465283  0.30807587929673025  1.0000
  C   C19       1.0  0.4599491465041581  0.18837143512701  0.8080696184160914  1.0000
  C   C20       1.0  0.0400379028520277  0.188368286822822  0.6919241148230597  1.0000
  C   C21       1.0  0.7081833756557502  0.8617003015393152  0.2088966568721844  1.0000
  C   C22       1.0  0.7918354122371201  0.8617044992782396  0.2911051231895669  1.0000
  C   C23       1.0  0.2918150598713325  0.1383008052994938  0.7911020327681938  1.0000
  C   C24       1.0  0.20816686594491784  0.1382976569953058  0.7088943537775947  1.0000
  C   C25       1.0  0.9646549761440042  0.982144974911513  0.16005136080313778  1.0000
  C   C26       1.0  0.5353510028990132  0.982144974911513  0.3399514979116702  1.0000
  C   C27       1.0  0.03533961672811611  0.017859280231483893  0.8399512190797437  1.0000
  C   C28       1.0  0.4646499943980373  0.0178561319272958  0.6600455727272987  1.0000
  C   C29       1.0  0.4229699969956116  0.3955329990908254  0.1085180599910203  1.0000
  C   C30       1.0  0.0770311420954073  0.3955361473950205  0.3914828478848875  1.0000
  C   C31       1.0  0.5770271576464836  0.6044649594437956  0.8914823161942991  1.0000
  C   C32       1.0  0.9229698552016432  0.6044670583132543  0.6085171462348953  1.0000
  C   C33       1.0  0.5727925518870409  0.4690731872152654  0.1069072406421014  1.0000
  C   C34       1.0  0.9272070227310609  0.4690731872152654  0.3930935262665045  1.0000
  C   C35       1.0  0.4272033218700742  0.530925820754085  0.893093067999672  1.0000
  C   C36       1.0  0.0727965363359573  0.530925820754085  0.6069066029403628  1.0000
  C   C37       1.0  0.6302556140710465  0.2585146030311307  0.15861099581981364  1.0000
  C   C38       1.0  0.8697465223170158  0.2585167019005894  0.34138932147972406  1.0000
  C   C39       1.0  0.3697428214560362  0.7414844049382197  0.8413888632128916  1.0000
  C   C40       1.0  0.1302544749800276  0.7414844049382197  0.6586112573362257  1.0000
  C   C41       1.0  0.8858177862201588  0.41473870408062646  0.149389963166513  1.0000
  C   C42       1.0  0.6141817883979357  0.4147376546458972  0.350609634349766  1.0000
  C   C43       1.0  0.1141806493069168  0.5852624027581825  0.8506075570815312  1.0000
  C   C44       1.0  0.3858192088991147  0.5852624027581825  0.6493921138585037  1.0000
  C   C45       1.0  0.9467853497223333  0.4586774867820154  0.0724828161638484  1.0000
  C   C46       1.0  0.5532180675507166  0.458679585651474  0.427516983983061  1.0000
  C   C47       1.0  0.0532143666897298  0.5413204717526057  0.9275147716277417  1.0000
  C   C48       1.0  0.4467854915163017  0.541321521187335  0.5724848993123003  1.0000
  C   C49       1.0  0.9539749571415046  0.3607715231014196  0.011788085097983007  1.0000
  C   C50       1.0  0.5460258983615776  0.3607715231014196  0.488210410569522  1.0000
  C   C51       1.0  0.046023478385571116  0.6392285343026599  0.9882076810615815  1.0000
  C   C52       1.0  0.4539776607054407  0.6392285343026599  0.5117914727258395  1.0000
  C   C53       1.0  0.993398035200876  0.5981158793285886  0.05993865909340461  1.0000
  C   C54       1.0  0.5066015394172185  0.5981169287633179  0.44006093842288146  1.0000
  C   C55       1.0  0.006597838556238902  0.4018841780754911  0.9400587260675621  1.0000
  C   C56       1.0  0.4934007387648124  0.4018841780754911  0.559940877328934  1.0000
  N   N1        1.0  0.4605255447472772  0.2645268145980708  0.1410441335981432  1.0000
  N   N2        1.0  0.039476875228729114  0.2645299629022659  0.3589568418213105  1.0000
  N   N3        1.0  0.5394728907798056  0.7354711439365501  0.858956894826882  1.0000
  N   N4        1.0  0.9605254029533088  0.7354721933712796  0.641044389234345  1.0000
  N   N5        1.0  0.7022298222468208  0.3811851274652014  0.1389225983640188  1.0000
  N   N6        1.0  0.7977697523712737  0.3811861768999307  0.36107816854459435  1.0000
  N   N7        1.0  0.2977673323952743  0.6188138805041488  0.8610766084289807  1.0000
  N   N8        1.0  0.2022312449257768  0.6188149299388783  0.6389224102713555  1.0000
  O   O1        1.0  0.9726310469437893  0.0891694195551338  0.2038330218662452  1.0000
  O   O2        1.0  0.5273838982941259  0.0891652218162093  0.2961685555648828  1.0000
  O   O3        1.0  0.027369950353261206  0.9108348355878704  0.7961693110381916  1.0000
  O   O4        1.0  0.4726209416578798  0.9108348355878704  0.7038293024008837  1.0000
  O   O5        1.0  0.0895786914056131  0.9365932110304482  0.1248658557811453  1.0000
  O   O6        1.0  0.41042757122534124  0.9365900627262604  0.3751359069650988  1.0000
  O   O7        1.0  0.9104210250064498  0.06340999467781928  0.8751369942759127  1.0000
  O   O8        1.0  0.5895734260717092  0.06341209354727788  0.6248623330661971  1.0000
