data_image0
_chemical_formula_structural       Zr6H74C108N2O32
_chemical_formula_sum              "Zr6 H74 C108 N2 O32"
_cell_length_a       19.024072625948474
_cell_length_b       19.019626603743138
_cell_length_c       19.025750612113427
_cell_angle_alpha    59.98337917447031
_cell_angle_beta     59.98282260817482
_cell_angle_gamma    60.01095583318324

_space_group_name_H-M_alt    "P 1"
_space_group_IT_number       1

loop_
  _space_group_symop_operation_xyz
  'x, y, z'

loop_
  _atom_site_type_symbol
  _atom_site_label
  _atom_site_symmetry_multiplicity
  _atom_site_fract_x
  _atom_site_fract_y
  _atom_site_fract_z
  _atom_site_occupancy
  Zr  Zr1       1.0  0.9069128179454892  0.9065466941384773  0.5933693776632792  1.0000
  Zr  Zr2       1.0  0.09319496298910228  0.09214874313310166  0.40772785172153186  1.0000
  Zr  Zr3       1.0  0.09264280668949716  0.9063571589167267  0.5936899380626456  1.0000
  Zr  Zr4       1.0  0.9073004495447564  0.09253225278686734  0.407539438935437  1.0000
  Zr  Zr5       1.0  0.09288807447008915  0.9065266479779128  0.40761838894933083  1.0000
  Zr  Zr6       1.0  0.9070787744923905  0.09238108878579229  0.59344163083648  1.0000
  H   H1        1.0  0.07281021529146157  0.7799312659720528  0.5737749138944394  1.0000
  H   H2        1.0  0.07347801906747259  0.07255287508511543  0.28111566139547506  1.0000
  H   H3        1.0  0.0730671495357528  0.072368824127203  0.5738855905207811  1.0000
  H   H4        1.0  0.7806372568165613  0.07278863648107867  0.5735142822851313  1.0000
  H   H5        1.0  0.12157619336495883  0.3111611380885933  0.3986182464809146  1.0000
  H   H6        1.0  0.8751671784808864  0.334500855872335  0.5986070187667352  1.0000
  H   H7        1.0  0.8982178332697263  0.6680209159593956  0.6219039835510569  1.0000
  H   H8        1.0  0.09796553872271821  0.6913975066637975  0.3753103476183595  1.0000
  H   H9        1.0  0.18784330681847178  0.4249476761922184  0.42243621326572617  1.0000
  H   H10       1.0  0.18340129200683458  0.42623118774884017  0.3310544141393592  1.0000
  H   H11       1.0  0.8103521721034997  0.5356389979757454  0.5787515414568246  1.0000
  H   H12       1.0  0.8163355310107793  0.4405364279135994  0.66950637321424  1.0000
  H   H13       1.0  0.9222717398222215  0.46407788436097497  0.6881264719544474  1.0000
  H   H14       1.0  0.8308603475972095  0.558595721298218  0.6838153971191331  1.0000
  H   H15       1.0  0.07853671190569869  0.5747461102914854  0.31047938688841004  1.0000
  H   H16       1.0  0.16918069588240323  0.5730321409341954  0.31664912019931524  1.0000
  H   H17       1.0  0.3113899672695268  0.12118261934665508  0.16892017731960607  1.0000
  H   H18       1.0  0.3351156158933718  0.8745949594531625  0.19200554544548248  1.0000
  H   H19       1.0  0.668237421411348  0.8980212247360628  0.8119417880286546  1.0000
  H   H20       1.0  0.6914224359696279  0.09796537007134276  0.8352589226394328  1.0000
  H   H21       1.0  0.42479830660843754  0.18770826949788955  0.9648005574426005  1.0000
  H   H22       1.0  0.4261138877026767  0.18341061539878467  0.059246518511038494  1.0000
  H   H23       1.0  0.5359156142035318  0.8100549842629403  0.07515242099007209  1.0000
  H   H24       1.0  0.44076875792968917  0.816167551474642  0.07356826010963151  1.0000
  H   H25       1.0  0.46415505959895187  0.9222222471200254  0.9255555598704316  1.0000
  H   H26       1.0  0.5587246405333419  0.8308342261021623  0.9266195571262371  1.0000
  H   H27       1.0  0.5747311496146779  0.0786338978348341  0.036072464208253184  1.0000
  H   H28       1.0  0.5728509961924645  0.1693388588507505  0.940972454591076  1.0000
  H   H29       1.0  0.8985529579618898  0.12120984977773477  0.811839165470104  1.0000
  H   H30       1.0  0.09795668255883808  0.8744526042115551  0.8359858587285344  1.0000
  H   H31       1.0  0.12168702278134448  0.8982565714814258  0.1687311837045371  1.0000
  H   H32       1.0  0.8752703182408227  0.09802579329127793  0.1918175133444463  1.0000
  H   H33       1.0  0.9227188967556332  0.1876692525617757  0.9252553514573023  1.0000
  H   H34       1.0  0.8312419777856804  0.18338483993633772  0.9265258108184964  1.0000
  H   H35       1.0  0.07866265773682118  0.8099812835226244  0.036489318087923606  1.0000
  H   H36       1.0  0.16927133360395902  0.8160846813748677  0.9415065205058538  1.0000
  H   H37       1.0  0.18793049573243084  0.9222061368029557  0.9647920292760191  1.0000
  H   H38       1.0  0.1836167218946017  0.8307941395902104  0.05937723754058054  1.0000
  H   H39       1.0  0.8105081517509091  0.07851079904518343  0.07519777180525  1.0000
  H   H40       1.0  0.8167169837274103  0.16924243731405397  0.07331151938300447  1.0000
  H   H41       1.0  0.31168589812022424  0.6681445287749243  0.3987096800206729  1.0000
  H   H42       1.0  0.3353323948250023  0.6912424726077405  0.5984106331078605  1.0000
  H   H43       1.0  0.6685457262423  0.31118839319165664  0.6218638195218062  1.0000
  H   H44       1.0  0.6919233624075289  0.3350602183021181  0.3751602988601234  1.0000
  H   H45       1.0  0.42555920898814026  0.46445972389169315  0.4222515685743957  1.0000
  H   H46       1.0  0.42692178973386063  0.5590443100977751  0.330871657835857  1.0000
  H   H47       1.0  0.5364123424988848  0.5746292943401273  0.5786724568537308  1.0000
  H   H48       1.0  0.44130913686434103  0.5729823938159769  0.6693698183502331  1.0000
  H   H49       1.0  0.46464263870463907  0.4249250945425589  0.6879989343173135  1.0000
  H   H50       1.0  0.559188285180021  0.42605129675854425  0.6837522671187201  1.0000
  H   H51       1.0  0.575574867880235  0.5358544722216506  0.310289604994658  1.0000
  H   H52       1.0  0.5737164752965994  0.4409303440611582  0.31640077876932077  1.0000
  H   H53       1.0  0.11191333423332848  0.3228095940373734  0.18002190667316847  1.0000
  H   H54       1.0  0.1775761165812851  0.43485980807272284  0.06717571950289879  1.0000
  H   H55       1.0  0.8848034985271056  0.322719370043359  0.18570786757187818  1.0000
  H   H56       1.0  0.8854316260874247  0.6785720004215678  0.8240714648851507  1.0000
  H   H57       1.0  0.8205514797790343  0.5657327091820505  0.9361560639412686  1.0000
  H   H58       1.0  0.10682929772870878  0.6843820562858626  0.8241267555016163  1.0000
  H   H59       1.0  0.31162415172877195  0.8976204097697718  0.6225831216692157  1.0000
  H   H60       1.0  0.3348800050579754  0.09743546865333748  0.37601479594049875  1.0000
  H   H61       1.0  0.6684462173833126  0.12139971635293267  0.39851549208458426  1.0000
  H   H62       1.0  0.6917086334889718  0.87484813538417  0.5983443809478499  1.0000
  H   H63       1.0  0.42548231870267766  0.9220694577112172  0.6883709452454809  1.0000
  H   H64       1.0  0.4264856438182535  0.8305570529711803  0.6844034542970475  1.0000
  H   H65       1.0  0.5356626567496932  0.07832387158243403  0.3107904932617984  1.0000
  H   H66       1.0  0.4405595415873336  0.16894771829946365  0.3172109453597613  1.0000
  H   H67       1.0  0.4645492092234989  0.1875602951461063  0.42272021258929016  1.0000
  H   H68       1.0  0.5589487332316383  0.1832109095927663  0.3311756349847811  1.0000
  H   H69       1.0  0.5749617417213317  0.8099354974152819  0.5790744639364788  1.0000
  H   H70       1.0  0.5734903676896367  0.8160728792140618  0.6696233886964007  1.0000
  H   H71       1.0  0.20434205909568712  0.6115954991834371  0.8684355628402115  1.0000
  H   H72       1.0  0.24194626798205135  0.5397776521086685  0.9512837965597923  1.0000
  H   H73       1.0  0.8154736570272263  0.36724799637280386  0.11336097022712725  1.0000
  H   H74       1.0  0.7671330691834723  0.44979413334975504  0.04114958583129882  1.0000
  C   C1        1.0  0.9974288640903809  0.765606707499579  0.49820432837073975  1.0000
  C   C2        1.0  0.23860382043130116  0.9972281808474294  0.2665890910583854  1.0000
  C   C3        1.0  0.997982645989495  0.2378764728767422  0.4981314495704935  1.0000
  C   C4        1.0  0.7658830251591338  0.997165939474762  0.7389168528333626  1.0000
  C   C5        1.0  0.9970466525231033  0.7652734696839402  0.7393891453237129  1.0000
  C   C6        1.0  0.7660092122909535  0.9976815166562151  0.4978153914423443  1.0000
  C   C7        1.0  0.998312654094711  0.23811452814094047  0.2665863433483082  1.0000
  C   C8        1.0  0.23851606270719847  0.9967036732406102  0.49881688120724726  1.0000
  C   C9        1.0  0.23837919736416807  0.7653347372561256  0.4983442175777313  1.0000
  C   C10       1.0  0.9975775019081965  0.9971857989560109  0.7391673292233704  1.0000
  C   C11       1.0  0.7661251626410321  0.23816988940447462  0.49813629311103097  1.0000
  C   C12       1.0  0.9979391787226465  0.9975420046522812  0.2662504513033568  1.0000
  C   C13       1.0  0.14513168178001482  0.4505848687044748  0.385569976863934  1.0000
  C   C14       1.0  0.8539131714338809  0.481718766576428  0.6146861609944521  1.0000
  C   C15       1.0  0.885325971170502  0.5180227301585846  0.6454861262512066  1.0000
  C   C16       1.0  0.11434660443188706  0.5491352094107569  0.3541485238658453  1.0000
  C   C17       1.0  0.06828456561697051  0.3457739084571402  0.4423191333434743  1.0000
  C   C18       1.0  0.06988472652238913  0.4178428604129252  0.4428643881702142  1.0000
  C   C19       1.0  0.9289198093325198  0.35896070325550516  0.5554719274912542  1.0000
  C   C20       1.0  0.9285816385532754  0.43181173695559477  0.5564382803087824  1.0000
  C   C21       1.0  0.9418478448530082  0.6430609571138819  0.5685626225549355  1.0000
  C   C22       1.0  0.9425029017404399  0.5688049326601926  0.5701676772727636  1.0000
  C   C23       1.0  0.05489635088812143  0.6562452989689477  0.42909603404591207  1.0000
  C   C24       1.0  0.05602398965567091  0.5826658267237194  0.4287830393686959  1.0000
  C   C25       1.0  0.9982239365953945  0.31591269876467726  0.49842892650001847  1.0000
  C   C26       1.0  0.9994643747329162  0.46150930758395253  0.4998862219095199  1.0000
  C   C27       1.0  0.9978598143148433  0.686972898132254  0.4984358901209306  1.0000
  C   C28       1.0  0.9995451019973205  0.5385604670130705  0.4997307404166095  1.0000
  C   C29       1.0  0.45052039201872424  0.14507133195662192  0.01869217518344612  1.0000
  C   C30       1.0  0.4819738613412738  0.8537002732586957  0.04964831780049655  1.0000
  C   C31       1.0  0.5181602968510219  0.8852596330720819  0.9511076899512005  1.0000
  C   C32       1.0  0.5490492150826471  0.11442793259114833  0.9822402301746391  1.0000
  C   C33       1.0  0.34606791466938347  0.06789302789417219  0.14388325534510218  1.0000
  C   C34       1.0  0.4179683537396884  0.06967889169082753  0.06951056545975115  1.0000
  C   C35       1.0  0.35945193347098575  0.928444224033882  0.15689364326348706  1.0000
  C   C36       1.0  0.43213173919623676  0.9282949516488588  0.08324305471493437  1.0000
  C   C37       1.0  0.6431868670811274  0.9417646525078068  0.8465133153275415  1.0000
  C   C38       1.0  0.5688837339398135  0.9424767328982355  0.9184603718850394  1.0000
  C   C39       1.0  0.6562737778451223  0.05489926618522401  0.8596875293014533  1.0000
  C   C40       1.0  0.5826534330039763  0.05606847911187878  0.9324034282979453  1.0000
  C   C41       1.0  0.31641366569048296  0.9976650926436934  0.1877980836051663  1.0000
  C   C42       1.0  0.4616669420216939  0.999299895007802  0.03916868115381098  1.0000
  C   C43       1.0  0.6871058181870069  0.9977547239754687  0.8167298669815962  1.0000
  C   C44       1.0  0.5386080442341522  0.9995294553354984  0.9620915792404714  1.0000
  C   C45       1.0  0.8856948397610795  0.14504978395819296  0.9509632262457187  1.0000
  C   C46       1.0  0.1144895730792119  0.8536888174399593  0.9826209672743289  1.0000
  C   C47       1.0  0.14527967306376885  0.885240004224947  0.01881145842462929  1.0000
  C   C48       1.0  0.8542139195956723  0.11434651730403539  0.049514316947110636  1.0000
  C   C49       1.0  0.9421421808836001  0.06790654072587213  0.846568187227369  1.0000
  C   C50       1.0  0.9428097073194197  0.06965801663699293  0.9184685835354284  1.0000
  C   C51       1.0  0.05501935374810087  0.9284028719268919  0.8601282906989737  1.0000
  C   C52       1.0  0.056214463782502874  0.9282711916028816  0.9327420147040539  1.0000
  C   C53       1.0  0.0683875332726915  0.9419020240714885  0.14372922061320992  1.0000
  C   C54       1.0  0.07002907217287202  0.9424835326759506  0.06949223754006094  1.0000
  C   C55       1.0  0.929079280345384  0.055004486509965124  0.15666831633383532  1.0000
  C   C56       1.0  0.928796029857601  0.056060954490391265  0.08312918332465095  1.0000
  C   C57       1.0  0.9980446793133666  0.9976503299974484  0.8169934152385351  1.0000
  C   C58       1.0  0.9997974657769436  0.9992917475520642  0.9621982380628108  1.0000
  C   C59       1.0  0.9983070249847189  0.9979611465842029  0.1875492954629792  1.0000
  C   C60       1.0  0.999672002877695  0.9995026916294589  0.039152912810564613  1.0000
  C   C61       1.0  0.45126909292591216  0.5183959486967781  0.38538908534516725  1.0000
  C   C62       1.0  0.48246196694240984  0.549070621496469  0.6145505169807491  1.0000
  C   C63       1.0  0.5186527973265244  0.4505248587614474  0.6453843154620742  1.0000
  C   C64       1.0  0.549804050325001  0.48205792511706863  0.3539820045428925  1.0000
  C   C65       1.0  0.3463969472215924  0.6431450422866972  0.44230368185092306  1.0000
  C   C66       1.0  0.41852283679412505  0.569014534569611  0.4427206207016284  1.0000
  C   C67       1.0  0.35971162222455894  0.6561257541701478  0.5553558764343194  1.0000
  C   C68       1.0  0.4325499334804802  0.5826649547877168  0.5562911507886739  1.0000
  C   C69       1.0  0.643632807138097  0.34591891323444207  0.5684911807827929  1.0000
  C   C70       1.0  0.5694211844517982  0.417946137899307  0.5700589591450792  1.0000
  C   C71       1.0  0.6567935177503585  0.359337477846573  0.42901649875383185  1.0000
  C   C72       1.0  0.5832623234248119  0.43212722459713154  0.4286627710116874  1.0000
  C   C73       1.0  0.3165335489889642  0.686884563719687  0.49845714778663097  1.0000
  C   C74       1.0  0.46219521937578634  0.5386892937960895  0.4997395958508973  1.0000
  C   C75       1.0  0.6875326943676684  0.31618914344380766  0.4983540794702534  1.0000
  C   C76       1.0  0.5392031165790031  0.4616966495325699  0.49960351013560694  1.0000
  C   C77       1.0  0.06264859853054365  0.3525631638086324  0.15063779631246624  1.0000
  C   C78       1.0  0.06356082164733584  0.42630669472769256  0.07671613425009839  1.0000
  C   C79       1.0  0.12804152493809084  0.46468304069679783  0.03789007906869559  1.0000
  C   C80       1.0  0.9338249029885758  0.35307972812616156  0.15247264587015508  1.0000
  C   C81       1.0  0.9326887638361826  0.4259526192624323  0.07819176852031973  1.0000
  C   C82       1.0  0.8673468013331558  0.46473935579711423  0.03896496577309701  1.0000
  C   C83       1.0  0.9343195947490063  0.6492343599416727  0.8538219998426583  1.0000
  C   C84       1.0  0.933577617100681  0.5753109862065531  0.9275813682708713  1.0000
  C   C85       1.0  0.8695162457722105  0.5365213334862489  0.9659971063454121  1.0000
  C   C86       1.0  0.06076305830239189  0.651085295690237  0.8543606088950282  1.0000
  C   C87       1.0  0.06330891966696618  0.576802503254534  0.9272420940840359  1.0000
  C   C88       1.0  0.12906111342132245  0.5376101805339459  0.9660715470505321  1.0000
  C   C89       1.0  0.9984139534110383  0.3165223664724623  0.1881109907331718  1.0000
  C   C90       1.0  0.9980290716419447  0.4636064992587379  0.03957543359661733  1.0000
  C   C91       1.0  0.9971043702834026  0.6867271396991088  0.8177828055774086  1.0000
  C   C92       1.0  0.998926329348187  0.5381963311860931  0.9649097162001465  1.0000
  C   C93       1.0  0.45095912613067646  0.8850373182193824  0.6458574763200884  1.0000
  C   C94       1.0  0.481882673411178  0.11409050046577839  0.35456059415163566  1.0000
  C   C95       1.0  0.5184056772295449  0.14486704149889815  0.38578461645914763  1.0000
  C   C96       1.0  0.5494963886133135  0.8535816388233002  0.6148834087380591  1.0000
  C   C97       1.0  0.34624554341768754  0.9413162181108988  0.5691721554541118  1.0000
  C   C98       1.0  0.41822916378579583  0.9421201798782093  0.5706423090505125  1.0000
  C   C99       1.0  0.35936257715595593  0.05441032047211541  0.42973678908889906  1.0000
  C   C100      1.0  0.4321117161183211  0.05566446973897148  0.42928666643926755  1.0000
  C   C101      1.0  0.6434842952855462  0.06802128447638014  0.4421880401321373  1.0000
  C   C102      1.0  0.5692177293393073  0.06959275366719449  0.4428998925439557  1.0000
  C   C103      1.0  0.6565909088444428  0.928599803233425  0.5552788775002567  1.0000
  C   C104      1.0  0.5830306077836623  0.9282523449841522  0.5564549576500325  1.0000
  C   C105      1.0  0.31641192731167683  0.9972470690163178  0.4990988582722622  1.0000
  C   C106      1.0  0.46185835325446345  0.9991884988393313  0.5001103060056379  1.0000
  C   C107      1.0  0.6873727712345497  0.9979471831790436  0.4981930624419135  1.0000
  C   C108      1.0  0.5389297556590479  0.9991446380252427  0.5000194064049597  1.0000
  N   N1        1.0  0.1895872325123733  0.5767445467180253  0.9320721025354073  1.0000
  N   N2        1.0  0.801662759371112  0.43077833355449274  0.07811594125206506  1.0000
  O   O1        1.0  0.9383192169221388  0.7956258370086504  0.5587185169850242  1.0000
  O   O2        1.0  0.2072838327874464  0.05761679704464487  0.29673210143874934  1.0000
  O   O3        1.0  0.05863194136740194  0.2062263790407927  0.4392153324423588  1.0000
  O   O4        1.0  0.7959161387506908  0.9380729453606096  0.7074470416778736  1.0000
  O   O5        1.0  0.05734956536789343  0.7955792211738387  0.7081771977802516  1.0000
  O   O6        1.0  0.7960550441247918  0.058252299391945477  0.43879539723786104  1.0000
  O   O7        1.0  0.9388970527494607  0.20695593312194666  0.29683502509796256  1.0000
  O   O8        1.0  0.2069379605301623  0.9376607398735787  0.5593825065376663  1.0000
  O   O9        1.0  0.20685741198818886  0.7953799820642544  0.4393151080531509  1.0000
  O   O10       1.0  0.9385782280012837  0.05775692535505779  0.7075911622886152  1.0000
  O   O11       1.0  0.7960452968946897  0.20657712303754763  0.5587645042230347  1.0000
  O   O12       1.0  0.05833018665736494  0.9383394681830167  0.29640402916653125  1.0000
  O   O13       1.0  0.05696353060312007  0.9370585429540557  0.7087075498522494  1.0000
  O   O14       1.0  0.7972505058647883  0.20756694213805105  0.4381320423827403  1.0000
  O   O15       1.0  0.9380226345081724  0.05715175036971949  0.29724580975374676  1.0000
  O   O16       1.0  0.20763706519639413  0.7961938100922482  0.5580787443549439  1.0000
  O   O17       1.0  0.9376795039842278  0.7958794042349527  0.7082236193181257  1.0000
  O   O18       1.0  0.2080661159055169  0.05616704292308586  0.4387226123778872  1.0000
  O   O19       1.0  0.058252507712786915  0.20692462347458473  0.29716908319373647  1.0000
  O   O20       1.0  0.7970094257671145  0.9376180098613178  0.5573550298177281  1.0000
  O   O21       1.0  0.797089862209397  0.05661378381503118  0.7083421552020465  1.0000
  O   O22       1.0  0.05700936022129346  0.7966928947171824  0.43825914606603067  1.0000
  O   O23       1.0  0.20792984478830326  0.9372344237375645  0.2976955762423117  1.0000
  O   O24       1.0  0.9379281355634106  0.2072947108299065  0.5576493040895157  1.0000
  O   O25       1.0  0.8430262040622551  0.05190162675976517  0.5527411007733959  1.0000
  O   O26       1.0  0.05233486957811095  0.051555895675349475  0.5530413341391238  1.0000
  O   O27       1.0  0.05251825387365736  0.05178776661905003  0.3435380236417487  1.0000
  O   O28       1.0  0.05213318200451788  0.8423446898618681  0.5529759835374718  1.0000
  O   O29       1.0  0.1156780132056098  0.9606875209496053  0.4621558284047039  1.0000
  O   O30       1.0  0.9614220104505906  0.9609765594048839  0.4618953734897173  1.0000
  O   O31       1.0  0.9616362331280753  0.11518192911926678  0.4619300713840672  1.0000
  O   O32       1.0  0.9612477015583992  0.9607847213222911  0.6163354698768018  1.0000
