data_image0
_chemical_formula_structural       CdH18C20S2N8O2
_chemical_formula_sum              "Cd1 H18 C20 S2 N8 O2"
_cell_length_a       5.919333855855474
_cell_length_b       7.975616449567463
_cell_length_c       12.776023044638984
_cell_angle_alpha    72.67615897998192
_cell_angle_beta     87.46464348687897
_cell_angle_gamma    82.41215140805328

_space_group_name_H-M_alt    "P 1"
_space_group_IT_number       1

loop_
  _space_group_symop_operation_xyz
  'x, y, z'

loop_
  _atom_site_type_symbol
  _atom_site_label
  _atom_site_symmetry_multiplicity
  _atom_site_fract_x
  _atom_site_fract_y
  _atom_site_fract_z
  _atom_site_occupancy
  Cd  Cd1       1.0  0.500008006986036  0.9999977376410315  0.9999957393347502  1.0000
  H   H1        1.0  0.4898130681552076  0.24053825893257402  0.5014078756036255  1.0000
  H   H2        1.0  0.5101699548929517  0.7594618022317337  0.49859460396515937  1.0000
  H   H3        1.0  0.7260795845808163  0.3182843262338509  0.6094715311854628  1.0000
  H   H4        1.0  0.2739125138135138  0.6817130039391021  0.3905382558163382  1.0000
  H   H5        1.0  0.8638207576476448  0.09769657449611913  0.649534479182293  1.0000
  H   H6        1.0  0.13617704291534244  0.9023073437444324  0.3504715854448436  1.0000
  H   H7        1.0  0.3826993239862233  0.1353998695911685  0.3604313557943613  1.0000
  H   H8        1.0  0.6173029940595712  0.8645948017880655  0.6395676902822275  1.0000
  H   H9        1.0  0.6748797886634749  0.09411299605200442  0.32249911208928944  1.0000
  H   H10       1.0  0.3251242317221782  0.9058948449682022  0.6775076241238835  1.0000
  H   H11       1.0  0.8696595491809022  0.3368414065601116  0.19781162466984634  1.0000
  H   H12       1.0  0.13034242343231034  0.6631440165035086  0.8021875788904821  1.0000
  H   H13       1.0  0.8232013528148416  0.6380254784563135  0.06163361794017419  1.0000
  H   H14       1.0  0.17680388557529622  0.3619599419912021  0.9383615844146361  1.0000
  H   H15       1.0  0.15239584618555577  0.7375779355517977  0.15535600861532117  1.0000
  H   H16       1.0  0.8476156066390886  0.2624232961794205  0.8446407936024585  1.0000
  H   H17       1.0  0.16947632442250443  0.4381376184310923  0.294186363933207  1.0000
  H   H18       1.0  0.83052757679652  0.5618702405173296  0.7058164581932614  1.0000
  C   C1        1.0  0.9775243567332055  0.054239937191468406  0.1212357045283596  1.0000
  C   C2        1.0  0.02248974569210563  0.9457533780448201  0.8787546655786259  1.0000
  C   C3        1.0  0.08306895025482669  0.29021925699004925  0.5948559458470798  1.0000
  C   C4        1.0  0.9169224020203333  0.7097939542404247  0.40514935271660596  1.0000
  C   C5        1.0  0.8664210010188995  0.22890665208015554  0.5882032451411519  1.0000
  C   C6        1.0  0.13356622239275145  0.7710999787387747  0.4118018181510905  1.0000
  C   C7        1.0  0.8336373244802646  0.20900805615302437  0.47393230208103887  1.0000
  C   C8        1.0  0.1663477819396917  0.7910237178968419  0.5260673760314276  1.0000
  C   C9        1.0  0.5466796285715674  0.1881788348547886  0.3468669079213171  1.0000
  C   C10       1.0  0.4533202152839237  0.8118224329251548  0.6531380273857297  1.0000
  C   C11       1.0  0.5236099440114971  0.36485240032993005  0.2588819039540127  1.0000
  C   C12       1.0  0.4763953843237871  0.6351448942790653  0.74111735794709  1.0000
  C   C13       1.0  0.7076045778149975  0.4215888612006182  0.19129091878078697  1.0000
  C   C14       1.0  0.2923909226770648  0.5784058584385647  0.8087067358987597  1.0000
  C   C15       1.0  0.6832279713325421  0.5892680909811576  0.11588622317785274  1.0000
  C   C16       1.0  0.3167744506236474  0.4107252710607909  0.8841099315663783  1.0000
  C   C17       1.0  0.30874206638383594  0.6449345503886121  0.16764204815249428  1.0000
  C   C18       1.0  0.6912672954816518  0.35506933897450926  0.832354317750692  1.0000
  C   C19       1.0  0.3190436119547826  0.4791147830250183  0.245048976527535  1.0000
  C   C20       1.0  0.680950836075077  0.5208878571795097  0.7549519354340362  1.0000
  S   S1        1.0  0.21559706092264014  0.11639299751573161  0.1470596676153235  1.0000
  S   S2        1.0  0.7844183593203911  0.8836029512224924  0.8529309618755931  1.0000
  N   N1        1.0  0.8038415498781789  0.006945796291056201  0.10610181293790083  1.0000
  N   N2        1.0  0.19617892933499098  0.9930382367122519  0.8938869747805143  1.0000
  N   N3        1.0  0.4884274163174711  0.7005434641462214  0.10470304257081862  1.0000
  N   N4        1.0  0.5115793899896559  0.2994538524613973  0.8952891304148238  1.0000
  N   N5        1.0  0.6147631308193695  0.20587750068906982  0.4511192390490565  1.0000
  N   N6        1.0  0.3852284499209517  0.7941224947718339  0.5488861539920364  1.0000
  N   N7        1.0  0.2605356210824752  0.3369052312344892  0.5978182852882483  1.0000
  N   N8        1.0  0.7394364177498787  0.6631014848626365  0.4021887356733629  1.0000
  O   O1        1.0  0.9968021179531804  0.19065145373841827  0.4123933700054963  1.0000
  O   O2        1.0  0.003182910588918692  0.8093591440496937  0.5876141483045104  1.0000
