data_image0
_chemical_formula_structural       Zn2H14C18N2O8
_chemical_formula_sum              "Zn2 H14 C18 N2 O8"
_cell_length_a       7.411733608383909
_cell_length_b       8.216198137854791
_cell_length_c       8.21619085505207
_cell_angle_alpha    116.53312763976257
_cell_angle_beta     102.45059057422415
_cell_angle_gamma    102.45082069958112

_space_group_name_H-M_alt    "P 1"
_space_group_IT_number       1

loop_
  _space_group_symop_operation_xyz
  'x, y, z'

loop_
  _atom_site_type_symbol
  _atom_site_label
  _atom_site_symmetry_multiplicity
  _atom_site_fract_x
  _atom_site_fract_y
  _atom_site_fract_z
  _atom_site_occupancy
  Zn  Zn1       1.0  0.7499999571015864  0.9163000724938404  0.0837018972273854  1.0000
  Zn  Zn2       1.0  0.24999949241427544  0.08369704498850443  0.9162993563661458  1.0000
  H   H1        1.0  0.2500055873274576  0.5068948465170849  0.49311011522785  1.0000
  H   H2        1.0  0.7499976407827235  0.49310523174896304  0.5068919579938935  1.0000
  H   H3        1.0  0.11643520024767179  0.3856901617593067  0.052514172680794516  1.0000
  H   H4        1.0  0.3835629208458543  0.9474802893119617  0.6143036462189642  1.0000
  H   H5        1.0  0.8835600270121732  0.6143068929304863  0.9474813998204041  1.0000
  H   H6        1.0  0.6164399029860661  0.052522681585728  0.385697221946934  1.0000
  H   H7        1.0  0.20470005592477492  0.6293129014328471  0.10145502126680125  1.0000
  H   H8        1.0  0.29529968992639516  0.8985394056928584  0.37068260877263975  1.0000
  H   H9        1.0  0.7952975731422853  0.3706870889412884  0.8985423210382706  1.0000
  H   H10       1.0  0.7047035119281588  0.1014606761462034  0.6293170268435871  1.0000
  H   H11       1.0  0.37183761640638835  0.5240820674972896  0.1656029539727867  1.0000
  H   H12       1.0  0.1281653468034492  0.8343968733995695  0.475914498567576  1.0000
  H   H13       1.0  0.6281642217888715  0.47591798745590097  0.8343988506218519  1.0000
  H   H14       1.0  0.8718378681789218  0.1656032066529818  0.5240863558514092  1.0000
  C   C1        1.0  0.2957023041391764  0.736914062903324  0.8699988116048584  1.0000
  C   C2        1.0  0.20429913784528958  0.1300068134068084  0.2630888142786958  1.0000
  C   C3        1.0  0.7043020408858139  0.26308891344217505  0.13001451321570553  1.0000
  C   C4        1.0  0.7956917425896464  0.8699814701366294  0.7369092988816417  1.0000
  C   C5        1.0  0.2603505056467769  0.5227003665309341  0.7639887365659986  1.0000
  C   C6        1.0  0.23965011629012883  0.23601684072338713  0.4773024427249338  1.0000
  C   C7        1.0  0.7396420828345641  0.4773009849910183  0.23600950062181883  1.0000
  C   C8        1.0  0.7603535915105725  0.7639846973014173  0.5226979434796843  1.0000
  C   C9        1.0  0.25000154249264744  0.4289799547005516  0.5710287681447639  1.0000
  C   C10       1.0  0.7499989189155087  0.5710200751532781  0.4289739866255358  1.0000
  C   C11       1.0  0.25078214668257465  0.4160337067746909  0.8583417223230112  1.0000
  C   C12       1.0  0.24921912019484443  0.1416600727442869  0.5839674300388822  1.0000
  C   C13       1.0  0.7492206771493528  0.5839692641229988  0.14165914584288694  1.0000
  C   C14       1.0  0.7507789000226595  0.8583370267847173  0.41602989851927663  1.0000
  C   C15       1.0  0.2351329917391496  0.4945697241103987  0.055640529544192005  1.0000
  C   C16       1.0  0.264869046463687  0.9443592126155662  0.5054270701082756  1.0000
  C   C17       1.0  0.7648646635835378  0.50543026269073  0.9443592503663893  1.0000
  C   C18       1.0  0.7351346613370141  0.055642325409238  0.4945733160963357  1.0000
  N   N1        1.0  0.2500022028163116  0.231671531819238  0.7683274355420763  1.0000
  N   N2        1.0  0.7500001150694686  0.7683299828927093  0.23167268203543767  1.0000
  O   O1        1.0  0.42848996060224204  0.8440612770884711  0.03712617479050086  1.0000
  O   O2        1.0  0.07151397853860435  0.9628773593584015  0.15594088487286234  1.0000
  O   O3        1.0  0.5715057069646791  0.1559372427195882  0.9628640542852975  1.0000
  O   O4        1.0  0.9284922327371917  0.0371314631681301  0.8440608166681611  1.0000
  O   O5        1.0  0.1904758873496349  0.7965888128622896  0.779425732482224  1.0000
  O   O6        1.0  0.3095254335260408  0.22057325369289774  0.20340937798463438  1.0000
  O   O7        1.0  0.8095198196007303  0.20340970158625282  0.22056815300184948  1.0000
  O   O8        1.0  0.6904787933486177  0.7794297387311463  0.7965929776111196  1.0000
