data_image0
_chemical_formula_structural       Tl4H40C32N4O8
_chemical_formula_sum              "Tl4 H40 C32 N4 O8"
_cell_length_a       6.723658190116224
_cell_length_b       10.403864233915023
_cell_length_c       13.464850270528782
_cell_angle_alpha    85.3492384201402
_cell_angle_beta     81.70335123585693
_cell_angle_gamma    83.62974911023862

_space_group_name_H-M_alt    "P 1"
_space_group_IT_number       1

loop_
  _space_group_symop_operation_xyz
  'x, y, z'

loop_
  _atom_site_type_symbol
  _atom_site_label
  _atom_site_symmetry_multiplicity
  _atom_site_fract_x
  _atom_site_fract_y
  _atom_site_fract_z
  _atom_site_occupancy
  Tl  Tl1       1.0  0.1424410298596328  0.4965385125403967  0.7145278691772036  1.0000
  Tl  Tl2       1.0  0.8575580865615534  0.5034604551317939  0.2854734572846738  1.0000
  Tl  Tl3       1.0  0.5681102285442279  0.7118035659299335  0.7577826481406047  1.0000
  Tl  Tl4       1.0  0.4318881188666238  0.2882002626395418  0.24221621981673278  1.0000
  H   H1        1.0  0.33870413167421276  0.18939360897267218  0.6710832087712502  1.0000
  H   H2        1.0  0.661288972019065  0.8106053788223516  0.3289148353536078  1.0000
  H   H3        1.0  0.25849312774781913  0.974693249120882  0.6177869529881193  1.0000
  H   H4        1.0  0.7415085315944693  0.025308662439222498  0.38220881882156726  1.0000
  H   H5        1.0  0.9012962545675902  0.9524322041489198  0.5936889000048422  1.0000
  H   H6        1.0  0.09870632610589068  0.047563901542410685  0.4063056614881333  1.0000
  H   H7        1.0  0.6390890658598849  0.14268686151654456  0.6262277946094983  1.0000
  H   H8        1.0  0.3609058479714733  0.857310188792347  0.3737702332729852  1.0000
  H   H9        1.0  0.14099758793103231  0.5204043903153559  0.9148926337973151  1.0000
  H   H10       1.0  0.8590040732627597  0.4795974872347911  0.0851083386650799  1.0000
  H   H11       1.0  0.18888584357719654  0.35270069215675187  0.8869143232283178  1.0000
  H   H12       1.0  0.8111126582705238  0.6473021525727132  0.11308681951085484  1.0000
  H   H13       1.0  0.9362622779601181  0.43312730866006166  0.8943897216859042  1.0000
  H   H14       1.0  0.0637363780599713  0.5668745570879494  0.10561295288471938  1.0000
  H   H15       1.0  0.10213706389095027  0.6443322910953169  0.5439033989461848  1.0000
  H   H16       1.0  0.8978585856329316  0.3556695871433958  0.4560972629807337  1.0000
  H   H17       1.0  0.1920795289503728  0.48136682833916916  0.5135337445862973  1.0000
  H   H18       1.0  0.8079174695170008  0.5186360250649285  0.4864660203558273  1.0000
  H   H19       1.0  0.3649331788559563  0.5866017903289416  0.5433194516106212  1.0000
  H   H20       1.0  0.6350614290111808  0.41339717421575967  0.45668219916244357  1.0000
  H   H21       1.0  0.36054737396543146  0.0088259559998889  0.8426226889618461  1.0000
  H   H22       1.0  0.6394566775640911  0.9911798152682251  0.1573756547192247  1.0000
  H   H23       1.0  0.4413078056671579  0.20569739274719004  0.9218277782898808  1.0000
  H   H24       1.0  0.5587025640255019  0.7943064538794077  0.07816873893685991  1.0000
  H   H25       1.0  0.798994359691541  0.21310797937641715  0.9560168341196089  1.0000
  H   H26       1.0  0.20101361834288406  0.7868919978250443  0.043978597136529594  1.0000
  H   H27       1.0  0.058458529763463184  0.030621597122895087  0.9021042512823954  1.0000
  H   H28       1.0  0.9415440538195265  0.96937445512421  0.09789848266483862  1.0000
  H   H29       1.0  0.4305493327861498  0.7772735010283253  0.5771225486045779  1.0000
  H   H30       1.0  0.56944886045234  0.22273130652260414  0.42287478752130164  1.0000
  H   H31       1.0  0.6998712029153464  0.7415433491550087  0.5592444592396859  1.0000
  H   H32       1.0  0.3001269908521352  0.2584614486787941  0.4407543627869685  1.0000
  H   H33       1.0  0.5888638428436151  0.8951674002623944  0.6033087914559585  1.0000
  H   H34       1.0  0.4111361613264535  0.1048354552267057  0.3966907572787122  1.0000
  H   H35       1.0  0.4032368492555421  0.6542913404237677  0.9485200208069458  1.0000
  H   H36       1.0  0.5967651197539822  0.345708588880612  0.05148252941757648  1.0000
  H   H37       1.0  0.675172723153217  0.6304187561058326  0.9391868382010102  1.0000
  H   H38       1.0  0.3248302872485595  0.3695840917511291  0.06081398022698179  1.0000
  H   H39       1.0  0.539295197544078  0.5107862045328914  0.8969160829035728  1.0000
  H   H40       1.0  0.4607108185604004  0.4892166454090657  0.1030845193169654  1.0000
  C   C1        1.0  0.1864475999562387  0.17206274626844478  0.6597120742303416  1.0000
  C   C2        1.0  0.8135456589674134  0.8279352431108715  0.3402904735275172  1.0000
  C   C3        1.0  0.1412042289328355  0.05494263606436077  0.6296003702511898  1.0000
  C   C4        1.0  0.8587906856920356  0.9450543996688339  0.37039988648245264  1.0000
  C   C5        1.0  0.9421851765685998  0.042896828322582785  0.6165244045311268  1.0000
  C   C6        1.0  0.057809583354895715  0.9571011961091924  0.38347283447029656  1.0000
  C   C7        1.0  0.7963951944925184  0.14721540879648384  0.6347941819737243  1.0000
  C   C8        1.0  0.20359806416663417  0.8527825854413961  0.3652076228337506  1.0000
  C   C9        1.0  0.8531972526905773  0.2612826578063832  0.6656758664003347  1.0000
  C   C10       1.0  0.14679766299229155  0.738714358492551  0.3343273621348572  1.0000
  C   C11       1.0  0.6975135353269692  0.37706003984882125  0.6885850057615741  1.0000
  C   C12       1.0  0.3024783733306932  0.6229369986579414  0.311414724229138  1.0000
  C   C13       1.0  0.09709851880121077  0.4444314207062802  0.8734788376739856  1.0000
  C   C14       1.0  0.9028999833110161  0.5555714191646144  0.1265230480155708  1.0000
  C   C15       1.0  0.2098551187740796  0.560721251425967  0.5589989602181404  1.0000
  C   C16       1.0  0.7901390281629616  0.43928062091168824  0.441002552762896  1.0000
  C   C17       1.0  0.5133208506272382  0.0203343299451504  0.8567928555626805  1.0000
  C   C18       1.0  0.48668381574025676  0.9796675594071189  0.1432064147914858  1.0000
  C   C19       1.0  0.5588112258065719  0.12796656451281757  0.9013490547696109  1.0000
  C   C20       1.0  0.4411969069292211  0.8720324239900703  0.09864939421874648  1.0000
  C   C21       1.0  0.756922411626398  0.13255803476770464  0.9193193776315951  1.0000
  C   C22       1.0  0.243081828715809  0.8674370443990184  0.0806840370929791  1.0000
  C   C23       1.0  0.9018765378355694  0.031453387338579795  0.890240230581689  1.0000
  C   C24       1.0  0.09812905092111623  0.968542676710655  0.1097608012573232  1.0000
  C   C25       1.0  0.84547229397851  0.9281522358552147  0.8440880829470885  1.0000
  C   C26       1.0  0.15453163934146372  0.0718447769815782  0.15591598286651728  1.0000
  C   C27       1.0  0.003737096842591835  0.8203573701954806  0.8052172814969507  1.0000
  C   C28       1.0  0.9962713442379326  0.179639660344506  0.19478423115431548  1.0000
  C   C29       1.0  0.571024991227709  0.7916954673476583  0.6048294767391055  1.0000
  C   C30       1.0  0.4289716994239257  0.20830933430220702  0.39516871044089186  1.0000
  C   C31       1.0  0.5428141831631166  0.6141402399059998  0.9049333081012491  1.0000
  C   C32       1.0  0.4571874782951752  0.385861632785577  0.09506840731153691  1.0000
  N   N1        1.0  0.04585326408909649  0.272718653114218  0.676656132488965  1.0000
  N   N2        1.0  0.9541428458358893  0.7272803270486745  0.32334318132921414  1.0000
  N   N3        1.0  0.6530855330469122  0.9229909672359041  0.8289845018355705  1.0000
  N   N4        1.0  0.3469194406073085  0.07700898358773858  0.17101486037995528  1.0000
  O   O1        1.0  0.5143584403069994  0.35639112081134516  0.6967332207107332  1.0000
  O   O2        1.0  0.48563678054659215  0.6436039958274762  0.30326415608271867  1.0000
  O   O3        1.0  0.7657826121207235  0.4845404017610376  0.6977248774873173  1.0000
  O   O4        1.0  0.23420690911071762  0.5154526895835331  0.30228565373897703  1.0000
  O   O5        1.0  0.1816396479159152  0.8255180524951697  0.8231758244943419  1.0000
  O   O6        1.0  0.8183680246832806  0.17448382922496816  0.1768247155531455  1.0000
  O   O7        1.0  0.9443464204394798  0.7354634050126022  0.7558396007283648  1.0000
  O   O8        1.0  0.055665179722609495  0.2645326632066299  0.24416099869573318  1.0000
