data_image0
_chemical_formula_structural       Cd8H112C120N16O36
_chemical_formula_sum              "Cd8 H112 C120 N16 O36"
_cell_length_a       14.492282263000387
_cell_length_b       15.444619779000035
_cell_length_c       17.532067534000472
_cell_angle_alpha    90.00000605709045
_cell_angle_beta     90.00002597083072
_cell_angle_gamma    90.00000505660745

_space_group_name_H-M_alt    "P 1"
_space_group_IT_number       1

loop_
  _space_group_symop_operation_xyz
  'x, y, z'

loop_
  _atom_site_type_symbol
  _atom_site_label
  _atom_site_symmetry_multiplicity
  _atom_site_fract_x
  _atom_site_fract_y
  _atom_site_fract_z
  _atom_site_occupancy
  Cd  Cd1       1.0  0.875840953467147  0.7710174556196207  0.9551607919651629  1.0000
  Cd  Cd2       1.0  0.12415852312495447  0.27101736273713334  0.0448390144661488  1.0000
  Cd  Cd3       1.0  0.3758409191968254  0.7710174102991444  0.5448394405016685  1.0000
  Cd  Cd4       1.0  0.6241592474177153  0.27101740805764507  0.4551603659297782  1.0000
  Cd  Cd5       1.0  0.9247889019665647  0.2218922204580451  0.4157965515920806  1.0000
  Cd  Cd6       1.0  0.07521195005369917  0.7218915550299343  0.5842038206443476  1.0000
  Cd  Cd7       1.0  0.42478819922965266  0.22189153238311832  0.0842035074044105  1.0000
  Cd  Cd8       1.0  0.5752119627681438  0.7218915956301687  0.9157968648318544  1.0000
  H   H1        1.0  0.88533759722565  0.35803996076934647  0.532564296041343  1.0000
  H   H2        1.0  0.11466119752263637  0.8580399320835213  0.4674360888837794  1.0000
  H   H3        1.0  0.3853377943699313  0.3580399661233926  0.9674359014988879  1.0000
  H   H4        1.0  0.6146610003781984  0.8580399267294396  0.032563913042857  1.0000
  H   H5        1.0  0.9891114528954927  0.32064700878571983  0.540969483306128  1.0000
  H   H6        1.0  0.010887338338683597  0.8206463230169379  0.45903146851730264  1.0000
  H   H7        1.0  0.4891116454370844  0.3206470131318824  0.9590307496848137  1.0000
  H   H8        1.0  0.5108878358190693  0.8206463186706969  0.0409684909885968  1.0000
  H   H9        1.0  0.11940656797673907  0.6316381352273623  0.8208239490789423  1.0000
  H   H10       1.0  0.8805942755612577  0.13163876861906235  0.17917584436241898  1.0000
  H   H11       1.0  0.6194057610948747  0.6316394424031558  0.6791756038004664  1.0000
  H   H12       1.0  0.3805937023984851  0.13163940386723993  0.3208247600241093  1.0000
  H   H13       1.0  0.11629322878567896  0.5671600280469917  0.9855346959136424  1.0000
  H   H14       1.0  0.883705538625243  0.06715999447111903  0.0144650915178985  1.0000
  H   H15       1.0  0.6162930217304421  0.5671600205226711  0.5144654201716747  1.0000
  H   H16       1.0  0.3837057456806007  0.0671593545208111  0.4855349376432159  1.0000
  H   H17       1.0  0.056326804923905585  0.5214314752710936  0.9074685903653117  1.0000
  H   H18       1.0  0.9436726482116738  0.021431456026121502  0.09253062242104447  1.0000
  H   H19       1.0  0.5563273306402792  0.5214321245825531  0.5925314989589552  1.0000
  H   H20       1.0  0.44367281251808777  0.0214314541894254  0.4074688545943274  1.0000
  H   H21       1.0  0.2045574067969724  0.48696381131663463  0.8434139922152751  1.0000
  H   H22       1.0  0.795442780112438  0.9869638017769872  0.1565858343425148  1.0000
  H   H23       1.0  0.7045572775671473  0.4869638208343048  0.6565855791288939  1.0000
  H   H24       1.0  0.2954429093422703  0.9869637922593174  0.343414247428896  1.0000
  H   H25       1.0  0.3539417639725073  0.5105170071897335  0.9073819474146914  1.0000
  H   H26       1.0  0.6460576881377944  0.0105169632898949  0.0926189755045712  1.0000
  H   H27       1.0  0.8539415997138773  0.5105170090368957  0.5926182525567681  1.0000
  H   H28       1.0  0.14605785239594835  0.010516961442625901  0.40738095921235373  1.0000
  H   H29       1.0  0.29814036284654577  0.5621446968201411  0.9852683607541831  1.0000
  H   H30       1.0  0.7018584040931798  0.062144648205340006  0.014731996593305001  1.0000
  H   H31       1.0  0.7981408459596224  0.5621446893277879  0.5147318230925464  1.0000
  H   H32       1.0  0.20185792097994681  0.0621446556976579  0.48526796387156407  1.0000
  H   H33       1.0  0.2963621325467399  0.6236625495778656  0.8196113468306334  1.0000
  H   H34       1.0  0.7036380202193796  0.12366252097481123  0.18038901625062206  1.0000
  H   H35       1.0  0.7963627063737418  0.6236625619498003  0.6803882716990513  1.0000
  H   H36       1.0  0.20363744639222853  0.12366250860284111  0.3196115209988264  1.0000
  H   H37       1.0  0.21401213726610985  0.7097702102565223  0.9621005195797206  1.0000
  H   H38       1.0  0.7859873335700625  0.20977017139212964  0.03789985152669569  1.0000
  H   H39       1.0  0.7140119430434879  0.7097702055422489  0.5378996464609145  1.0000
  H   H40       1.0  0.2859875277925283  0.20977017610636753  0.4621001542621172  1.0000
  H   H41       1.0  0.21412527770702636  0.7541876141313254  0.8695997372165536  1.0000
  H   H42       1.0  0.7858748873258605  0.25418823382420197  0.13040006764637008  1.0000
  H   H43       1.0  0.7141251341378805  0.7541882679836717  0.6303998626229228  1.0000
  H   H44       1.0  0.28587503089504196  0.25418822744652664  0.3695999422400361  1.0000
  H   H45       1.0  0.8073582569971334  0.6220005043779651  0.8377479230611156  1.0000
  H   H46       1.0  0.192641895612482  0.12200043125034202  0.16225129909846459  1.0000
  H   H47       1.0  0.30735897704474263  0.6220004731367582  0.6622522698227938  1.0000
  H   H48       1.0  0.6926439356547363  0.12199916754236281  0.3377475227206261  1.0000
  H   H49       1.0  0.8953414537880489  0.7531328624134304  0.1404177547977952  1.0000
  H   H50       1.0  0.1046587111457171  0.25313351308721377  0.8595820499668247  1.0000
  H   H51       1.0  0.3953415918715492  0.7531328548345116  0.3595823426622218  1.0000
  H   H52       1.0  0.604658573062373  0.25313352066616807  0.6404180324857831  1.0000
  H   H53       1.0  0.9022189301748325  0.640155662209004  0.24273426292433692  1.0000
  H   H54       1.0  0.09778053411873341  0.14015565256910628  0.7572655313105725  1.0000
  H   H55       1.0  0.4022197022520401  0.6401549948864443  0.2572658265866323  1.0000
  H   H56       1.0  0.5977804520641  0.14015567241706614  0.7427345380317618  1.0000
  H   H57       1.0  0.8577503766280966  0.4480207806747813  0.06657932299828667  1.0000
  H   H58       1.0  0.1422498066214146  0.9480208101526557  0.9334204999299868  1.0000
  H   H59       1.0  0.3577505551454578  0.4480201344753  0.433420161537576  1.0000
  H   H60       1.0  0.6422503181263082  0.9480208088774662  0.566579091007412  1.0000
  H   H61       1.0  0.8572151728891623  0.5690578061962198  0.9723053628011938  1.0000
  H   H62       1.0  0.1427842847227367  0.06905836027622311  0.0276949951907568  1.0000
  H   H63       1.0  0.3572151292304324  0.5690577588198951  0.5276948438545048  1.0000
  H   H64       1.0  0.6427843283813102  0.0690584076525198  0.472304943754068  1.0000
  H   H65       1.0  0.9476886317829736  0.25452622923156554  0.24594323039959673  1.0000
  H   H66       1.0  0.052311533281894584  0.7545268772224109  0.7540571448782742  1.0000
  H   H67       1.0  0.447689402102938  0.2545255615242041  0.2540568402306178  1.0000
  H   H68       1.0  0.5523114529840285  0.7545268974550652  0.7459423942805825  1.0000
  H   H69       1.0  0.931286085382574  0.3644285718456786  0.14334495095140903  1.0000
  H   H70       1.0  0.06871409001103497  0.8644292334987043  0.8566554345694255  1.0000
  H   H71       1.0  0.4312855318406932  0.3644285639157232  0.3566551237673464  1.0000
  H   H72       1.0  0.5687139535302917  0.8644285939539388  0.6433446913699469  1.0000
  H   H73       1.0  0.8328302890392221  0.543013744990745  0.3165675224589322  1.0000
  H   H74       1.0  0.16716916612484306  0.043013732248027715  0.6834322627222917  1.0000
  H   H75       1.0  0.332831020685191  0.543013068814659  0.18343253196385226  1.0000
  H   H76       1.0  0.667169124501285  0.043013760949477814  0.8165672532174637  1.0000
  H   H77       1.0  0.8489588936388868  0.42287223750310693  0.4103636450042244  1.0000
  H   H78       1.0  0.15104059722484917  0.9228722264856232  0.5896367459634462  1.0000
  H   H79       1.0  0.3489595739219239  0.42287155007970517  0.08963640427270997  1.0000
  H   H80       1.0  0.6510406069639103  0.9228722664343181  0.91036284592829  1.0000
  H   H81       1.0  0.8872056206518193  0.9737417707281824  0.9114637325333418  1.0000
  H   H82       1.0  0.1127945650152853  0.4737416821437463  0.08853723355890958  1.0000
  H   H83       1.0  0.38720561030993383  0.9737417306474897  0.5885359527081488  1.0000
  H   H84       1.0  0.6127938853342555  0.473741722224311  0.4114633022338267  1.0000
  H   H85       1.0  0.8986564699417554  0.07282415048550209  0.7989601333678279  1.0000
  H   H86       1.0  0.10134367804652557  0.5728240887517658  0.20104022497525154  1.0000
  H   H87       1.0  0.3986565212071795  0.07282412389540131  0.7010400425872872  1.0000
  H   H88       1.0  0.6013436267809099  0.5728234678671668  0.2989597453723788  1.0000
  H   H89       1.0  0.8501837705448307  0.8493359719124741  0.6551813394447521  1.0000
  H   H90       1.0  0.1498164034303215  0.34933591712766093  0.34481904466942126  1.0000
  H   H91       1.0  0.35018321052123713  0.8493366100378239  0.8448183203114396  1.0000
  H   H92       1.0  0.6498162734311989  0.3493359264768685  0.1551809230358643  1.0000
  H   H93       1.0  0.8423520440617621  0.7605620224705805  0.7735421601345394  1.0000
  H   H94       1.0  0.1576474315478862  0.26056195414188477  0.22645821570570487  1.0000
  H   H95       1.0  0.34235210924597215  0.7605619989283737  0.726457488409494  1.0000
  H   H96       1.0  0.6576480563858025  0.2605619776840483  0.27354174666411507  1.0000
  H   H97       1.0  0.8347403290484151  0.22730511489214675  0.5821785086884431  1.0000
  H   H98       1.0  0.16525914343555564  0.7273050844503007  0.417821293668851  1.0000
  H   H99       1.0  0.33474049902382313  0.2273044668221758  0.9178216576831769  1.0000
  H   H100      1.0  0.665258973460432  0.7273050850456784  0.0821792854408585  1.0000
  H   H101      1.0  0.8185213795209447  0.1377826843421275  0.6997196868478139  1.0000
  H   H102      1.0  0.18147877457220565  0.6377826411498831  0.3002806775494448  1.0000
  H   H103      1.0  0.318521485130617  0.13778266965217514  0.8002804650949498  1.0000
  H   H104      1.0  0.6814779789400873  0.6377826558397999  0.19971989930218104  1.0000
  H   H105      1.0  0.9475190082348914  0.9268891914892239  0.5760298295722066  1.0000
  H   H106      1.0  0.05248048300638428  0.4268897856034571  0.4239705617698703  1.0000
  H   H107      1.0  0.4475184915547884  0.9268891916311618  0.9239698739319732  1.0000
  H   H108      1.0  0.5524809996861464  0.42688913798679107  0.07602937664331219  1.0000
  H   H109      1.0  0.9636537306475076  0.02709882499074469  0.4662001886398173  1.0000
  H   H110      1.0  0.03634572302104289  0.527099445246904  0.5338001654415336  1.0000
  H   H111      1.0  0.4636536903319452  0.0270987783464989  0.0337998667839656  1.0000
  H   H112      1.0  0.5363457633364773  0.5271001393657783  0.9661999169140356  1.0000
  C   C1        1.0  0.1228415172539883  0.6442431758414529  0.8827949641625208  1.0000
  C   C2        1.0  0.8771579474235691  0.1442431540426341  0.11720426006996829  1.0000
  C   C3        1.0  0.6228420564815096  0.6442431806368917  0.617204591180659  1.0000
  C   C4        1.0  0.37715809821880697  0.14424314924729487  0.3827957738187208  1.0000
  C   C5        1.0  0.11958185818493657  0.5558674188416362  0.9233378103326898  1.0000
  C   C6        1.0  0.8804175981871293  0.055867392451411015  0.07666197604650189  1.0000
  C   C7        1.0  0.6195816851888339  0.5558674187754846  0.576662305934043  1.0000
  C   C8        1.0  0.3804184612056503  0.05586674504292691  0.423337480445248  1.0000
  C   C9        1.0  0.2046105561361173  0.500678623364223  0.9053810140324643  1.0000
  C   C10       1.0  0.7953895850718736  0.0006792395550619  0.09461933758663577  1.0000
  C   C11       1.0  0.7046103929732225  0.5006792729259857  0.5946191289932867  1.0000
  C   C12       1.0  0.2953897482346122  0.0006785899932708999  0.4053806522424351  1.0000
  C   C13       1.0  0.2937856136741174  0.5498510914824878  0.9233178793143747  1.0000
  C   C14       1.0  0.7062138421326907  0.04985105065724581  0.076682476887477  1.0000
  C   C15       1.0  0.7937854406889713  0.5498517388933947  0.5766823017526049  1.0000
  C   C16       1.0  0.20621401511773735  0.04985169819563142  0.4233174840659259  1.0000
  C   C17       1.0  0.2964083815875468  0.637462828263736  0.8812937473421412  1.0000
  C   C18       1.0  0.7035917724755407  0.13746279226037222  0.1187066170253104  1.0000
  C   C19       1.0  0.7964082316147411  0.6374634807138264  0.6187058724909845  1.0000
  C   C20       1.0  0.20359192244809776  0.1374634347595389  0.381293351109761  1.0000
  C   C21       1.0  0.21211455807978294  0.6925972360191892  0.9012411817861476  1.0000
  C   C22       1.0  0.7878849111422992  0.192597204609811  0.0987586173363511  1.0000
  C   C23       1.0  0.7121150872061576  0.6925978860773585  0.5987584115587764  1.0000
  C   C24       1.0  0.28788507203839225  0.19259720202633454  0.4012413875638856  1.0000
  C   C25       1.0  0.035912498174667504  0.6943706619931191  0.9040953472645368  1.0000
  C   C26       1.0  0.9640876612365259  0.19437064484458233  0.09590445202337607  1.0000
  C   C27       1.0  0.5359123357156363  0.6943713117090128  0.5959041801348448  1.0000
  C   C28       1.0  0.46408713367333115  0.19437129007802406  0.4040961895363822  1.0000
  C   C29       1.0  0.20097207436962344  0.41197394914036073  0.9446045633501752  1.0000
  C   C30       1.0  0.7990294855373958  0.9119745752386451  0.05539639698556439  1.0000
  C   C31       1.0  0.7009718897278387  0.4119745939987283  0.5553955700430817  1.0000
  C   C32       1.0  0.29902967017871157  0.9119739303801707  0.4446036791425029  1.0000
  C   C33       1.0  0.3879115747589097  0.6815124769716904  0.8997935812216014  1.0000
  C   C34       1.0  0.6120885834442331  0.18151372611583844  0.1002073576347442  1.0000
  C   C35       1.0  0.887911414655697  0.6815124797287951  0.6002066474321595  1.0000
  C   C36       1.0  0.11208874354697679  0.18151372335863417  0.3997925802740382  1.0000
  C   C37       1.0  0.7399479011928136  0.6475511479613871  0.8576155056201457  1.0000
  C   C38       1.0  0.2600515637959758  0.1475517255128551  0.1423848596874393  1.0000
  C   C39       1.0  0.23994792033823129  0.6475498193884236  0.6423840939692838  1.0000
  C   C40       1.0  0.76005361471735  0.14755175913646926  0.3576145601884803  1.0000
  C   C41       1.0  0.8871508805448514  0.6844856549920025  0.1271648921463751  1.0000
  C   C42       1.0  0.11284858791476889  0.1844863079337103  0.8728343358367707  1.0000
  C   C43       1.0  0.38715102588545847  0.6844850015275696  0.372834625459184  1.0000
  C   C44       1.0  0.6128491325967004  0.18448566644887882  0.6271651729074179  1.0000
  C   C45       1.0  0.889918573069515  0.6213601161414817  0.18368531996286913  1.0000
  C   C46       1.0  0.11008157948010219  0.12136076207638521  0.8163144725204459  1.0000
  C   C47       1.0  0.3899186874594562  0.6213601033742153  0.31631419279780454  1.0000
  C   C48       1.0  0.6100814650901609  0.12136077484365161  0.6836855996855106  1.0000
  C   C49       1.0  0.878707768825805  0.5339795237311337  0.16352682424769677  1.0000
  C   C50       1.0  0.12129237551184958  0.033980173012430705  0.836473530475075  1.0000
  C   C51       1.0  0.378707894254731  0.5339795133811476  0.3364732465461627  1.0000
  C   C52       1.0  0.6212922500827672  0.03398018336237389  0.6635265377932242  1.0000
  C   C53       1.0  0.8663777356675408  0.514575350370464  0.0859997411600446  1.0000
  C   C54       1.0  0.13362240684632806  0.014576009970049606  0.9140000413708617  1.0000
  C   C55       1.0  0.3663779035504361  0.5145753493169353  0.4140003231991328  1.0000
  C   C56       1.0  0.6336222389634327  0.014576011023578401  0.5859994593317734  1.0000
  C   C57       1.0  0.8651349939271212  0.5816181112202018  0.03314231590108819  1.0000
  C   C58       1.0  0.13486515488752804  0.08161942473570602  0.9668574728782814  1.0000
  C   C59       1.0  0.36513519075484163  0.5816181165049343  0.46685775424025155  1.0000
  C   C60       1.0  0.6348649580598077  0.08161941945098052  0.5331420345391108  1.0000
  C   C61       1.0  0.9210875830138432  0.3191927609192008  0.2582184492192994  1.0000
  C   C62       1.0  0.07891258812842487  0.8191927621680367  0.7417819320855015  1.0000
  C   C63       1.0  0.42108834661203076  0.3191920917399287  0.24178218784059172  1.0000
  C   C64       1.0  0.5789125145524919  0.8191927838726444  0.7582176230809239  1.0000
  C   C65       1.0  0.9122497629966585  0.3815199632508309  0.20158451393353255  1.0000
  C   C66       1.0  0.0877504140032173  0.8815206194978843  0.7984158731802322  1.0000
  C   C67       1.0  0.4122498675851246  0.3815199483372638  0.2984155552358843  1.0000
  C   C68       1.0  0.5877503094144387  0.8815206344113876  0.7015836911111178  1.0000
  C   C69       1.0  0.882352479971132  0.4648512473911526  0.22143043165400655  1.0000
  C   C70       1.0  0.11764770486012568  0.9648512562615253  0.7785693928428827  1.0000
  C   C71       1.0  0.3823525736919038  0.46485058262315  0.2785696340645032  1.0000
  C   C72       1.0  0.6176476111393184  0.9648512735548638  0.7214301904323505  1.0000
  C   C73       1.0  0.8586640311812699  0.4802611479920246  0.2978595197852271  1.0000
  C   C74       1.0  0.14133546507593306  0.9802611496608408  0.7021408765311321  1.0000
  C   C75       1.0  0.3586640830494899  0.48026047405926425  0.2021411088650069  1.0000
  C   C76       1.0  0.6413354132076844  0.9802611761189369  0.7978592874513166  1.0000
  C   C77       1.0  0.8673231341291298  0.41370464091690445  0.35062910741708453  1.0000
  C   C78       1.0  0.13267704589531348  0.9137046355403555  0.6493707123129013  1.0000
  C   C79       1.0  0.3673231571003441  0.41370460813102045  0.14937037751217727  1.0000
  C   C80       1.0  0.6326770229239357  0.9137046683262116  0.8506288718344306  1.0000
  C   C81       1.0  0.8779813836095796  0.9497988012667947  0.8533559224918716  1.0000
  C   C82       1.0  0.12201810978489648  0.4497987204146413  0.1466450413687497  1.0000
  C   C83       1.0  0.3779814050876381  0.9497987681539398  0.6466437570572054  1.0000
  C   C84       1.0  0.622018088306369  0.44979875352739634  0.35335549565326113  1.0000
  C   C85       1.0  0.8838582431060471  0.004293488516268001  0.7904859414693135  1.0000
  C   C86       1.0  0.11614189844164709  0.5042934290251254  0.20951441048666905  1.0000
  C   C87       1.0  0.38385829901192636  0.004292815467664502  0.7095142225464101  1.0000
  C   C88       1.0  0.6161418425355476  0.5042928071243652  0.29048555902612344  1.0000
  C   C89       1.0  0.8743863302612166  0.9693894338447892  0.7169607146145862  1.0000
  C   C90       1.0  0.1256131649742471  0.4693893696460166  0.2830396806885105  1.0000
  C   C91       1.0  0.37438642642954517  0.969389417087406  0.7830389654115136  1.0000
  C   C92       1.0  0.6256130688056131  0.4693893864033357  0.2169602891248203  1.0000
  C   C93       1.0  0.8581949477499291  0.8801803736107203  0.7107030313194185  1.0000
  C   C94       1.0  0.14180522912417357  0.3801803115042689  0.2892979260528534  1.0000
  C   C95       1.0  0.35819504734512003  0.8801803576037415  0.7892972047007445  1.0000
  C   C96       1.0  0.6418051295286701  0.3801803275111837  0.21070261190475745  1.0000
  C   C97       1.0  0.8527775972767843  0.8303869857908096  0.7766644439855739  1.0000
  C   C98       1.0  0.14722188489508875  0.3303869162236808  0.22333593836240334  1.0000
  C   C99       1.0  0.3527776607512293  0.8303869618742112  0.7233352149778367  1.0000
  C   C100      1.0  0.6472218214203306  0.3303869401402153  0.2766640266033703  1.0000
  C   C101      1.0  0.8615228576487224  0.16122449942102424  0.5844954079372682  1.0000
  C   C102      1.0  0.13847660862510475  0.6612251139564053  0.41550495864468207  1.0000
  C   C103      1.0  0.36152371637771097  0.16122449854788815  0.9155041919411246  1.0000
  C   C104      1.0  0.6384764399184064  0.6612251148295413  0.084495604257576  1.0000
  C   C105      1.0  0.8520702556450956  0.11067421349643779  0.649532798729858  1.0000
  C   C106      1.0  0.14792920587792927  0.610674173541767  0.3504675631407465  1.0000
  C   C107      1.0  0.3520703887371964  0.11067420482451952  0.8504673632738642  1.0000
  C   C108      1.0  0.6479283827634104  0.6106748296883211  0.1495329985966407  1.0000
  C   C109      1.0  0.8827431289609817  0.024539365231738903  0.6486680992607459  1.0000
  C   C110      1.0  0.11725632446700018  0.5245393228386919  0.35133225458203293  1.0000
  C   C111      1.0  0.38274326252659546  0.024539356663510103  0.8513320662235627  1.0000
  C   C112      1.0  0.6172561909013793  0.5245393314069204  0.14866828761921616  1.0000
  C   C113      1.0  0.9218777787370839  0.9929775771377793  0.5809545179749165  1.0000
  C   C114      1.0  0.07812240873766997  0.4929775253119146  0.4190458795267417  1.0000
  C   C115      1.0  0.4218772593601798  0.9929769292145211  0.9190451820681671  1.0000
  C   C116      1.0  0.5781222380919429  0.49297752576044473  0.08095464504994959  1.0000
  C   C117      1.0  0.9313862266893905  0.04870117151214261  0.5191249169824345  1.0000
  C   C118      1.0  0.06861391903178321  0.5487011406215602  0.480875439112374  1.0000
  C   C119      1.0  0.4313857411706223  0.048700531003042606  0.9808752690044286  1.0000
  C   C120      1.0  0.5686137145280766  0.5487011336559605  0.019125087090216698  1.0000
  N   N1        1.0  0.8747138949010134  0.6650886040655664  0.05326316582458899  1.0000
  N   N2        1.0  0.1252862617582551  0.16508926689980546  0.94673663073425  1.0000
  N   N3        1.0  0.3747147707329645  0.6650886069375874  0.44673691569035867  1.0000
  N   N4        1.0  0.6252860759489066  0.1650892640278485  0.5532634512519933  1.0000
  N   N5        1.0  0.8994961115650141  0.33515171992779363  0.33140947130129916  1.0000
  N   N6        1.0  0.1005040610770962  0.8351517141895571  0.6685909114908879  1.0000
  N   N7        1.0  0.3994961450612208  0.3351510419719831  0.16859115914475345  1.0000
  N   N8        1.0  0.6005040275808254  0.8351510971960395  0.8314092236473698  1.0000
  N   N9        1.0  0.8625586861735142  0.8643515688392968  0.8467252087833967  1.0000
  N   N10       1.0  0.1374407991903794  0.36435149006039325  0.15327517673010493  1.0000
  N   N11       1.0  0.36255871128256695  0.8643515365215465  0.6532744570153781  1.0000
  N   N12       1.0  0.637440774081142  0.364350874903451  0.3467253581147033  1.0000
  N   N13       1.0  0.9022141522396719  0.13126778701506941  0.5208007017381674  1.0000
  N   N14       1.0  0.09778600124120368  0.631267758341231  0.4791996620519043  1.0000
  N   N15       1.0  0.40221435582567716  0.13126714630505634  0.9791994809987724  1.0000
  N   N16       1.0  0.5977857976551633  0.6312677515765799  0.0208008827912636  1.0000
  O   O1        1.0  0.9583400116227095  0.66392708767863  0.8821140840586422  1.0000
  O   O2        1.0  0.04166014492739119  0.16392764419278197  0.11788571239193149  1.0000
  O   O3        1.0  0.4583400173529383  0.6639276985920189  0.6178861693808313  1.0000
  O   O4        1.0  0.5416601391975107  0.1639276807541279  0.38211476783654763  1.0000
  O   O5        1.0  0.04222759779563029  0.7632665012203007  0.9442434972584407  1.0000
  O   O6        1.0  0.9577732581129437  0.26326712620881665  0.05575630845077478  1.0000
  O   O7        1.0  0.5422260333065481  0.7632677935965334  0.5557560389312641  1.0000
  O   O8        1.0  0.45777275253494304  0.2632677762565195  0.44424433716103806  1.0000
  O   O9        1.0  0.1216201889927433  0.38759846862621583  0.9687015341311493  1.0000
  O   O10       1.0  0.878382058645535  0.8875984509367001  0.0312982831661088  1.0000
  O   O11       1.0  0.6216199911554056  0.38759911059506186  0.5312985672176112  1.0000
  O   O12       1.0  0.3783822564830571  0.8875984564425538  0.46870182046306036  1.0000
  O   O13       1.0  0.27319396299461823  0.3661657675426896  0.9513373802232363  1.0000
  O   O14       1.0  0.7268075926070094  0.8661670343227074  0.04866243507641599  1.0000
  O   O15       1.0  0.7731937746657846  0.3661664115936817  0.5486622056148105  1.0000
  O   O16       1.0  0.22680778093572224  0.866167037746351  0.45133703930148517  1.0000
  O   O17       1.0  0.45331671807912227  0.6694422540768914  0.8510708739261118  1.0000
  O   O18       1.0  0.5466841290119004  0.16944285616825988  0.14892949342200265  1.0000
  O   O19       1.0  0.9533165846563989  0.6694422626764195  0.6489288077592119  1.0000
  O   O20       1.0  0.0466835724120216  0.1694428475686749  0.35107098920538954  1.0000
  O   O21       1.0  0.3983454228606148  0.7237867493543179  0.961031085969573  1.0000
  O   O22       1.0  0.6016540492928469  0.2237866953412251  0.0389692864431979  1.0000
  O   O23       1.0  0.8983459192460757  0.7237867447683187  0.5389691505390672  1.0000
  O   O24       1.0  0.10165424292979709  0.22378605245258854  0.461031221873803  1.0000
  O   O25       1.0  0.7426279653911506  0.7068624203010504  0.9096453107474074  1.0000
  O   O26       1.0  0.2573721951940371  0.20686234391671826  0.09035448970474388  1.0000
  O   O27       1.0  0.24262795604514042  0.7068617329637732  0.590354865758833  1.0000
  O   O28       1.0  0.7573735845850179  0.20686173630476654  0.40964550507690217  1.0000
  O   O29       1.0  0.6661700027747486  0.6193374347725327  0.8300368834885319  1.0000
  O   O30       1.0  0.33383014958458546  0.11933737427077773  0.16996233842284877  1.0000
  O   O31       1.0  0.16617003702248212  0.6193374044559476  0.6699632561734745  1.0000
  O   O32       1.0  0.8338328754263031  0.11934064196069734  0.3300342545884262  1.0000
  O   O33       1.0  0.9441675224408286  0.3437450159382892  0.50521157125533  1.0000
  O   O34       1.0  0.055831960986409995  0.8437443381821269  0.494788812337596  1.0000
  O   O35       1.0  0.4441670445410749  0.34374502457223605  0.994788647025359  1.0000
  O   O36       1.0  0.5558317488636034  0.8437449770227732  0.0052111661840826  1.0000
