data_image0
_chemical_formula_structural       Sr4H40C60N8O20
_chemical_formula_sum              "Sr4 H40 C60 N8 O20"
_cell_length_a       6.682799662018065
_cell_length_b       12.467897950741637
_cell_length_c       17.149775584882146
_cell_angle_alpha    104.17328933729527
_cell_angle_beta     89.99975300769299
_cell_angle_gamma    90.00003293504214

_space_group_name_H-M_alt    "P 1"
_space_group_IT_number       1

loop_
  _space_group_symop_operation_xyz
  'x, y, z'

loop_
  _atom_site_type_symbol
  _atom_site_label
  _atom_site_symmetry_multiplicity
  _atom_site_fract_x
  _atom_site_fract_y
  _atom_site_fract_z
  _atom_site_occupancy
  Sr  Sr1       1.0  0.43702882658631376  0.6618427747271343  0.4747282906961915  1.0000
  Sr  Sr2       1.0  0.9370331771317312  0.8381612988712136  0.5252717337015654  1.0000
  Sr  Sr3       1.0  0.5629636334681081  0.3381632412604958  0.5252707686905752  1.0000
  Sr  Sr4       1.0  0.06296227567528939  0.16184223546514429  0.47472805019721437  1.0000
  H   H1        1.0  0.9772556053610088  0.0834993681074181  0.7820154677096698  1.0000
  H   H2        1.0  0.47724669090625577  0.4164869493168695  0.21798677664391874  1.0000
  H   H3        1.0  0.0227443365778299  0.9164925849589668  0.21798400425856818  1.0000
  H   H4        1.0  0.5227472655207704  0.5835116216081461  0.7820127069722178  1.0000
  H   H5        1.0  0.6716751961474188  0.09871303999075562  0.8608952957910321  1.0000
  H   H6        1.0  0.17168353659626936  0.4012775113925429  0.13910008814032446  1.0000
  H   H7        1.0  0.32831127840640306  0.901285530678791  0.1391001061002868  1.0000
  H   H8        1.0  0.8283208944988445  0.5987177503819439  0.8608958910177054  1.0000
  H   H9        1.0  0.4391584137377222  0.2111667690319123  0.9622812119139115  1.0000
  H   H10       1.0  0.9391856815902314  0.28882535037406853  0.037706972984509  1.0000
  H   H11       1.0  0.5608265644441062  0.7888375922174903  0.037713471285187004  1.0000
  H   H12       1.0  0.0608172531165039  0.7111632936163305  0.962290160741624  1.0000
  H   H13       1.0  0.5055247846921631  0.41118011583353814  0.018518949696620293  1.0000
  H   H14       1.0  0.005551055823453099  0.08881048872069643  0.9814726607217356  1.0000
  H   H15       1.0  0.494475157263679  0.5888225911140523  0.981478354548429  1.0000
  H   H16       1.0  0.9944623535198501  0.9111789826927396  0.018527535748795315  1.0000
  H   H17       1.0  0.7957171735328429  0.5020667424054539  0.9709942980007329  1.0000
  H   H18       1.0  0.2957282479818204  0.9979274498115132  0.029005387978258943  1.0000
  H   H19       1.0  0.20428875392457976  0.4979326557590156  0.029005332835723183  1.0000
  H   H20       1.0  0.7042896504994687  0.0020661577714023  0.9709949615407116  1.0000
  H   H21       1.0  0.10358253831315521  0.487662660489967  0.8852663622491835  1.0000
  H   H22       1.0  0.6035922526461378  0.012328740251668104  0.11473279386223113  1.0000
  H   H23       1.0  0.8964174036247526  0.5123317743005488  0.11473355141333033  1.0000
  H   H24       1.0  0.3964286385930719  0.9876723124664794  0.8852682976322799  1.0000
  H   H25       1.0  0.3384486059667893  0.3733819243043612  0.7894299879210465  1.0000
  H   H26       1.0  0.8384499772210389  0.1266160189516086  0.21057165964931812  1.0000
  H   H27       1.0  0.6615543287329616  0.6266174738605912  0.21056964291818767  1.0000
  H   H28       1.0  0.16156043937553483  0.8733924787939242  0.7894284245196134  1.0000
  H   H29       1.0  0.16470343476934352  0.9971307925527881  0.6858915577818152  1.0000
  H   H30       1.0  0.6646886425407175  0.5028667508751212  0.3141107095117591  1.0000
  H   H31       1.0  0.8352965071675839  0.0028743963389316995  0.3141096867847254  1.0000
  H   H32       1.0  0.3353068102639228  0.49713512901516327  0.6858893630287  1.0000
  H   H33       1.0  0.4488256850229533  0.6742593085097753  0.3002425531125113  1.0000
  H   H34       1.0  0.9488312202210593  0.825743934163384  0.69975905148128  1.0000
  H   H35       1.0  0.5511757532850438  0.3257425715262059  0.6997598518405398  1.0000
  H   H36       1.0  0.05117171446607931  0.1742571186309831  0.3002432062389532  1.0000
  H   H37       1.0  0.2919153515548771  0.578700743946655  0.2995334679022578  1.0000
  H   H38       1.0  0.7919254726955813  0.9213042036309319  0.7004681391391616  1.0000
  H   H39       1.0  0.7080845903832725  0.4213011359795686  0.7004671877385746  1.0000
  H   H40       1.0  0.2080774619882533  0.07869767644147882  0.29953484891703414  1.0000
  C   C1        1.0  0.44830436957353464  0.011642489975528702  0.6329779288800526  1.0000
  C   C2        1.0  0.9482880656292282  0.4883545907512641  0.36702395077994515  1.0000
  C   C3        1.0  0.551698565126209  0.9883569081894236  0.3670217019591817  1.0000
  C   C4        1.0  0.05170589078787909  0.5116464620078817  0.6329777238440857  1.0000
  C   C5        1.0  0.438322813810629  0.9028085119600462  0.5742373978265577  1.0000
  C   C6        1.0  0.9383159542704574  0.5971897705343565  0.4257615935610489  1.0000
  C   C7        1.0  0.5616741353695359  0.0971941952080329  0.4257634050484783  1.0000
  C   C8        1.0  0.061679498522181596  0.4028121095025909  0.5742408113975516  1.0000
  C   C9        1.0  0.31381544821707047  0.15466161486131114  0.7214017592933217  1.0000
  C   C10       1.0  0.8137954087450583  0.3453363366129595  0.2786045988316063  1.0000
  C   C11       1.0  0.6861874864730737  0.8453394378963993  0.2785999153223813  1.0000
  C   C12       1.0  0.1862045331930986  0.6546655433132643  0.7213960568092262  1.0000
  C   C13       1.0  0.1730463437966492  0.2201423037515512  0.778486975556554  1.0000
  C   C14       1.0  0.6730492657972036  0.2798523839485867  0.22151788856130852  1.0000
  C   C15       1.0  0.826946116235007  0.7798604035639228  0.22151615974078706  1.0000
  C   C16       1.0  0.3269551652807721  0.7201486686988761  0.7784820367393908  1.0000
  C   C17       1.0  0.0056986602814248005  0.17201638099921016  0.8037344193577455  1.0000
  C   C18       1.0  0.5056869305983726  0.3279783603721214  0.19626842281206794  1.0000
  C   C19       1.0  0.9942982888927433  0.8279863262422043  0.19626754972635754  1.0000
  C   C20       1.0  0.49431151496816733  0.6720202105155126  0.8037304776953677  1.0000
  C   C21       1.0  0.868320410327577  0.2356156548165202  0.8587847340117065  1.0000
  C   C22       1.0  0.3683270835332806  0.26437069741653124  0.14121421379227436  1.0000
  C   C23       1.0  0.131675042487899  0.7643812615154957  0.14121270582657533  1.0000
  C   C24       1.0  0.631683333059506  0.7356237373356364  0.8587851167559892  1.0000
  C   C25       1.0  0.6979679892467346  0.18688016672146557  0.8856898946765812  1.0000
  C   C26       1.0  0.19797499225472143  0.3131169944311837  0.11431128316642972  1.0000
  C   C27       1.0  0.30201998166609195  0.8131233676161006  0.11430988922914052  1.0000
  C   C28       1.0  0.8020279424684702  0.6868757855460857  0.8856830880896356  1.0000
  C   C29       1.0  0.5693120753976543  0.24914616093519731  0.9416822460241507  1.0000
  C   C30       1.0  0.0693195865042711  0.2508353234175971  0.05830704342581331  1.0000
  C   C31       1.0  0.4306893629463246  0.7508557186607732  0.058313161674469406  1.0000
  C   C32       1.0  0.9306893337058213  0.7491533207185203  0.9416924227129118  1.0000
  C   C33       1.0  0.6058086566549505  0.36343354820989754  0.9729665288037739  1.0000
  C   C34       1.0  0.10583432154722058  0.1365595059293696  0.027027086580538706  1.0000
  C   C35       1.0  0.39418679616645136  0.6365716404258707  0.027030634035185092  1.0000
  C   C36       1.0  0.8941760950497939  0.8634316198206238  0.9729710719374725  1.0000
  C   C37       1.0  0.7677349656677137  0.4139426696793578  0.9467986247158253  1.0000
  C   C38       1.0  0.2677378606900831  0.0860461965879296  0.0532003682833633  1.0000
  C   C39       1.0  0.23227994007412892  0.5860583828197435  0.05319896815701242  1.0000
  C   C40       1.0  0.7322755486549966  0.9139465837543382  0.9467998340083386  1.0000
  C   C41       1.0  0.902934551920815  0.3519479136974439  0.8893297408457103  1.0000
  C   C42       1.0  0.40292944151221377  0.14804504541066174  0.11067148681497233  1.0000
  C   C43       1.0  0.09707137553092339  0.6480506572989881  0.11067090896839461  1.0000
  C   C44       1.0  0.5970764859374498  0.8519510438983104  0.8893293044093796  1.0000
  C   C45       1.0  0.07462618240578682  0.3993756883622197  0.8621070172634975  1.0000
  C   C46       1.0  0.5746267764505929  0.1006148944512617  0.13789204534358393  1.0000
  C   C47       1.0  0.9253722631577547  0.600622882562071  0.13789246634847532  1.0000
  C   C48       1.0  0.4253836401496541  0.8993836763977755  0.862106272048216  1.0000
  C   C49       1.0  0.20654418800427976  0.3357167981251052  0.8087128584046397  1.0000
  C   C50       1.0  0.7065383166960402  0.16428036056503  0.19129296837638785  1.0000
  C   C51       1.0  0.793452761164204  0.664285081948272  0.1912901296571122  1.0000
  C   C52       1.0  0.29347060350584536  0.8357223467111299  0.8087095838011467  1.0000
  C   C53       1.0  0.5734854324929016  0.10432210145950191  0.643813856281348  1.0000
  C   C54       1.0  0.07347058483912149  0.3956775814151002  0.356187411106575  1.0000
  C   C55       1.0  0.4265145094509464  0.8956806056347589  0.3561857803818428  1.0000
  C   C56       1.0  0.9265278607171936  0.604324298548029  0.6438138276401802  1.0000
  C   C57       1.0  0.7619171612630068  0.12324818996240341  0.6023646333041911  1.0000
  C   C58       1.0  0.2619063558350874  0.37675805013684993  0.39763571304704476  1.0000
  C   C59       1.0  0.23807829154401358  0.8767553443739543  0.3976351505945886  1.0000
  C   C60       1.0  0.7380920897269191  0.6232446569943236  0.6023645067220686  1.0000
  N   N1        1.0  0.4868718017595057  0.19156210851299701  0.6979296491700995  1.0000
  N   N2        1.0  0.9868604589672074  0.3084366144032772  0.30207420271305113  1.0000
  N   N3        1.0  0.5131281401795676  0.8084372896891026  0.30207056477644306  1.0000
  N   N4        1.0  0.013134993837731198  0.6915644382456282  0.697925722595983  1.0000
  N   N5        1.0  0.2875975320194399  0.04616606915699611  0.6831831734790657  1.0000
  N   N6        1.0  0.7875757213011667  0.45383602673555157  0.31682047081582004  1.0000
  N   N7        1.0  0.7124054026817744  0.953837465178161  0.3168166104127722  1.0000
  N   N8        1.0  0.2124197314977749  0.5461650259866816  0.6831806207022809  1.0000
  O   O1        1.0  0.2896410477035687  0.8408004655399921  0.5809468354672307  1.0000
  O   O2        1.0  0.7896388138519799  0.659202828214859  0.4190533151329135  1.0000
  O   O3        1.0  0.7103469231993388  0.1592055506316967  0.4190551394463783  1.0000
  O   O4        1.0  0.21034766067216276  0.34079491557999125  0.5809477705723369  1.0000
  O   O5        1.0  0.5688941067577317  0.876039110547019  0.5192465812250547  1.0000
  O   O6        1.0  0.0688836674737701  0.6239592906384885  0.48075134620113164  1.0000
  O   O7        1.0  0.4311013460265302  0.12396111511718293  0.4807572785842994  1.0000
  O   O8        1.0  0.9311147780804631  0.37604010763718054  0.5192500339558778  1.0000
  O   O9        1.0  0.8806669026278228  0.04398175027534281  0.572684565220655  1.0000
  O   O10       1.0  0.3806394180948515  0.456021970318382  0.4273215333020489  1.0000
  O   O11       1.0  0.11932855017681021  0.9560201296149345  0.4273155073198114  1.0000
  O   O12       1.0  0.6193500491892793  0.5439857002991532  0.5726801529684951  1.0000
  O   O13       1.0  0.7949587831373888  0.2216893022623125  0.5970928997237055  1.0000
  O   O14       1.0  0.2949567945457616  0.278310309059016  0.4029027088432572  1.0000
  O   O15       1.0  0.20503966243661148  0.7783134047221905  0.4029049876272595  1.0000
  O   O16       1.0  0.7050401546317103  0.7216915709043545  0.5970985299048907  1.0000
  O   O17       1.0  0.43417456711631525  0.5953375940291821  0.30601917411321733  1.0000
  O   O18       1.0  0.9341817440706206  0.9046656534652158  0.6939842069728074  1.0000
  O   O19       1.0  0.565825374812846  0.40466428600704774  0.6939832308412264  1.0000
  O   O20       1.0  0.0658196942373763  0.0953362265707725  0.3060181979802438  1.0000
