data_image0
_chemical_formula_structural       Li4H28C32Cl8O20
_chemical_formula_sum              "Li4 H28 C32 Cl8 O20"
_cell_length_a       4.918350785000091
_cell_length_b       13.643605868045402
_cell_length_c       14.765868098048042
_cell_angle_alpha    89.9997064591597
_cell_angle_beta     89.99998606096878
_cell_angle_gamma    90.00001730121784

_space_group_name_H-M_alt    "P 1"
_space_group_IT_number       1

loop_
  _space_group_symop_operation_xyz
  'x, y, z'

loop_
  _atom_site_type_symbol
  _atom_site_label
  _atom_site_symmetry_multiplicity
  _atom_site_fract_x
  _atom_site_fract_y
  _atom_site_fract_z
  _atom_site_occupancy
  Li  Li1       1.0  0.2549594354981579  0.5643541345404941  0.6594200867314228  1.0000
  Li  Li2       1.0  0.745040514753896  0.4356446979065183  0.1594213252190642  1.0000
  Li  Li3       1.0  0.7549586824754899  0.935644483401127  0.15942148946643903  1.0000
  Li  Li4       1.0  0.24503923457444202  0.06435434904391  0.6594205997216632  1.0000
  H   H1        1.0  0.18893940794657743  0.7781288559395633  0.7101250315207468  1.0000
  H   H2        1.0  0.8110605041408763  0.22187042982579894  0.2101252505378923  1.0000
  H   H3        1.0  0.6889405093996857  0.7218702081220766  0.21012474273418041  1.0000
  H   H4        1.0  0.3110614358890729  0.278128344697457  0.710126216563644  1.0000
  H   H5        1.0  0.1570202165742814  0.777144841144768  0.5901463120067519  1.0000
  H   H6        1.0  0.842979785821065  0.22285730511173094  0.090147201063786  1.0000
  H   H7        1.0  0.6570192856488933  0.7228570799248502  0.09014737300525161  1.0000
  H   H8        1.0  0.34297868354356353  0.27714506632406705  0.5901488490154777  1.0000
  H   H9        1.0  0.6956600929008872  0.8289900326909105  0.7241443846375477  1.0000
  H   H10       1.0  0.30434184183630464  0.1710091757614691  0.224144208291392  1.0000
  H   H11       1.0  0.195655211832289  0.6710096877324928  0.22414437719579894  1.0000
  H   H12       1.0  0.8043426565012198  0.3289902536618712  0.724144892969079  1.0000
  H   H13       1.0  0.8819929382486009  0.9140351898099867  0.6585936774277953  1.0000
  H   H14       1.0  0.1180070126264781  0.08596511308540758  0.1585939204773865  1.0000
  H   H15       1.0  0.38199001927995374  0.5859656453785291  0.15859407474336962  1.0000
  H   H16       1.0  0.6180058651911295  0.41403465751477597  0.6585942003994987  1.0000
  H   H17       1.0  0.6656826102689523  0.8297438300795007  0.6035527609495901  1.0000
  H   H18       1.0  0.3343153488337195  0.17025824224383254  0.1035532630668783  1.0000
  H   H19       1.0  0.16568179497475913  0.6702580180036719  0.10355275709021333  1.0000
  H   H20       1.0  0.8343181973291609  0.32974258843162835  0.6035532669296586  1.0000
  H   H21       1.0  0.26244785006468163  0.36200085923206865  0.0836772426513406  1.0000
  H   H22       1.0  0.7375480907966862  0.6379991238784156  0.5836742612766698  1.0000
  H   H23       1.0  0.7624505382538801  0.13799934028075  0.5836747728990731  1.0000
  H   H24       1.0  0.2375494690109718  0.862000642828086  0.0836774082663041  1.0000
  H   H25       1.0  0.8269560703350933  0.6547802762786007  0.7069341567604823  1.0000
  H   H26       1.0  0.17304384415272983  0.34521829413192506  0.20693722502966244  1.0000
  H   H27       1.0  0.32695743451908754  0.8452180874806318  0.2069367063833809  1.0000
  H   H28       1.0  0.6730465463727812  0.15478121587418767  0.7069346754048597  1.0000
  C   C1        1.0  0.284359380680158  0.4247517787370326  0.913073638519748  1.0000
  C   C2        1.0  0.7156505446593472  0.5752456548685742  0.4130708287152488  1.0000
  C   C3        1.0  0.7843461271358834  0.07524587365899997  0.4130713386174635  1.0000
  C   C4        1.0  0.21563736657908814  0.9247515599432959  0.9130738058561009  1.0000
  C   C5        1.0  0.5341403529066255  0.5639754814803196  0.8295597517146476  1.0000
  C   C6        1.0  0.4658554028786881  0.43602314561936584  0.3295616875706529  1.0000
  C   C7        1.0  0.03414179300868621  0.9360236399753531  0.3295618691635341  1.0000
  C   C8        1.0  0.9658600623832072  0.06397791889907012  0.8295602473520773  1.0000
  C   C9        1.0  0.045051762023810206  0.7682232640626054  0.6538906426604711  1.0000
  C   C10       1.0  0.9549481923906741  0.2317763318234611  0.1538914804664344  1.0000
  C   C11       1.0  0.5450528717587063  0.7317768273710925  0.1538909839647644  1.0000
  C   C12       1.0  0.45494911585826264  0.2682242344032204  0.6538911391585673  1.0000
  C   C13       1.0  0.4504577204451153  0.44135130491616076  0.985660587913806  1.0000
  C   C14       1.0  0.5495562166619409  0.5586471942662854  0.4856605791083553  1.0000
  C   C15       1.0  0.950444453022776  0.05864889705969031  0.4856610759585892  1.0000
  C   C16       1.0  0.04954915206688071  0.9413532668401176  0.9856607682931795  1.0000
  C   C17       1.0  0.807648879625468  0.8382810135924004  0.6603973441538572  1.0000
  C   C18       1.0  0.19235106989188472  0.1617192793552391  0.16039789805958551  1.0000
  C   C19       1.0  0.3076439907893019  0.661719803540123  0.16039805816610203  1.0000
  C   C20       1.0  0.6923539255256657  0.33828048940367245  0.660398538522479  1.0000
  C   C21       1.0  0.6717514446335214  0.5188132480490211  0.984139319400569  1.0000
  C   C22       1.0  0.32825232761027934  0.48118745835539295  0.4841390194063138  1.0000
  C   C23       1.0  0.1717468228897019  0.9811879677187961  0.4841391901890476  1.0000
  C   C24       1.0  0.828254916152588  0.0188142045717754  0.9841398258519548  1.0000
  C   C25       1.0  0.31380019865915193  0.4837627950229547  0.8326352868616029  1.0000
  C   C26       1.0  0.6862016544168839  0.5162343492327465  0.3326354691754148  1.0000
  C   C27       1.0  0.8137950285844797  0.0162338382908658  0.3326359767658715  1.0000
  C   C28       1.0  0.18619869168382763  0.983763305962519  0.8326354565089888  1.0000
  C   C29       1.0  0.6987097223874275  0.5776410232840803  0.9054773623102506  1.0000
  C   C30       1.0  0.30129614226546414  0.42236011691856135  0.4054800533650607  1.0000
  C   C31       1.0  0.19869895185364334  0.9223598962775766  0.40548022203201844  1.0000
  C   C32       1.0  0.8012967467900155  0.07764270980891301  0.9054785481152551  1.0000
  Cl  Cl1       1.0  0.9477342916968965  0.6669231562848594  0.904189711526449  1.0000
  Cl  Cl2       1.0  0.05225734151043331  0.33307432629659667  0.4041928470791021  1.0000
  Cl  Cl3       1.0  0.4477437785356031  0.8330748657588811  0.4041936734171685  1.0000
  Cl  Cl4       1.0  0.5522620870852606  0.1669255485940226  0.9041909168934268  1.0000
  Cl  Cl5       1.0  0.0421928005424093  0.3335771849966492  0.9141899524431878  1.0000
  Cl  Cl6       1.0  0.9578191571609838  0.6664246401203259  0.4141860124339232  1.0000
  Cl  Cl7       1.0  0.5421796232271349  0.16642483249940196  0.41418654136077754  1.0000
  Cl  Cl8       1.0  0.4578120024572741  0.833576259672398  0.9141894235188773  1.0000
  O   O1        1.0  0.1716773762121093  0.4727153110552037  0.7638266314788638  1.0000
  O   O2        1.0  0.8283245286563955  0.5272836785560032  0.2638267500442808  1.0000
  O   O3        1.0  0.6716681489695944  0.027280953279579  0.2638279460428095  1.0000
  O   O4        1.0  0.32832358988850535  0.9727173033814013  0.763827467195064  1.0000
  O   O5        1.0  0.4448464104555897  0.39394629154438826  0.0636871393718934  1.0000
  O   O6        1.0  0.5551617446641616  0.6060545347558773  0.5636829698884611  1.0000
  O   O7        1.0  0.9448368727263841  0.10605550399188958  0.563684144418417  1.0000
  O   O8        1.0  0.0551550167778672  0.8939445893615526  0.0636866420818478  1.0000
  O   O9        1.0  0.8159444408631418  0.5258975261976531  0.0540300808912804  1.0000
  O   O10       1.0  0.1840515223149808  0.47410701807366706  0.5540279230305316  1.0000
  O   O11       1.0  0.3159496028623821  0.974106077279643  0.5540267280132342  1.0000
  O   O12       1.0  0.6840585595268466  0.025897001107942696  0.054029921436537606  1.0000
  O   O13       1.0  0.5464738030117573  0.6109727934506424  0.7553405015309523  1.0000
  O   O14       1.0  0.45352404183934425  0.3890247770679096  0.2553419847976386  1.0000
  O   O15       1.0  0.04647317062001121  0.8890260057147187  0.2553414881824949  1.0000
  O   O16       1.0  0.953526707434435  0.1109744965820809  0.7553403209015102  1.0000
  O   O17       1.0  0.9557695989532322  0.6657921794305395  0.6545531889423515  1.0000
  O   O18       1.0  0.0442303549622594  0.3342081457413143  0.15455564249891302  1.0000
  O   O19       1.0  0.45576892073010816  0.8342086860826754  0.1545551137313979  1.0000
  O   O20       1.0  0.5442310331856888  0.1657923720332519  0.6545537177081189  1.0000
