data_image0
_chemical_formula_structural       Cu2H28C24N8O8
_chemical_formula_sum              "Cu2 H28 C24 N8 O8"
_cell_length_a       7.540319375073697
_cell_length_b       9.460550827491355
_cell_length_c       9.615097386043496
_cell_angle_alpha    89.99972078851896
_cell_angle_beta     90.00028275626607
_cell_angle_gamma    90.89940153880667

_space_group_name_H-M_alt    "P 1"
_space_group_IT_number       1

loop_
  _space_group_symop_operation_xyz
  'x, y, z'

loop_
  _atom_site_type_symbol
  _atom_site_label
  _atom_site_symmetry_multiplicity
  _atom_site_fract_x
  _atom_site_fract_y
  _atom_site_fract_z
  _atom_site_occupancy
  Cu  Cu1       1.0  0.7620611732830014  0.7544598350375934  0.0473150062047267  1.0000
  Cu  Cu2       1.0  0.23793873250723857  0.2455335057397505  0.5473121116116743  1.0000
  H   H1        1.0  0.5620331263404734  0.45666151896055857  0.457172827690286  1.0000
  H   H2        1.0  0.43796824606304335  0.5433489894472531  0.9571703765266122  1.0000
  H   H3        1.0  0.4783966836830017  0.2163634168542998  0.8222355927353533  1.0000
  H   H4        1.0  0.5215779581659774  0.7836258215195856  0.3222299497275216  1.0000
  H   H5        1.0  0.8518872960359828  0.4934953940030908  0.631974543550399  1.0000
  H   H6        1.0  0.14810925797734595  0.5065367346877209  0.1319633917877354  1.0000
  H   H7        1.0  0.7419961585850812  0.26350376573519435  0.9532799946845499  1.0000
  H   H8        1.0  0.2579974507850977  0.7364783024185612  0.45327753701448603  1.0000
  H   H9        1.0  0.9875876634438042  0.18511197241334545  0.8074736051682905  1.0000
  H   H10       1.0  0.012384629176608498  0.8148530381798905  0.3074956162410842  1.0000
  H   H11       1.0  0.0721966392367008  0.28747296923590687  0.9474313349304281  1.0000
  H   H12       1.0  0.9277821928252549  0.7125050770576848  0.4474591282278054  1.0000
  H   H13       1.0  0.06077416430137111  0.3630975641090188  0.7773465150186992  1.0000
  H   H14       1.0  0.9392349740446091  0.6368639562514743  0.2773477059583769  1.0000
  H   H15       1.0  0.9627776749222078  0.016069675501484002  0.6438084500341503  1.0000
  H   H16       1.0  0.037242557899524804  0.9839219218896531  0.1438276333695754  1.0000
  H   H17       1.0  0.9459273428610826  0.2868140529578724  0.2941877570106897  1.0000
  H   H18       1.0  0.0540745817740031  0.7131982417920425  0.7942003503192083  1.0000
  H   H19       1.0  0.6447426414046402  0.969667828992847  0.5014572730985023  1.0000
  H   H20       1.0  0.3552842146438309  0.030308466386998103  0.0014630253705831997  1.0000
  H   H21       1.0  0.5036772617208314  0.07261685434551168  0.31199885582550724  1.0000
  H   H22       1.0  0.496333825454265  0.9273899596241577  0.811970794426216  1.0000
  H   H23       1.0  0.48326486381131417  0.32457812945730075  0.2935906564176988  1.0000
  H   H24       1.0  0.5167364340039312  0.6754521538809116  0.7935566938011646  1.0000
  H   H25       1.0  0.47780341581397306  0.2609780116024041  0.1211734155779283  1.0000
  H   H26       1.0  0.522218566273004  0.7390274144653831  0.6211422739902943  1.0000
  H   H27       1.0  0.6758706669987757  0.3397144008680542  0.18600816810071305  1.0000
  H   H28       1.0  0.32416684597286866  0.6602725632117699  0.6860035558116451  1.0000
  C   C1        1.0  0.5863159889922969  0.41251379468771904  0.5590679600314132  1.0000
  C   C2        1.0  0.41370423301114556  0.5874887607547735  0.0590420192849805  1.0000
  C   C3        1.0  0.5361151949171229  0.2878158526486558  0.7462217529107065  1.0000
  C   C4        1.0  0.4638832603455043  0.7121818958458519  0.2462338887674846  1.0000
  C   C5        1.0  0.7294735673195445  0.43333778933823214  0.645000803892664  1.0000
  C   C6        1.0  0.27056970416555964  0.5666662095415732  0.14496286906197042  1.0000
  C   C7        1.0  0.8079186848827645  0.34270841364103427  0.8865733920279267  1.0000
  C   C8        1.0  0.1920469573091736  0.657279587562563  0.3865907948847322  1.0000
  C   C9        1.0  0.9938669370484448  0.29165509381328286  0.8514604219389029  1.0000
  C   C10       1.0  0.0060493125875495995  0.7083294439165684  0.3514621466212233  1.0000
  C   C11       1.0  0.8209443784540796  0.48015834116023376  0.9716496929601631  1.0000
  C   C12       1.0  0.17904662142507283  0.5198903008085694  0.47165421624559656  1.0000
  C   C13       1.0  0.9128003731053907  0.06459255527395408  0.5501066120587268  1.0000
  C   C14       1.0  0.0871824361584075  0.9354041559593962  0.05012315307114079  1.0000
  C   C15       1.0  0.9105764164431491  0.2062240877044061  0.3700217463209299  1.0000
  C   C16       1.0  0.08942961663188238  0.7937814690590129  0.8699987305759292  1.0000
  C   C17       1.0  0.756701849062658  0.0398045327411296  0.4812843396001583  1.0000
  C   C18       1.0  0.2432753266713092  0.9601945318314193  0.9813069458498802  1.0000
  C   C19       1.0  0.6172079854703584  0.1265207359093381  0.26120490276252883  1.0000
  C   C20       1.0  0.38281917373343083  0.8734628436703816  0.7611890733315718  1.0000
  C   C21       1.0  0.5617734656078  0.2721605578139545  0.21366562353345134  1.0000
  C   C22       1.0  0.43824988735787684  0.7278676996479447  0.7136331117666188  1.0000
  C   C23       1.0  0.6700179703800018  0.025648334065095896  0.1409880906049139  1.0000
  C   C24       1.0  0.3299980233310507  0.9743369831124368  0.6409787834552532  1.0000
  N   N1        1.0  0.46651119160737414  0.3208115686186233  0.6226793378935012  1.0000
  N   N2        1.0  0.5334287313807023  0.6791641924432027  0.1226836425894433  1.0000
  N   N3        1.0  0.6954935664510769  0.354191303569067  0.7629217298971867  1.0000
  N   N4        1.0  0.3045289548919072  0.6458430869370134  0.2629230691391484  1.0000
  N   N5        1.0  0.0080168263100902  0.1686793936766477  0.48017465207643534  1.0000
  N   N6        1.0  0.9920340845499567  0.8313399187618273  0.9801784866343438  1.0000
  N   N7        1.0  0.7563009904419715  0.12977516046800727  0.36844489853903883  1.0000
  N   N8        1.0  0.24368618556343338  0.8702232328409705  0.8684274042908129  1.0000
  O   O1        1.0  0.8821346208461663  0.47097838474583387  0.09219334642147459  1.0000
  O   O2        1.0  0.11788266120944971  0.5290124243918515  0.592220693543446  1.0000
  O   O3        1.0  0.7690406636062762  0.5946664021076203  0.9126753596655063  1.0000
  O   O4        1.0  0.23093496286182358  0.40537000499437437  0.4126495052829994  1.0000
  O   O5        1.0  0.7424142285378819  0.9112491781552948  0.18398192361913598  1.0000
  O   O6        1.0  0.2575943562094878  0.0887444963827377  0.6840059200086586  1.0000
  O   O7        1.0  0.633241290159013  0.05507572570125058  0.0178108112625708  1.0000
  O   O8        1.0  0.3667548625517867  0.9449273123052534  0.5177862231822985  1.0000
