data_image0
_chemical_formula_structural       Zn4H57C88N27O22
_chemical_formula_sum              "Zn4 H57 C88 N27 O22"
_cell_length_a       19.328383223001122
_cell_length_b       19.637566529666945
_cell_length_c       20.116551173560293
_cell_angle_alpha    106.97357641830139
_cell_angle_beta     106.27866406357832
_cell_angle_gamma    113.5947369135947

_space_group_name_H-M_alt    "P 1"
_space_group_IT_number       1

loop_
  _space_group_symop_operation_xyz
  'x, y, z'

loop_
  _atom_site_type_symbol
  _atom_site_label
  _atom_site_symmetry_multiplicity
  _atom_site_fract_x
  _atom_site_fract_y
  _atom_site_fract_z
  _atom_site_occupancy
  Zn  Zn1       1.0  0.1295186662584626  0.12801788545376522  0.5052387377559243  1.0000
  Zn  Zn2       1.0  0.897431495688224  0.8883543039578471  0.502630346279979  1.0000
  Zn  Zn3       1.0  0.9941584451261819  0.901660718166106  0.38348058835907767  1.0000
  Zn  Zn4       1.0  0.0028051659429521925  0.08970233337743141  0.5922322816029038  1.0000
  H   H1        1.0  0.7258894059468375  0.8586012904890981  0.3913909697493097  1.0000
  H   H2        1.0  0.7416589618058538  0.6664880344896391  0.39145726460254343  1.0000
  H   H3        1.0  0.8777276173629432  0.12825218574611344  0.49283692803032153  1.0000
  H   H4        1.0  0.8502322321564789  0.9009393168920783  0.2663604412533402  1.0000
  H   H5        1.0  0.2875331212334443  0.141773244470798  0.6320049156797793  1.0000
  H   H6        1.0  0.007642596147761024  0.8521442768542968  0.6188123664919446  1.0000
  H   H7        1.0  0.1474704739486582  0.8737335901361407  0.3437909144079186  1.0000
  H   H8        1.0  0.9368841510750484  0.11671791239896832  0.7277739797074646  1.0000
  H   H9        1.0  0.8066741846631799  0.8461342806748889  0.6173214926368901  1.0000
  H   H10       1.0  0.11242078506194281  0.07316039837227355  0.7299247508517938  1.0000
  H   H11       1.0  0.15350781138442926  0.80892091595387  0.6666872834042225  1.0000
  H   H12       1.0  0.9568715362626106  0.6403106363359472  0.43122312837177645  1.0000
  H   H13       1.0  0.8969628440243581  0.4882562121204829  0.3787687549998325  1.0000
  H   H14       1.0  0.8972395434758481  0.36852765291359196  0.39365802107802494  1.0000
  H   H15       1.0  0.21551072439324048  0.635305498950757  0.7649554735364603  1.0000
  H   H16       1.0  0.2113881014880476  0.7533169983480903  0.7492748784025665  1.0000
  H   H17       1.0  0.3430375636750894  0.06572717960465013  0.3427878603115744  1.0000
  H   H18       1.0  0.5847517023433824  0.0931280976989584  0.30344899726166835  1.0000
  H   H19       1.0  0.6920217822672468  0.05939416715858672  0.3500543077576879  1.0000
  H   H20       1.0  0.6780783613459318  0.9361384090416397  0.49475836754034225  1.0000
  H   H21       1.0  0.4390687861750422  0.9136837553472791  0.5398069003126481  1.0000
  H   H22       1.0  0.7961554593805289  0.5559476065269211  0.18047835326562742  1.0000
  H   H23       1.0  0.6871928528103197  0.41110452253927593  0.07681560216844473  1.0000
  H   H24       1.0  0.387073874501489  0.1461723395162835  0.7315988603988473  1.0000
  H   H25       1.0  0.6225938183169076  0.554761315514455  0.27713349982268926  1.0000
  H   H26       1.0  0.3769796166521715  0.24350203655063046  0.9827328576756216  1.0000
  H   H27       1.0  0.5167844942169565  0.4073650774795754  0.1764098324914727  1.0000
  H   H28       1.0  0.8872747659933109  0.17455879919796052  0.1423025137640863  1.0000
  H   H29       1.0  0.9378396246512679  0.17351231218721352  0.27025978598466344  1.0000
  H   H30       1.0  0.8256071538964491  0.8677604437677009  0.7495457113145606  1.0000
  H   H31       1.0  0.7508699199981593  0.9057537183802258  0.02397904126893032  1.0000
  H   H32       1.0  0.7878356023759991  0.8705578604540707  0.8584294748455791  1.0000
  H   H33       1.0  0.801781066841194  0.90375921935231  0.15019205652240714  1.0000
  H   H34       1.0  0.1103852874897413  0.1477926490223355  0.31285037591572973  1.0000
  H   H35       1.0  0.17325795208447659  0.21347856081013825  0.4167831031579468  1.0000
  H   H36       1.0  0.14178147489459994  0.25590327559121556  0.3548465873674829  1.0000
  H   H37       1.0  0.12863295234978256  0.7294225187226147  0.45652007421175256  1.0000
  H   H38       1.0  0.19622960465951414  0.8302371159121125  0.46478817340931766  1.0000
  H   H39       1.0  0.13274292344404856  0.739056628114092  0.3718094765767076  1.0000
  H   H40       1.0  0.4199005026397629  0.03919541997797182  0.6159878152938418  1.0000
  H   H41       1.0  0.31786893206258066  0.9712856055416526  0.6064547597362308  1.0000
  H   H42       1.0  0.33207410062606607  0.050475998882113515  0.575240616144562  1.0000
  H   H43       1.0  0.4399842787520072  0.1498679309425626  0.2169818807371939  1.0000
  H   H44       1.0  0.48044424693062376  0.08185609351090052  0.20246621481356192  1.0000
  H   H45       1.0  0.5453166946636114  0.1851695072663588  0.2836208883905087  1.0000
  H   H46       1.0  0.92616773644108  0.3117705079086975  0.6173941300097782  1.0000
  H   H47       1.0  0.016478304757214245  0.37110695097698704  0.7127114089443366  1.0000
  H   H48       1.0  0.9186865111924618  0.2864324188948117  0.6948202221111472  1.0000
  H   H49       1.0  0.2532707861612025  0.24010964277095334  0.958870243510283  1.0000
  H   H50       1.0  0.24758471008541963  0.14854066472987174  0.964983910510206  1.0000
  H   H51       1.0  0.1527347796337608  0.14420759335553163  0.9123520699102415  1.0000
  H   H52       1.0  0.8751626341353146  0.21225982465914947  0.926147815106738  1.0000
  H   H53       1.0  0.855781410954144  0.17504473281480418  0.9956782256516876  1.0000
  H   H54       1.0  0.7933171119111008  0.21215954310524415  0.9517547853125023  1.0000
  H   H55       1.0  0.19920826095919617  0.44331932976976435  0.5595182689465972  1.0000
  H   H56       1.0  0.11693341775074363  0.3600497526087025  0.4637800065030008  1.0000
  H   H57       1.0  0.22643741065033396  0.3981452561678582  0.4880087473923923  1.0000
  C   C1        1.0  0.997731733099627  0.09972997317224502  0.35596525449395244  1.0000
  C   C2        1.0  0.7758110381432886  0.9241152122563394  0.42004950250074585  1.0000
  C   C3        1.0  0.8359294194120463  0.7255484458409216  0.2898709791031777  1.0000
  C   C4        1.0  0.03919967492858232  0.2605736975716796  0.6167408847401249  1.0000
  C   C5        1.0  0.7768172148969866  0.6949629404294628  0.36365247526214994  1.0000
  C   C6        1.0  0.12569168751977602  0.2923798809321952  0.5632385110706793  1.0000
  C   C7        1.0  0.8533500855281702  0.06180539377594841  0.471066343028994  1.0000
  C   C8        1.0  0.9032585491727259  0.9650845833419341  0.3021642018378116  1.0000
  C   C9        1.0  0.9196560892536638  0.0358388459092751  0.2899232754462702  1.0000
  C   C10       1.0  0.7690587986359035  0.9946275669788351  0.4305734386428243  1.0000
  C   C11       1.0  0.774161202647434  0.6559662006337278  0.29141779271341056  1.0000
  C   C12       1.0  0.07749711132620261  0.3200656195595642  0.592326794308228  1.0000
  C   C13       1.0  0.2333896404725664  0.11922458057059526  0.6437785188443145  1.0000
  C   C14       1.0  0.021411038453955138  0.848385852210939  0.5694799280413321  1.0000
  C   C15       1.0  0.17041825884502515  0.9388802746873354  0.37911310412103927  1.0000
  C   C16       1.0  0.9110225206331461  0.050757036273843405  0.6923056952920419  1.0000
  C   C17       1.0  0.84592398461875  0.9126995471846514  0.6367476983778673  1.0000
  C   C18       1.0  0.2414361538547283  0.07417783693628623  0.4516634121987835  1.0000
  C   C19       1.0  0.14461098489744728  0.0860159108049032  0.6948781810944666  1.0000
  C   C20       1.0  0.05184545634666888  0.8174267547722992  0.4709834196864692  1.0000
  C   C21       1.0  0.2299816628543425  0.11392008193074332  0.7114682073544216  1.0000
  C   C22       1.0  0.049947480157001685  0.7998516019078326  0.534049673674403  1.0000
  C   C23       1.0  0.2526953645448912  0.0083300760347953  0.4161058211413717  1.0000
  C   C24       1.0  0.8549544298331427  0.9803659316702069  0.6954928462167801  1.0000
  C   C25       1.0  0.11015723587595962  0.7453728666220274  0.6190214064798312  1.0000
  C   C26       1.0  0.05545880672558198  0.7323054386354856  0.5476330867929775  1.0000
  C   C27       1.0  0.0004449676230820112  0.6505089831099797  0.48638650118089555  1.0000
  C   C28       1.0  0.9988843770758746  0.5817465917843734  0.49478712873160186  1.0000
  C   C29       1.0  0.05574909180461428  0.5952892561355799  0.5670323943292743  1.0000
  C   C30       1.0  0.11172482168591101  0.6782487520813806  0.6297234271448461  1.0000
  C   C31       1.0  0.941243706270427  0.4980412944128363  0.4332771692024765  1.0000
  C   C32       1.0  0.9411490310919817  0.4315294283887497  0.4416433588043774  1.0000
  C   C33       1.0  0.00017735649556269148  0.4438474696060127  0.5124305858947835  1.0000
  C   C34       1.0  0.057034702758457595  0.526513908032783  0.5758533600862635  1.0000
  C   C35       1.0  0.11600721075568288  0.5408152529512977  0.6475518659516482  1.0000
  C   C36       1.0  0.17118076167929525  0.624391046641705  0.709959658343145  1.0000
  C   C37       1.0  0.16874103730738452  0.6900036670839571  0.7012275894700936  1.0000
  C   C38       1.0  0.005991524382636654  0.37854843501092017  0.5234367087497064  1.0000
  C   C39       1.0  0.06656161479813959  0.38964501948393604  0.5903085094448174  1.0000
  C   C40       1.0  0.11897778496553  0.47147068477665516  0.6510713848881055  1.0000
  C   C41       1.0  0.3633050754179549  0.9755685099173307  0.46219303723209043  1.0000
  C   C42       1.0  0.32972017518110863  0.0087811533868489  0.4185852714900093  1.0000
  C   C43       1.0  0.36905235874902326  0.039781590607425706  0.37641512266112187  1.0000
  C   C44       1.0  0.4405931282018045  0.03774312613521862  0.3760646797897493  1.0000
  C   C45       1.0  0.4743255563751204  0.0029831606584309975  0.4193657555708298  1.0000
  C   C46       1.0  0.43488963354322147  0.9717988332945712  0.4629376729332436  1.0000
  C   C47       1.0  0.4817688416804771  0.06956420152290832  0.3328574033108538  1.0000
  C   C48       1.0  0.5528483266492898  0.06832255631955061  0.3351526309122974  1.0000
  C   C49       1.0  0.5874118710130175  0.03377858282566851  0.3787508625138258  1.0000
  C   C50       1.0  0.5465583098089581  0.9993222601251337  0.4202319462415931  1.0000
  C   C51       1.0  0.5792123839383123  0.9625288402571218  0.4623491974072851  1.0000
  C   C52       1.0  0.5366708060215116  0.9320191627495265  0.5052261433069277  1.0000
  C   C53       1.0  0.46854333168088397  0.9373528655920468  0.5062789509582544  1.0000
  C   C54       1.0  0.6602560325096931  0.032497181081929206  0.38102565049693043  1.0000
  C   C55       1.0  0.6918669342712531  0.9965679367814176  0.42197981145883995  1.0000
  C   C56       1.0  0.6512132770020855  0.9619676764851521  0.46193617064436426  1.0000
  C   C57       1.0  0.3029661094978096  0.14567371918080602  0.7838622208335977  1.0000
  C   C58       1.0  0.3013336765232566  0.1686866926234316  0.8574132481921596  1.0000
  C   C59       1.0  0.37615783435456507  0.21750918108273257  0.9265812304407177  1.0000
  C   C60       1.0  0.4554661888878258  0.24201259152386015  0.9273064687914712  1.0000
  C   C61       1.0  0.4561878458096088  0.21034249580615955  0.8549510041629276  1.0000
  C   C62       1.0  0.3818025172560411  0.1648800959729187  0.7856032440160378  1.0000
  C   C63       1.0  0.6746212082931463  0.4432115240074739  0.12176408153617056  1.0000
  C   C64       1.0  0.734884952702501  0.5243341514805382  0.17960702145239799  1.0000
  C   C65       1.0  0.5946120016490182  0.4020246695101051  0.11922095231068398  1.0000
  C   C66       1.0  0.7166830426404687  0.5674436980450823  0.23512405537184833  1.0000
  C   C67       1.0  0.6382712697644876  0.5231675467004636  0.23481937399822075  1.0000
  C   C68       1.0  0.5785938538388108  0.44103190135760434  0.17856144602519217  1.0000
  C   C69       1.0  0.8771761871265084  0.038829645139060204  0.2195504987406807  1.0000
  C   C70       1.0  0.8198454960862093  0.9634818618328755  0.1491172658330912  1.0000
  C   C71       1.0  0.7909494955318904  0.9638875560281478  0.07830215957903874  1.0000
  C   C72       1.0  0.8184769214922909  0.040684047665784824  0.07525274464323668  1.0000
  C   C73       1.0  0.8681785731526189  0.11562159155030123  0.14530544804244977  1.0000
  C   C74       1.0  0.8970320352452248  0.11491949173172603  0.21655247687769474  1.0000
  C   C75       1.0  0.7872921195877609  0.04220915736020462  0.8532814560122689  1.0000
  C   C76       1.0  0.804654420846653  0.036253476399849716  0.7893093328697987  1.0000
  C   C77       1.0  0.7852164629552546  0.98232578446153  0.8803765868061931  1.0000
  C   C78       1.0  0.8224709681952831  0.9770999590647524  0.7523796480741256  1.0000
  C   C79       1.0  0.8130595099360463  0.9152649139465512  0.7768949171533137  1.0000
  C   C80       1.0  0.7929095838973765  0.9170233225489997  0.8378116648801709  1.0000
  C   C81       1.0  0.12259554179127007  0.19991766943020653  0.36367122547007824  1.0000
  C   C82       1.0  0.1356853305955426  0.7702711366967564  0.42832492375601566  1.0000
  C   C83       1.0  0.3509643022797988  0.0054896870453049005  0.579929065828388  1.0000
  C   C84       1.0  0.48024630272042396  0.13081953982373312  0.24632476407274595  1.0000
  C   C85       1.0  0.9606868484360687  0.309073847576805  0.6692708481965042  1.0000
  C   C86       1.0  0.22012417657943217  0.17143537428140124  0.9276986216042644  1.0000
  C   C87       1.0  0.8273437761808323  0.1798261708385667  0.9430490717431609  1.0000
  C   C88       1.0  0.17968037677933776  0.38517829428079153  0.5105089312186379  1.0000
  N   N1        1.0  0.024244681668378096  0.06926824152604641  0.40258604713205404  1.0000
  N   N2        1.0  0.8580792984319243  0.9481461172855605  0.4528807353921921  1.0000
  N   N3        1.0  0.8686375971672505  0.7973371504678256  0.35373349857340497  1.0000
  N   N4        1.0  0.0625316833721428  0.20426060716061312  0.6033705936328675  1.0000
  N   N5        1.0  0.8329543125577742  0.7786188206446881  0.39917700444931375  1.0000
  N   N6        1.0  0.11557176795108147  0.22301885477906325  0.568731841415037  1.0000
  N   N7        1.0  0.9060405889130507  0.033100545800010706  0.485336713334597  1.0000
  N   N8        1.0  0.9661770913706889  0.985246422183764  0.36845346410534335  1.0000
  N   N9        1.0  0.1572390600562983  0.09751550675907343  0.5927483012237929  1.0000
  N   N10       1.0  0.0065650340523573875  0.8904726993020947  0.5303766205409489  1.0000
  N   N11       1.0  0.11642238332640897  0.962740347814098  0.3925206567671753  1.0000
  N   N12       1.0  0.9335691829634102  0.026569444339074304  0.6365480952502338  1.0000
  N   N13       1.0  0.8930144310527551  0.9407904841115027  0.601895350862563  1.0000
  N   N14       1.0  0.1602470483202865  0.04535754921741391  0.43728493204064023  1.0000
  N   N15       1.0  0.102634551927423  0.07694989451305642  0.624186858298664  1.0000
  N   N16       1.0  0.02855173214864952  0.8735214147329275  0.47129245507409934  1.0000
  N   N17       1.0  0.5302308875416059  0.30802108583394994  0.9937384148712596  1.0000
  N   N18       1.0  0.5250028814932577  0.3248583800421373  0.057403915844588545  1.0000
  N   N19       1.0  0.8094023823667627  0.04831667056831891  0.006196259589202826  1.0000
  N   N20       1.0  0.7808545384378289  0.979572257478573  0.9478921514715425  1.0000
  N   N21       1.0  0.2991337160977992  0.16137208955411353  0.5002346008404004  1.0000
  N   N22       1.0  0.9452078470784926  0.2927544316586435  0.45968219999153354  1.0000
  N   N23       1.0  0.1844270101193217  0.4861492201552269  0.7220902279810774  1.0000
  N   N24       1.0  0.8700050598556073  0.7345085008801038  0.23646827586360802  1.0000
  N   N25       1.0  0.5628000635775762  0.8914589537974609  0.5500180187608238  1.0000
  N   N26       1.0  0.5350433919742201  0.22610478448289237  0.8506617706782579  1.0000
  N   N27       1.0  0.8020788432264039  0.09528359286047562  0.7580997241016335  1.0000
  O   O1        1.0  0.04560143651510631  0.18057854036074167  0.37150248029078636  1.0000
  O   O2        1.0  0.3747685620572412  0.19180552050347197  0.5157754679848026  1.0000
  O   O3        1.0  0.26970143017884846  0.2048329114256263  0.5265514573305978  1.0000
  O   O4        1.0  0.06601871298187932  0.7840594217210822  0.41084094184590464  1.0000
  O   O5        1.0  0.8915175351142821  0.24450215835241104  0.47216863910758633  1.0000
  O   O6        1.0  0.950312310522065  0.2754154675835565  0.3976316758039218  1.0000
  O   O7        1.0  0.24782696259208592  0.4877467159279974  0.7186675634527121  1.0000
  O   O8        1.0  0.17092696575995353  0.4962124260004474  0.779876078494624  1.0000
  O   O9        1.0  0.3255854382034824  0.9436496466892733  0.5038264481037444  1.0000
  O   O10       1.0  0.4439806781123821  0.09975025921632148  0.2916982016467742  1.0000
  O   O11       1.0  0.9378198801950502  0.8034246197104836  0.2608070393716345  1.0000
  O   O12       1.0  0.8342420511794869  0.6773389757229468  0.169624356447649  1.0000
  O   O13       1.0  0.5979559579670807  0.8545668228028025  0.5285449950480869  1.0000
  O   O14       1.0  0.5463339673028569  0.8946942332482807  0.6057684595374155  1.0000
  O   O15       1.0  0.5373835867502521  0.22144918607794756  0.7883040619999023  1.0000
  O   O16       1.0  0.5947694800345219  0.24269229667329742  0.9093907416832893  1.0000
  O   O17       1.0  0.9846578501788484  0.24843412056181802  0.6481063308420546  1.0000
  O   O18       1.0  0.2238931924737457  0.14460320733068244  0.8552202079394393  1.0000
  O   O19       1.0  0.8623063013665586  0.1691194082977532  0.7964337602368303  1.0000
  O   O20       1.0  0.740937945850213  0.06690681488394293  0.6955176439547588  1.0000
  O   O21       1.0  0.7631321010025829  0.09678251945141622  0.8798167075306011  1.0000
  O   O22       1.0  0.18058361709096718  0.3243251493268461  0.5358459063502821  1.0000
