data_image0
_chemical_formula_structural       Cd2H32C50N4O12
_chemical_formula_sum              "Cd2 H32 C50 N4 O12"
_cell_length_a       10.131279763401166
_cell_length_b       10.711115042036438
_cell_length_c       11.617180879661996
_cell_angle_alpha    75.97875355377654
_cell_angle_beta     74.07297837423467
_cell_angle_gamma    61.86695994470364

_space_group_name_H-M_alt    "P 1"
_space_group_IT_number       1

loop_
  _space_group_symop_operation_xyz
  'x, y, z'

loop_
  _atom_site_type_symbol
  _atom_site_label
  _atom_site_symmetry_multiplicity
  _atom_site_fract_x
  _atom_site_fract_y
  _atom_site_fract_z
  _atom_site_occupancy
  Cd  Cd1       1.0  0.9489555076810062  0.04753159209813161  0.348830595345305  1.0000
  Cd  Cd2       1.0  0.05104523957274397  0.9524686646741927  0.651168535006761  1.0000
  H   H1        1.0  0.9733358773238049  0.6572367169229667  0.47135932413453924  1.0000
  H   H2        1.0  0.026663887528854954  0.3427656678373766  0.5286412942904519  1.0000
  H   H3        1.0  0.8533524223736106  0.5348386883781591  0.40587296459432315  1.0000
  H   H4        1.0  0.14664784179438317  0.46516262400105307  0.5941286312969325  1.0000
  H   H5        1.0  0.5712331890372508  0.6179441394492006  0.46110182532337507  1.0000
  H   H6        1.0  0.42876654423556454  0.3820561041165576  0.5389001347673101  1.0000
  H   H7        1.0  0.5305266934761759  0.9444254448638034  0.638937949116226  1.0000
  H   H8        1.0  0.46947154590801426  0.05557801165177521  0.3610619393270298  1.0000
  H   H9        1.0  0.27943085574180043  0.783669444279518  0.3727236637938772  1.0000
  H   H10       1.0  0.720570355190034  0.21632760311066335  0.6272769249387906  1.0000
  H   H11       1.0  0.44979616897118985  0.54517403612752  0.30419430305399686  1.0000
  H   H12       1.0  0.5502060681137734  0.45482301188854296  0.6958060381941351  1.0000
  H   H13       1.0  0.9538398733039769  0.8529858438304745  0.1822873799849417  1.0000
  H   H14       1.0  0.04616136920770229  0.147013344754285  0.817711867082025  1.0000
  H   H15       1.0  0.1113801204225594  0.618274533214411  0.10394916491640059  1.0000
  H   H16       1.0  0.888620095935991  0.381724654744467  0.8960503296351091  1.0000
  H   H17       1.0  0.6116357508601026  0.40704797767821804  0.15600392814046407  1.0000
  H   H18       1.0  0.38836294408738314  0.5929522778423364  0.8439956971806737  1.0000
  H   H19       1.0  0.7533845737548859  0.15766309324721564  0.11850840036231594  1.0000
  H   H20       1.0  0.24661515140312656  0.842337158705668  0.8814918382256492  1.0000
  H   H21       1.0  0.19491040162554188  0.38433996872621634  0.1519944290812703  1.0000
  H   H22       1.0  0.8050892716656362  0.6156581629998856  0.8480028474155857  1.0000
  H   H23       1.0  0.35485754340946574  0.1350563403003946  0.10934966863170102  1.0000
  H   H24       1.0  0.6451426648342958  0.8649428560455945  0.8906481044170816  1.0000
  H   H25       1.0  0.8198350335379487  0.024079239470864912  0.9540333255291459  1.0000
  H   H26       1.0  0.18016519093540495  0.9759199401008873  0.04596789052508393  1.0000
  H   H27       1.0  0.48227885195564824  0.9285404651441594  0.231295498876868  1.0000
  H   H28       1.0  0.5177223549187887  0.0714565864395809  0.7687042291044364  1.0000
  H   H29       1.0  0.6410776396277528  0.6688443904295198  0.21169277776219533  1.0000
  H   H30       1.0  0.35892458934241483  0.3311526659736615  0.7883058419832167  1.0000
  H   H31       1.0  0.8826948961523371  0.5890099482751057  0.0630380123123685  1.0000
  H   H32       1.0  0.117307863713016  0.4109881769415297  0.9369602432336065  1.0000
  C   C1        1.0  0.8300497920383234  0.8785006730695247  0.6049857207418512  1.0000
  C   C2        1.0  0.1699504640148817  0.12150064769680573  0.3950141536466774  1.0000
  C   C3        1.0  0.7603512983301144  0.8063760265903357  0.5618207079794928  1.0000
  C   C4        1.0  0.23964743631202612  0.19362636173767822  0.4381792971786637  1.0000
  C   C5        1.0  0.8505480036357579  0.6921339068302931  0.4942539177523171  1.0000
  C   C6        1.0  0.1494507391211783  0.3078684731106023  0.5057478089085663  1.0000
  C   C7        1.0  0.7831288760634646  0.6242069678702722  0.4578676525649996  1.0000
  C   C8        1.0  0.2168713881045363  0.3757943445089467  0.5421339433262489  1.0000
  C   C9        1.0  0.6255646227125877  0.67048261574557  0.48795470644883915  1.0000
  C   C10       1.0  0.37443461124487937  0.3295187002013122  0.5120462761755817  1.0000
  C   C11       1.0  0.6027408808936413  0.8529814481548857  0.5901665764425204  1.0000
  C   C12       1.0  0.3972583846436776  0.14702200898658196  0.4098330645161994  1.0000
  C   C13       1.0  0.5341844470825375  0.7860143400465776  0.5540712797672996  1.0000
  C   C14       1.0  0.4658147868749366  0.21398697590030488  0.4459297028571285  1.0000
  C   C15       1.0  0.3646755150471818  0.83818704404915  0.5872956217466054  1.0000
  C   C16       1.0  0.6353232236523496  0.16181534008530463  0.4127052441629217  1.0000
  C   C17       1.0  0.24804151939050445  0.744735660910493  0.31069199536529607  1.0000
  C   C18       1.0  0.7519576708149246  0.25526352642249617  0.6893077466707496  1.0000
  C   C19       1.0  0.34297704373680926  0.611889096433636  0.2716564716717612  1.0000
  C   C20       1.0  0.6570226457839611  0.38810901851822893  0.7283442478305417  1.0000
  C   C21       1.0  0.06541030954126369  0.7820673732452121  0.20573353600138233  1.0000
  C   C22       1.0  0.934589415616749  0.2179328787076643  0.7942667025865828  1.0000
  C   C23       1.0  0.15308695351021123  0.6506379377368179  0.16321672741049303  1.0000
  C   C24       1.0  0.8469122366952175  0.34936124959617143  0.8367830146255528  1.0000
  C   C25       1.0  0.2954458805279287  0.5623928559869357  0.19660351708519377  1.0000
  C   C26       1.0  0.7045538089928414  0.437605258964929  0.803397202417109  1.0000
  C   C27       1.0  0.38834527152655307  0.41907488094603473  0.15928514528900453  1.0000
  C   C28       1.0  0.6116544139368116  0.5809232381993824  0.8407147134619348  1.0000
  C   C29       1.0  0.5480538845890025  0.35334057818854353  0.14538616520263042  1.0000
  C   C30       1.0  0.4519457968169718  0.6466575451504398  0.8546128327969527  1.0000
  C   C31       1.0  0.6304578457206703  0.2134809217790662  0.12240787318334866  1.0000
  C   C32       1.0  0.36954340084840687  0.786518262612127  0.8775922346349816  1.0000
  C   C33       1.0  0.31805667256265474  0.3406744444801647  0.14245778844279036  1.0000
  C   C34       1.0  0.6819430088433123  0.6593236788588189  0.8575412095567855  1.0000
  C   C35       1.0  0.40439550450304307  0.20150871187547642  0.11877276244131707  1.0000
  C   C36       1.0  0.5956062292091814  0.7984894127152773  0.881225740589194  1.0000
  C   C37       1.0  0.6440857689983088  0.9899411208482224  0.09552832939368716  1.0000
  C   C38       1.0  0.35591597688610926  0.010056991161846406  0.9044727558909074  1.0000
  C   C39       1.0  0.7796355091123531  0.9474551151127173  0.011539090507000046  1.0000
  C   C40       1.0  0.2203662286572694  0.05254300528446981  0.9884602732748744  1.0000
  C   C41       1.0  0.5900686254399329  0.892065420801757  0.16702463172577348  1.0000
  C   C42       1.0  0.4099326170717532  0.10793376778299554  0.8329746153411931  1.0000
  C   C43       1.0  0.678814528524114  0.74758064766057  0.15499719791787908  1.0000
  C   C44       1.0  0.3211861830923794  0.2524174721107358  0.8450024133485244  1.0000
  C   C45       1.0  0.8158030475083888  0.7024569581919952  0.07177697551855995  1.0000
  C   C46       1.0  0.1841976641081047  0.2975411615793107  0.9282226357478436  1.0000
  C   C47       1.0  0.8655804899959986  0.8025775126689468  0.99828889585433  1.0000
  C   C48       1.0  0.1344212477736235  0.19742060772824746  0.0017104679275447806  1.0000
  C   C49       1.0  0.009832682254916663  0.7578090907859052  0.9026026427260516  1.0000
  C   C50       1.0  0.9901685602567695  0.2421900977988544  0.09739660434092193  1.0000
  N   N1        1.0  0.11178354868925304  0.8283774353138185  0.2778867346314017  1.0000
  N   N2        1.0  0.8882176978798242  0.17162174907738156  0.7221133731869287  1.0000
  N   N3        1.0  0.5578334597509524  0.13925495342039804  0.1106525539846217  1.0000
  N   N4        1.0  0.4421667566076052  0.86074423453848  0.889346940566881  1.0000
  O   O1        1.0  0.9602371157835419  0.8723528365546902  0.5425400421036385  1.0000
  O   O2        1.0  0.03976112360065539  0.127650619960896  0.4574598463396242  1.0000
  O   O3        1.0  0.7640379268827148  0.9394494174886675  0.6982522053955974  1.0000
  O   O4        1.0  0.23596083528187248  0.06055511622748362  0.3017455973455014  1.0000
  O   O5        1.0  0.28814093049410155  0.9444186453881475  0.6478263252964281  1.0000
  O   O6        1.0  0.7118588343585586  0.05558373937219592  0.35217429312855575  1.0000
  O   O7        1.0  0.3027974281728233  0.7760411756763406  0.5552349170348592  1.0000
  O   O8        1.0  0.6972013380491618  0.22396335384625846  0.44476374645760325  1.0000
  O   O9        1.0  0.07885248742153533  0.6301768044715177  0.8833828749049674  1.0000
  O   O10       1.0  0.9211492859853366  0.3698234529266956  0.11661600796256263  1.0000
  O   O11       1.0  0.04995902245279648  0.8586459933148304  0.8499504956274109  1.0000
  O   O12       1.0  0.9500417207435488  0.14135426765106024  0.15004777397329852  1.0000
