data_image0
_chemical_formula_structural       Ca2P4H36C16O12
_chemical_formula_sum              "Ca2 P4 H36 C16 O12"
_cell_length_a       5.5011601550622915
_cell_length_b       7.562064697287593
_cell_length_c       16.87791797198616
_cell_angle_alpha    96.97268637695574
_cell_angle_beta     90.793740891569
_cell_angle_gamma    101.84382072107557

_space_group_name_H-M_alt    "P 1"
_space_group_IT_number       1

loop_
  _space_group_symop_operation_xyz
  'x, y, z'

loop_
  _atom_site_type_symbol
  _atom_site_label
  _atom_site_symmetry_multiplicity
  _atom_site_fract_x
  _atom_site_fract_y
  _atom_site_fract_z
  _atom_site_occupancy
  Ca  Ca1       1.0  0.7900097796746693  0.7837335084878064  0.0073489243371440945  1.0000
  Ca  Ca2       1.0  0.20997869803189673  0.21627278539837394  0.9926493465283528  1.0000
  P   P1        1.0  0.77405581795216  0.3379241531299257  0.8755690839913369  1.0000
  P   P2        1.0  0.22592993505819695  0.6620873866155609  0.12442893390310421  1.0000
  P   P3        1.0  0.2957613974583424  0.8048786488637488  0.8841855625734143  1.0000
  P   P4        1.0  0.704233859556645  0.19512523625855488  0.115814386716508  1.0000
  H   H1        1.0  0.2293321098212999  0.35742152784480646  0.5957852241675212  1.0000
  H   H2        1.0  0.7706479266860597  0.6425368164992735  0.4042149411478847  1.0000
  H   H3        1.0  0.018586940577058907  0.3503993453209659  0.5142908435847389  1.0000
  H   H4        1.0  0.9813952708408139  0.6495498463447548  0.48570751644988513  1.0000
  H   H5        1.0  0.0132562911606371  0.1530571710239315  0.5620880980713352  1.0000
  H   H6        1.0  0.9867213935304875  0.8469015513685179  0.437921558749352  1.0000
  H   H7        1.0  0.6596986106684354  0.299980103660026  0.6075080718962838  1.0000
  H   H8        1.0  0.3403007637953195  0.7000073804283033  0.392497293455513  1.0000
  H   H9        1.0  0.8679287993303505  0.5081734020843457  0.6370138792763457  1.0000
  H   H10       1.0  0.1320714504430214  0.49181510540724815  0.3629802987942767  1.0000
  H   H11       1.0  0.0744800978315396  0.36814533541324573  0.7382200842227321  1.0000
  H   H12       1.0  0.9255171656666903  0.6318836075283231  0.2617881635852299  1.0000
  H   H13       1.0  0.8793534621859183  0.15535494660593938  0.708762221315645  1.0000
  H   H14       1.0  0.12066175379150218  0.8446531009538771  0.2912512665773903  1.0000
  H   H15       1.0  0.5104039245259103  0.2595643902961556  0.7583199315598252  1.0000
  H   H16       1.0  0.48957860744147313  0.7404399831762521  0.24168051731487591  1.0000
  H   H17       1.0  0.6644211783349406  0.48992289601086714  0.7701387048029176  1.0000
  H   H18       1.0  0.33555894939109987  0.5100892740035547  0.2298634520728911  1.0000
  H   H19       1.0  0.4844639280034358  0.6624426388453839  0.5659168919863546  1.0000
  H   H20       1.0  0.5155506877908138  0.33756674674963694  0.43408067154860674  1.0000
  H   H21       1.0  0.4879121742661712  0.8650995244157116  0.5225839223930606  1.0000
  H   H22       1.0  0.5121378448919529  0.1349146749446888  0.4774155195218058  1.0000
  H   H23       1.0  0.7070880456045856  0.8629246640528406  0.6003975868244851  1.0000
  H   H24       1.0  0.29294635731544366  0.13707467525120617  0.39960599503294253  1.0000
  H   H25       1.0  0.361300888582285  0.015996760949981606  0.6516008089907501  1.0000
  H   H26       1.0  0.6387378379935387  0.9840142978061621  0.3483953344869803  1.0000
  H   H27       1.0  0.1407904775144644  0.8156847955489327  0.6190845610998039  1.0000
  H   H28       1.0  0.8592306348184665  0.1843293304592137  0.3809098413767487  1.0000
  H   H29       1.0  0.34117414240856203  0.6460531099447593  0.7115799979287872  1.0000
  H   H30       1.0  0.6588230611999323  0.3539391795431398  0.28841500749964416  1.0000
  H   H31       1.0  0.5700705346240937  0.8433089142320612  0.7415631415425921  1.0000
  H   H32       1.0  0.4299369070504327  0.156679842905028  0.2584334983160731  1.0000
  H   H33       1.0  0.22630955928191548  0.005974825725615991  0.7943268162428084  1.0000
  H   H34       1.0  0.7736920214212903  0.9940206779010339  0.20566549300909287  1.0000
  H   H35       1.0  0.01172441609804762  0.7978240902591835  0.7751548267756121  1.0000
  H   H36       1.0  0.9882790076355621  0.2021726164618656  0.2248405504200548  1.0000
  C   C1        1.0  0.037470366289539904  0.302207710502188  0.572443705798193  1.0000
  C   C2        1.0  0.9625115509333427  0.6977615367960011  0.4275566489503221  1.0000
  C   C3        1.0  0.8507287939780357  0.3591816813001926  0.6311626426864266  1.0000
  C   C4        1.0  0.14927297634324788  0.6408076522424936  0.3688387249578753  1.0000
  C   C5        1.0  0.8865309304597846  0.30290982791106563  0.7137237635361088  1.0000
  C   C6        1.0  0.1134655256344317  0.6970934193993302  0.2862844556563573  1.0000
  C   C7        1.0  0.6931700151826021  0.35065495697666904  0.7723768919060064  1.0000
  C   C8        1.0  0.30680849783005487  0.6493584528993992  0.2276253356067386  1.0000
  C   C9        1.0  0.5125406153517106  0.8114189204769884  0.5790691290118631  1.0000
  C   C10       1.0  0.48748469615640044  0.1885907318596125  0.4209333048137013  1.0000
  C   C11       1.0  0.33481595868074276  0.8663294559499944  0.6415851475553895  1.0000
  C   C12       1.0  0.6651994456276427  0.133674459784352  0.3584138199164286  1.0000
  C   C13       1.0  0.37396218712416385  0.795988543456609  0.7209670144300091  1.0000
  C   C14       1.0  0.6260467677282764  0.2040095989082502  0.27903148399490624  1.0000
  C   C15       1.0  0.21089364784204892  0.8571985621203452  0.7871870814492752  1.0000
  C   C16       1.0  0.7891101424153533  0.14280074914673693  0.21280966791428574  1.0000
  O   O1        1.0  0.9205542599920237  0.5511539412667756  0.9108656415103057  1.0000
  O   O2        1.0  0.0794327318103143  0.44886448688711056  0.0891316851739532  1.0000
  O   O3        1.0  0.9528026270363699  0.2147571335451133  0.882075881751611  1.0000
  O   O4        1.0  0.04718759216511614  0.7852609885248826  0.11792738626084541  1.0000
  O   O5        1.0  0.5491950549746747  0.3269888027351655  0.9258977961654864  1.0000
  O   O6        1.0  0.4507737593462053  0.6730438659465392  0.0741086480645379  1.0000
  O   O7        1.0  0.5704120240000209  0.8133796032168022  0.8920575349073021  1.0000
  O   O8        1.0  0.4295806905668442  0.1866319168575288  0.10794588879654302  1.0000
  O   O9        1.0  0.16937643067551283  0.9083389809689209  0.9482257411472261  1.0000
  O   O10       1.0  0.8306108449103818  0.0916712111882703  0.0517733837188246  1.0000
  O   O11       1.0  0.1876060350358486  0.5839884926742656  0.8866720683836037  1.0000
  O   O12       1.0  0.8123851223118027  0.41601141466957603  0.1133240029561904  1.0000
