data_image0
_chemical_formula_structural       Ca2H16C16O16F8
_chemical_formula_sum              "Ca2 H16 C16 O16 F8"
_cell_length_a       3.699342862406717
_cell_length_b       6.653193442532613
_cell_length_c       22.616240832126365
_cell_angle_alpha    90.00032919853285
_cell_angle_beta     90.0001793440282
_cell_angle_gamma    93.16398819925462

_space_group_name_H-M_alt    "P 1"
_space_group_IT_number       1

loop_
  _space_group_symop_operation_xyz
  'x, y, z'

loop_
  _atom_site_type_symbol
  _atom_site_label
  _atom_site_symmetry_multiplicity
  _atom_site_fract_x
  _atom_site_fract_y
  _atom_site_fract_z
  _atom_site_occupancy
  Ca  Ca1       1.0  0.9076007880198065  0.5834486249653849  0.25000027577680584  1.0000
  Ca  Ca2       1.0  0.09239940271573492  0.4165501837998277  0.7499999070996639  1.0000
  H   H1        1.0  0.9755850589706653  0.15650412427640956  0.28432526428589006  1.0000
  H   H2        1.0  0.024415856901050897  0.8434953749441119  0.7843247004685951  1.0000
  H   H3        1.0  0.0244206905872346  0.8434961860309683  0.7156753607534089  1.0000
  H   H4        1.0  0.975581478013858  0.1565019303911512  0.21567592456599985  1.0000
  H   H5        1.0  0.442578699030463  0.5517688566259976  0.3545462397442237  1.0000
  H   H6        1.0  0.5574240059724361  0.44823506577276345  0.8545457208171429  1.0000
  H   H7        1.0  0.5574217973756035  0.4482329628058037  0.6454543852950041  1.0000
  H   H8        1.0  0.44257934625893103  0.5517682570934282  0.1454549042240956  1.0000
  H   H9        1.0  0.37273082232438537  0.3260139625659307  0.3344078472935054  1.0000
  H   H10       1.0  0.6272711515707884  0.6739865440762997  0.8344068626479885  1.0000
  H   H11       1.0  0.6272695212487492  0.6739863515347934  0.665592777744408  1.0000
  H   H12       1.0  0.3727237860129121  0.32601377381332947  0.16559332022841036  1.0000
  H   H13       1.0  0.4035556602400592  0.9182177152330694  0.2846786074203608  1.0000
  H   H14       1.0  0.596447813254514  0.08178028386615921  0.7846779292222054  1.0000
  H   H15       1.0  0.5964500893131728  0.0817825950698605  0.715321575458802  1.0000
  H   H16       1.0  0.4035495216557194  0.918217021464656  0.21532225365225346  1.0000
  C   C1        1.0  0.0583584242228739  0.9292804053576303  0.37231378196057113  1.0000
  C   C2        1.0  0.9416272155088024  0.07071184316751558  0.8723128196424742  1.0000
  C   C3        1.0  0.9416479366667333  0.07072592627402938  0.6276868430839857  1.0000
  C   C4        1.0  0.058358390439018096  0.929276437768024  0.12768780538146274  1.0000
  C   C5        1.0  0.031009570010183982  0.9671545034757967  0.43801040143443276  1.0000
  C   C6        1.0  0.9689837806207964  0.0328480947799363  0.9380124840301822  1.0000
  C   C7        1.0  0.9689909263818707  0.03284731594266079  0.561988897124401  1.0000
  C   C8        1.0  0.031000192141775126  0.9671507253475297  0.06198593020162242  1.0000
  C   C9        1.0  0.9104393039582491  0.14725853897390098  0.4604782985136426  1.0000
  C   C10       1.0  0.089559621580797  0.8527414967174706  0.9604746886213323  1.0000
  C   C11       1.0  0.08955563363479511  0.8527417789246242  0.5395227686830212  1.0000
  C   C12       1.0  0.910435621645405  0.14726183181205948  0.03952328345705071  1.0000
  C   C13       1.0  0.8782888143223245  0.17910817973071855  0.5210440854942535  1.0000
  C   C14       1.0  0.121713168240575  0.820898062398001  0.021046665095219907  1.0000
  C   C15       1.0  0.1217231053476056  0.8208996534030815  0.4789530022719577  1.0000
  C   C16       1.0  0.8782760576831735  0.17909924861394436  0.9789526334569136  1.0000
  O   O1        1.0  0.9092343565109147  0.7692903526577197  0.3524056043354592  1.0000
  O   O2        1.0  0.09077401491850172  0.23071653354865873  0.8524049196852563  1.0000
  O   O3        1.0  0.0907686900219176  0.2307099595152096  0.6475919255822334  1.0000
  O   O4        1.0  0.9092228614696013  0.7692762557667123  0.14759305238460746  1.0000
  O   O5        1.0  0.23911113778624582  0.062439308752473686  0.34172533975375075  1.0000
  O   O6        1.0  0.7608938465265851  0.9375628485228514  0.8417248705128346  1.0000
  O   O7        1.0  0.7608854329733746  0.9375504699363332  0.6582761695945225  1.0000
  O   O8        1.0  0.23910409971067992  0.06244047812779029  0.15827487020675335  1.0000
  O   O9        1.0  0.8639526950543228  0.2210570225917721  0.2500003994918317  1.0000
  O   O10       1.0  0.13605019866892581  0.7789417842723195  0.7499993412251984  1.0000
  O   O11       1.0  0.40293531170812713  0.4662407592462542  0.31974903911538644  1.0000
  O   O12       1.0  0.5970773173237588  0.5337609502848933  0.8197491276905712  1.0000
  O   O13       1.0  0.5970729880092307  0.5337580438333802  0.6802515859232872  1.0000
  O   O14       1.0  0.4029255764181698  0.46623785659698297  0.18025238166698196  1.0000
  O   O15       1.0  0.4319765672517022  0.8276919775562346  0.2500003610604297  1.0000
  O   O16       1.0  0.5680237763120958  0.17230833653560038  0.7499993796572259  1.0000
  F   F1        1.0  0.8128076569706622  0.2936929106718793  0.4231503551242854  1.0000
  F   F2        1.0  0.18718854119824613  0.7063139027425007  0.9231500842054461  1.0000
  F   F3        1.0  0.18720380425186534  0.7063104065176303  0.5768515963994149  1.0000
  F   F4        1.0  0.8127955844065936  0.2936864227249315  0.07684921434793072  1.0000
  F   F5        1.0  0.7445751914333841  0.3533618361186228  0.5397581843651837  1.0000
  F   F6        1.0  0.2554295837640908  0.6466417698530478  0.039756999676910716  1.0000
  F   F7        1.0  0.25542275481790006  0.6466414905453634  0.46024288283479836  1.0000
  F   F8        1.0  0.7445707598090507  0.3533585442476763  0.9602436253610026  1.0000
