data_image0
_chemical_formula_structural       Zn2H32C52N6O8
_chemical_formula_sum              "Zn2 H32 C52 N6 O8"
_cell_length_a       18.28535507267886
_cell_length_b       19.263818651967075
_cell_length_c       19.67610838242257
_cell_angle_alpha    90.2503400166969
_cell_angle_beta     90.00005874112303
_cell_angle_gamma    89.93329519129651

_space_group_name_H-M_alt    "P 1"
_space_group_IT_number       1

loop_
  _space_group_symop_operation_xyz
  'x, y, z'

loop_
  _atom_site_type_symbol
  _atom_site_label
  _atom_site_symmetry_multiplicity
  _atom_site_fract_x
  _atom_site_fract_y
  _atom_site_fract_z
  _atom_site_occupancy
  Zn  Zn1       1.0  0.5766512485430937  0.5000153376130143  0.5007577639418344  1.0000
  Zn  Zn2       1.0  0.4233558063385345  0.5001162345828617  0.5007370544571614  1.0000
  H   H1        1.0  0.6171831895254698  0.2784510582786409  0.4860965221404713  1.0000
  H   H2        1.0  0.6172348617020518  0.5013808617716222  0.2834383667409242  1.0000
  H   H3        1.0  0.3828002077510675  0.4978227891494739  0.2834010558782012  1.0000
  H   H4        1.0  0.6171932996206307  0.5021300269944788  0.7177393525570963  1.0000
  H   H5        1.0  0.3822030655870988  0.49850462899855336  0.8444991023707613  1.0000
  H   H6        1.0  0.61779203899075  0.5015197934814565  0.15663273453883161  1.0000
  H   H7        1.0  0.3822980868809153  0.4979300942347892  0.1565872233231289  1.0000
  H   H8        1.0  0.6176948800010749  0.5020118420410852  0.8445592735040961  1.0000
  H   H9        1.0  0.581750177430294  0.5804605683736027  0.9382693241520598  1.0000
  H   H10       1.0  0.41826574974619035  0.41949589203230186  0.06287769561221519  1.0000
  H   H11       1.0  0.5817830733363678  0.5801172497053173  0.0639675985007315  1.0000
  H   H12       1.0  0.382820906503575  0.721389200120086  0.48661827904839333  1.0000
  H   H13       1.0  0.418231202701584  0.4198568366873942  0.9371723227678499  1.0000
  H   H14       1.0  0.6933491932151128  0.5758535521516349  0.5749953485973833  1.0000
  H   H15       1.0  0.3071183336464927  0.42434798401477974  0.4256411469209027  1.0000
  H   H16       1.0  0.6930583991182572  0.42435440011335857  0.42564142580177133  1.0000
  H   H17       1.0  0.30647340238813564  0.5758543443188486  0.5749782709633139  1.0000
  H   H18       1.0  0.9326904946065396  0.3891966056825424  0.4843886616708062  1.0000
  H   H19       1.0  0.06730354406518299  0.6108805901927994  0.515344566984581  1.0000
  H   H20       1.0  0.9324911318913748  0.6109231661597148  0.5153180426809598  1.0000
  H   H21       1.0  0.06751110948115978  0.38915505987129956  0.48441417078868915  1.0000
  H   H22       1.0  0.8302638887034134  0.5788721561413083  0.578591324853953  1.0000
  H   H23       1.0  0.6172250193848754  0.7212356096051593  0.4866393382252382  1.0000
  H   H24       1.0  0.170199873073706  0.4212735794384199  0.4213717078378423  1.0000
  H   H25       1.0  0.8299689627849318  0.4212751675013422  0.4213366789841402  1.0000
  H   H26       1.0  0.1695727416310788  0.5788840245239371  0.5786171849198923  1.0000
  H   H27       1.0  0.3827807171472912  0.27860218623048627  0.486114086417949  1.0000
  H   H28       1.0  0.617712975678998  0.14958269464326426  0.4666356917420488  1.0000
  H   H29       1.0  0.38229566820713495  0.8500425990027551  0.4669789757991936  1.0000
  H   H30       1.0  0.6176519183012912  0.84987495461948  0.4669914161112061  1.0000
  H   H31       1.0  0.3823512565731448  0.14974837484408704  0.4666547598333962  1.0000
  H   H32       1.0  0.3827711490790761  0.4986954462847065  0.717687929547715  1.0000
  C   C1        1.0  0.500027913609678  0.4990909094888779  0.3672497998191275  1.0000
  C   C2        1.0  0.45330923566182696  0.4559607452971191  0.9649189988266826  1.0000
  C   C3        1.0  0.5000237572746186  0.4997781847227642  0.07267983916515419  1.0000
  C   C4        1.0  0.4999664508524049  0.5002037139742085  0.9284636463262003  1.0000
  C   C5        1.0  0.7263721585271342  0.5427396460363952  0.5419353339020958  1.0000
  C   C6        1.0  0.2738804756081379  0.4574183768113542  0.4585435598796225  1.0000
  C   C7        1.0  0.7262245168417534  0.4574186586382253  0.4585452243931414  1.0000
  C   C8        1.0  0.2735293510523746  0.5427505046152418  0.541922989037893  1.0000
  C   C9        1.0  0.8022706714951793  0.544351003847879  0.5431395643584195  1.0000
  C   C10       1.0  0.1979710460250743  0.4557989729023431  0.45696322854684013  1.0000
  C   C11       1.0  0.8021322295192161  0.45581266559722866  0.4569292441862274  1.0000
  C   C12       1.0  0.49999341185070995  0.5009837622892589  0.6338561661218235  1.0000
  C   C13       1.0  0.1976227566552424  0.5443427417346028  0.5431648962857594  1.0000
  C   C14       1.0  0.8421353392449191  0.5000685378364905  0.499956301122296  1.0000
  C   C15       1.0  0.1578641374516252  0.5000431794008832  0.5000026163769463  1.0000
  C   C16       1.0  0.9620505162710341  0.4380959925352671  0.49010119728130513  1.0000
  C   C17       1.0  0.0379413360196068  0.5619801258097397  0.5096203408950329  1.0000
  C   C18       1.0  0.9619317440052342  0.5619989831140585  0.5095979591964762  1.0000
  C   C19       1.0  0.03807378116308511  0.43807608239531254  0.490121545536148  1.0000
  C   C20       1.0  0.07729201295941829  0.5000199262174404  0.4998929434055839  1.0000
  C   C21       1.0  0.9227085876139469  0.5000578168473594  0.49984943421348765  1.0000
  C   C22       1.0  0.4999429271953844  0.3635467043375867  0.4953146273183221  1.0000
  C   C23       1.0  0.4999531651641434  0.5003761305208769  0.8534566763773197  1.0000
  C   C24       1.0  0.5000486719600801  0.6365637457942269  0.49708939758016146  1.0000
  C   C25       1.0  0.5662110769033147  0.24953634211696138  0.4817364016985266  1.0000
  C   C26       1.0  0.4337895340311562  0.7503265438785361  0.48267998424590525  1.0000
  C   C27       1.0  0.5662278413175698  0.7502309367283785  0.4826923189530774  1.0000
  C   C28       1.0  0.43377659812982466  0.2496304391476585  0.4817382962262258  1.0000
  C   C29       1.0  0.5664761397186595  0.17818333107930326  0.47113766891893494  1.0000
  C   C30       1.0  0.4335282112752239  0.8215464180301735  0.47179403490370214  1.0000
  C   C31       1.0  0.5664466882122454  0.821444817252889  0.47180129896374007  1.0000
  C   C32       1.0  0.4335631358143032  0.1782776824292114  0.4711364969360544  1.0000
  C   C33       1.0  0.5000344688140288  0.1419028825066349  0.4651746080548376  1.0000
  C   C34       1.0  0.5000392451862865  0.4995813881698296  0.1476923764789007  1.0000
  C   C35       1.0  0.4999737215751806  0.8577548159669063  0.4658079490765417  1.0000
  C   C36       1.0  0.49998036288910436  0.28600831181354647  0.48656655608134963  1.0000
  C   C37       1.0  0.5000202932512251  0.7139668151954693  0.4879160099288454  1.0000
  C   C38       1.0  0.4999819959701527  0.932684052029927  0.4534140655989702  1.0000
  C   C39       1.0  0.5000262580523653  0.06680362491292868  0.45308011401575493  1.0000
  C   C40       1.0  0.4339138341626451  0.49919916219099053  0.7461254217308307  1.0000
  C   C41       1.0  0.566093314569585  0.5008044927482729  0.2550074122489505  1.0000
  C   C42       1.0  0.43395432189591787  0.4979451375872799  0.25498565928948114  1.0000
  C   C43       1.0  0.5660331726117391  0.5020030081339826  0.7461542362338845  1.0000
  C   C44       1.0  0.4339291708212087  0.49865932375352856  0.8168206960027932  1.0000
  C   C45       1.0  0.4999793139907565  0.500795081362703  0.710007153172583  1.0000
  C   C46       1.0  0.5660714108310357  0.501351602359989  0.18431214468302667  1.0000
  C   C47       1.0  0.43400287337394156  0.49775090864761745  0.1842866368786034  1.0000
  C   C48       1.0  0.5659972083388354  0.502182700313206  0.8168547699187202  1.0000
  C   C49       1.0  0.5000278552838537  0.49917582911884745  0.29111396016539  1.0000
  C   C50       1.0  0.5466589204857256  0.5442270158586666  0.9655179635296703  1.0000
  C   C51       1.0  0.4533515339493946  0.4557356821811778  0.0356305866937845  1.0000
  C   C52       1.0  0.5466782306328922  0.5440326070479599  0.03623364570694321  1.0000
  N   N1        1.0  0.4351740698681681  0.0339133381612697  0.44433726179498473  1.0000
  N   N2        1.0  0.5648339180778875  0.9654627848251138  0.44450179565208003  1.0000
  N   N3        1.0  0.4351507743577868  0.9656342811683841  0.44450894620295855  1.0000
  N   N4        1.0  0.5648517454552078  0.03374079957796279  0.444328077116417  1.0000
  N   N5        1.0  0.6889613640930249  0.5000431869342704  0.5003740809899996  1.0000
  N   N6        1.0  0.31103971923855067  0.5000706476767006  0.5003456641520002  1.0000
  O   O1        1.0  0.5620904668208055  0.4991902080156904  0.39682320364322976  1.0000
  O   O2        1.0  0.4379346549380684  0.5009368776697372  0.6042787466240398  1.0000
  O   O3        1.0  0.5620650631617821  0.5010966047777642  0.6042925486198243  1.0000
  O   O4        1.0  0.4379715406515957  0.49903314409579735  0.3968307504145939  1.0000
  O   O5        1.0  0.5620272961599752  0.393316854092447  0.4982884902000321  1.0000
  O   O6        1.0  0.437955273021899  0.6068279519929334  0.500131527222905  1.0000
  O   O7        1.0  0.5621842568633822  0.6067654331515512  0.500141562907686  1.0000
  O   O8        1.0  0.43781144502979424  0.39336444713264734  0.49831757471707755  1.0000
