data_image0
_chemical_formula_structural       AlH15C36O12
_chemical_formula_sum              "Al1 H15 C36 O12"
_cell_length_a       4.153404427190646
_cell_length_b       20.110697189447233
_cell_length_c       20.425396574331288
_cell_angle_alpha    61.058229126941036
_cell_angle_beta     84.60512673499262
_cell_angle_gamma    83.75650501061871

_space_group_name_H-M_alt    "P 1"
_space_group_IT_number       1

loop_
  _space_group_symop_operation_xyz
  'x, y, z'

loop_
  _atom_site_type_symbol
  _atom_site_label
  _atom_site_symmetry_multiplicity
  _atom_site_fract_x
  _atom_site_fract_y
  _atom_site_fract_z
  _atom_site_occupancy
  Al  Al1       1.0  0.02745245601547439  0.49719460812832506  0.5041297326930446  1.0000
  H   H1        1.0  0.8324779838536924  0.3070976392480703  0.7074432444927936  1.0000
  H   H2        1.0  0.8103470866466577  0.2359113040087379  0.84751856900548  1.0000
  H   H3        1.0  0.2219580418351582  0.7076135971741027  0.31622996984464885  1.0000
  H   H4        1.0  0.2260138338360418  0.8498935172034195  0.24473733831118938  1.0000
  H   H5        1.0  0.3099720708908861  0.3088466389898983  0.48317236168422534  1.0000
  H   H6        1.0  0.3420013625555569  0.23694483539961203  0.4112963619575467  1.0000
  H   H7        1.0  0.7428931861646288  0.7037562406818979  0.4904326038905395  1.0000
  H   H8        1.0  0.7198138134411918  0.8461372161578851  0.4233430700936368  1.0000
  H   H9        1.0  0.1682387515134422  0.4841377863095675  0.7122310509591755  1.0000
  H   H10       1.0  0.16898535534841821  0.41763638459317337  0.8522037808865474  1.0000
  H   H11       1.0  0.8859142670935537  0.47883291034779785  0.30910983156170596  1.0000
  H   H12       1.0  0.8950630837978507  0.41134557870967114  0.23332760203604863  1.0000
  H   H13       1.0  0.2557912807337104  0.0535398774710174  0.36660625125554697  1.0000
  H   H14       1.0  0.24548240495072798  0.3689328818470372  0.04790601269620958  1.0000
  H   H15       1.0  0.1869714475666768  0.1736030456239845  0.006473264625761002  1.0000
  C   C1        1.0  0.507542827823272  0.4401672366485768  0.618451465789448  1.0000
  C   C2        1.0  0.5798427097217879  0.43887881872484513  0.44498333160281317  1.0000
  C   C3        1.0  0.4948211439174554  0.6129604298401504  0.44851103241184365  1.0000
  C   C4        1.0  0.68349562765497  0.32983544244627444  0.7398970470032324  1.0000
  C   C5        1.0  0.6732245492094647  0.29064729918516014  0.8176291137461718  1.0000
  C   C6        1.0  0.33399649934340647  0.7385143110446677  0.33852366340094153  1.0000
  C   C7        1.0  0.3335913200509067  0.8173489900586759  0.2991045624022917  1.0000
  C   C8        1.0  0.44419381111322304  0.329570728136872  0.4293207105805833  1.0000
  C   C9        1.0  0.4605417348559868  0.2898996803997491  0.38922289338852784  1.0000
  C   C10       1.0  0.6243304556324815  0.7364847204323512  0.4374731648926157  1.0000
  C   C11       1.0  0.612921578088226  0.8154567944177558  0.4000504551980412  1.0000
  C   C12       1.0  0.31187186561719926  0.430465063215877  0.7425646188638381  1.0000
  C   C13       1.0  0.3108126414718057  0.39328791767797366  0.8202668432022762  1.0000
  C   C14       1.0  0.7654040942243298  0.4262503470239167  0.3305087454232733  1.0000
  C   C15       1.0  0.7716110548936114  0.3885758971097958  0.2885448278316289  1.0000
  C   C16       1.0  0.5001490638795044  0.3993621052280575  0.7019293605947965  1.0000
  C   C17       1.0  0.4885714687808759  0.32238255398105053  0.8587854683987286  1.0000
  C   C18       1.0  0.48231458710259983  0.2826861509842048  0.9381312808848249  1.0000
  C   C19       1.0  0.4783735974531424  0.2459999634423015  0.006475828851961245  1.0000
  C   C20       1.0  0.4866863054881918  0.20466477008831424  0.08584099986609318  1.0000
  C   C21       1.0  0.48272911624285064  0.6975141197552762  0.4073961919704131  1.0000
  C   C22       1.0  0.471634745822669  0.8568354832123364  0.3297661215884131  1.0000
  C   C23       1.0  0.47322062865303816  0.9369066779566638  0.28877165155068935  1.0000
  C   C24       1.0  0.4765768810355269  0.005379688719273201  0.24720574003769258  1.0000
  C   C25       1.0  0.49064158973596494  0.0850320895109107  0.20447128362087597  1.0000
  C   C26       1.0  0.5993292896457372  0.397488057339885  0.40075035494731276  1.0000
  C   C27       1.0  0.6217420688525619  0.31940129163604075  0.31775839142431284  1.0000
  C   C28       1.0  0.6239567904837668  0.28021734858972297  0.27598147471174167  1.0000
  C   C29       1.0  0.6160227378077321  0.24522393290771305  0.24136736436477685  1.0000
  C   C30       1.0  0.5786429985739757  0.204932139039407  0.20232015169128198  1.0000
  C   C31       1.0  0.44425446579855077  0.12529255713166518  0.12603710466430576  1.0000
  C   C32       1.0  0.557051180709628  0.12547211778863954  0.2415958060894781  1.0000
  C   C33       1.0  0.5558961934692235  0.24380029120975177  0.12389368942289984  1.0000
  C   C34       1.0  0.675343343027009  0.083914743862934  0.32012739657515243  1.0000
  C   C35       1.0  0.6682997490878576  0.32310093850671256  0.08123825108901878  1.0000
  C   C36       1.0  0.366392043206595  0.0804690132448229  0.0887077365619788  1.0000
  O   O1        1.0  0.27993573234632396  0.58037833956913  0.4355787994960067  1.0000
  O   O2        1.0  0.2607453531505612  0.4848333977136436  0.5875061835327954  1.0000
  O   O3        1.0  0.3376145001811678  0.4266496968873598  0.4919949853914358  1.0000
  O   O4        1.0  0.7215057353667046  0.5786716318784287  0.49441302447637264  1.0000
  O   O5        1.0  0.8031900224014021  0.482785855761705  0.43329560454385063  1.0000
  O   O6        1.0  0.7613640262841128  0.4267917014940182  0.5849683401470427  1.0000
  O   O7        1.0  0.4946694636370167  0.0442844637905111  0.37993796211590336  1.0000
  O   O8        1.0  0.965300347808302  0.0895470479580069  0.3242105768114811  1.0000
  O   O9        1.0  0.4827602803403366  0.3821234631000436  0.036742095951694906  1.0000
  O   O10       1.0  0.9530921167874025  0.3296240167289427  0.08882546221538225  1.0000
  O   O11       1.0  0.19563655216224868  0.11817212861143395  0.02545509064333368  1.0000
  O   O12       1.0  0.4391177516880943  0.0125953659642519  0.1143423810445654  1.0000
