data_image0
_chemical_formula_structural       Fe2H8C16O10
_chemical_formula_sum              "Fe2 H8 C16 O10"
_cell_length_a       6.562150354847298
_cell_length_b       11.105793776376338
_cell_length_c       11.10583231774261
_cell_angle_alpha    93.22776610694713
_cell_angle_beta     104.31384322542964
_cell_angle_gamma    104.31359526008039

_space_group_name_H-M_alt    "P 1"
_space_group_IT_number       1

loop_
  _space_group_symop_operation_xyz
  'x, y, z'

loop_
  _atom_site_type_symbol
  _atom_site_label
  _atom_site_symmetry_multiplicity
  _atom_site_fract_x
  _atom_site_fract_y
  _atom_site_fract_z
  _atom_site_occupancy
  Fe  Fe1       1.0  0.4923830673463312  0.9983486344127637  0.9983424168255507  1.0000
  Fe  Fe2       1.0  0.9940349701103628  0.0006795835375612966  0.0006760679595813671  1.0000
  H   H1        1.0  0.8789854235076501  0.604992470723644  0.9941865379377786  1.0000
  H   H2        1.0  0.12313033469219897  0.007275159180664999  0.3945740448457257  1.0000
  H   H3        1.0  0.12313742278320919  0.3945835641926365  0.0072941477248277976  1.0000
  H   H4        1.0  0.8789840702677691  0.9941992431474771  0.6049943950852279  1.0000
  H   H5        1.0  0.7615796562933284  0.3714791112225199  0.9956238625668801  1.0000
  H   H6        1.0  0.24038705321033396  0.005583664617404299  0.6279675955604276  1.0000
  H   H7        1.0  0.24040681828365243  0.6279802793596829  0.005606690419249108  1.0000
  H   H8        1.0  0.7615955941136007  0.9956322365257149  0.37148149322410257  1.0000
  C   C1        1.0  0.566378135091611  0.6290486969344755  0.9998789886407022  1.0000
  C   C2        1.0  0.43552019428290834  0.0011152751252083996  0.3704385299262967  1.0000
  C   C3        1.0  0.43551531241818237  0.3704405784418654  0.0011156715674544874  1.0000
  C   C4        1.0  0.566374510110357  0.9998799997131228  0.6290484582723579  1.0000
  C   C5        1.0  0.714302654710373  0.5575774681602397  0.9971756249050613  1.0000
  C   C6        1.0  0.2877489829422899  0.0041439341682618985  0.4419767838933595  1.0000
  C   C7        1.0  0.287752147582985  0.4419818777697769  0.004152690765380376  1.0000
  C   C8        1.0  0.7143049258931241  0.9971785759778696  0.5575789002701868  1.0000
  C   C9        1.0  0.6491830154918075  0.4286119394997598  0.9977402791466261  1.0000
  C   C10       1.0  0.3527960843549637  0.0034715733013755  0.5708481342450682  1.0000
  C   C11       1.0  0.3528019384651556  0.5708558669829956  0.0034822184927633913  1.0000
  C   C12       1.0  0.6491900409111152  0.99774629986517  0.42861331167938477  1.0000
  C   C13       1.0  0.6378403642513887  0.7677191218114457  0.998251604226354  1.0000
  C   C14       1.0  0.3618708328003494  0.0019315195211646987  0.23174303395219198  1.0000
  C   C15       1.0  0.36186642171714567  0.23174790581370527  0.0019313508604880904  1.0000
  C   C16       1.0  0.637834255330638  0.9982568498404304  0.7677169930061678  1.0000
  O   O1        1.0  0.48944219880792866  0.8242765126956115  0.9969279208044451  1.0000
  O   O2        1.0  0.5082647471235332  0.0018340964365109007  0.17359195108722497  1.0000
  O   O3        1.0  0.5082632398496542  0.17359634346762928  0.0018476692684287713  1.0000
  O   O4        1.0  0.4894397343885968  0.9969549526194895  0.8242732622584228  1.0000
  O   O5        1.0  0.8346023218305233  0.8149496438589025  0.9973078889558663  1.0000
  O   O6        1.0  0.16560245978129015  0.0033923933621124985  0.18570798040118316  1.0000
  O   O7        1.0  0.1655884432865022  0.18570697009008086  0.003377123754745488  1.0000
  O   O8        1.0  0.8345818561075898  0.9972913188886775  0.8149472162053468  1.0000
  O   O9        1.0  0.2065272594134624  0.9499722738381136  0.9499661520483113  1.0000
  O   O10       1.0  0.7918420639353841  0.049587197378244206  0.04958164504604672  1.0000
