data_image0
_chemical_formula_structural       MgH10C14S2O10
_chemical_formula_sum              "Mg1 H10 C14 S2 O10"
_cell_length_a       4.85760407125906
_cell_length_b       5.59564176152188
_cell_length_c       13.521745586253306
_cell_angle_alpha    91.51840748605247
_cell_angle_beta     90.07317969871636
_cell_angle_gamma    98.15880603817679

_space_group_name_H-M_alt    "P 1"
_space_group_IT_number       1

loop_
  _space_group_symop_operation_xyz
  'x, y, z'

loop_
  _atom_site_type_symbol
  _atom_site_label
  _atom_site_symmetry_multiplicity
  _atom_site_fract_x
  _atom_site_fract_y
  _atom_site_fract_z
  _atom_site_occupancy
  Mg  Mg1       1.0  0.9999959299557942  0.5000009631488426  9.134701173013422e-07  1.0000
  H   H1        1.0  0.6223250028092906  0.2677480323694327  0.7441968222054314  1.0000
  H   H2        1.0  0.3776642795673339  0.7322498429922247  0.2558051937486994  1.0000
  H   H3        1.0  0.4615346728734195  0.11101011123259498  0.5778524134557941  1.0000
  H   H4        1.0  0.5384677980083623  0.8889788534409107  0.42215237938602  1.0000
  H   H5        1.0  0.10625669497749606  0.8352196889281132  0.7228839205215039  1.0000
  H   H6        1.0  0.893749718596851  0.16478259622974895  0.2771123052194966  1.0000
  H   H7        1.0  0.23289134478492463  0.10061107938805951  0.9313645153569396  1.0000
  H   H8        1.0  0.7670984981429284  0.8993906724976172  0.0686338908885631  1.0000
  H   H9        1.0  0.9396368196072374  0.1045986719095069  0.885243532613913  1.0000
  H   H10       1.0  0.06035165214788658  0.8954083403874833  0.1147564716167864  1.0000
  C   C1        1.0  0.37986393632335336  0.5635628081245443  0.7424980882343134  1.0000
  C   C2        1.0  0.6201412223225943  0.43643029348206147  0.2575001448074872  1.0000
  C   C3        1.0  0.47637661912656176  0.35765091104813257  0.702940542259995  1.0000
  C   C4        1.0  0.5236250565494771  0.6423472440090024  0.29706150022988703  1.0000
  C   C5        1.0  0.3830872414715287  0.2684485251143798  0.6099493516144462  1.0000
  C   C6        1.0  0.6169240059138374  0.7315443422019144  0.3900540650947519  1.0000
  C   C7        1.0  0.19515487444433433  0.3832114759376354  0.5565585159412052  1.0000
  C   C8        1.0  0.8048634027097137  0.6167873192882711  0.44343986878718056  1.0000
  C   C9        1.0  0.09396635893516248  0.5871362883680648  0.5983388277390134  1.0000
  C   C10       1.0  0.9060446692114464  0.4128696993041674  0.4016574902811243  1.0000
  C   C11       1.0  0.18706024926886758  0.6774482400105769  0.6919277738113223  1.0000
  C   C12       1.0  0.8129497965170742  0.32255047564826367  0.3080691159695519  1.0000
  C   C13       1.0  0.1093238264863601  0.2896211552078896  0.4556924911200753  1.0000
  C   C14       1.0  0.8906857666586417  0.7103740580649927  0.5443028379699086  1.0000
  S   S1        1.0  0.523447105958624  0.6975655904868319  0.8551352221637245  1.0000
  S   S2        1.0  0.47654107781300326  0.30243945682401124  0.1448669562355462  1.0000
  O   O1        1.0  0.0975151403549432  0.2096560295630283  0.9182980466616255  1.0000
  O   O2        1.0  0.9024728479277258  0.7903473734514181  0.0817018741351916  1.0000
  O   O3        1.0  0.28946019777612975  0.7395939191113501  0.9206795277066746  1.0000
  O   O4        1.0  0.7105229341980532  0.2604039767474546  0.07932025909406798  1.0000
  O   O5        1.0  0.6836660649483903  0.9275193424988614  0.8277158956805408  1.0000
  O   O6        1.0  0.31631661655069365  0.0724908719914765  0.17228787185867836  1.0000
  O   O7        1.0  0.6921370094475988  0.5251417304935799  0.8958173118368221  1.0000
  O   O8        1.0  0.30785598438524897  0.47486866362802976  0.1041872164440321  1.0000
  O   O9        1.0  0.20567753625389432  0.11648984225453057  0.41734478972277594  1.0000
  O   O10       1.0  0.794329158222233  0.8834995363405586  0.5826555801932827  1.0000
