data_image0
_chemical_formula_structural       Sm2H16C18O18
_chemical_formula_sum              "Sm2 H16 C18 O18"
_cell_length_a       7.753608232180406
_cell_length_b       8.468014733931271
_cell_length_c       9.687173575675933
_cell_angle_alpha    68.33878106371414
_cell_angle_beta     76.36600979721938
_cell_angle_gamma    76.27941521561081

_space_group_name_H-M_alt    "P 1"
_space_group_IT_number       1

loop_
  _space_group_symop_operation_xyz
  'x, y, z'

loop_
  _atom_site_type_symbol
  _atom_site_label
  _atom_site_symmetry_multiplicity
  _atom_site_fract_x
  _atom_site_fract_y
  _atom_site_fract_z
  _atom_site_occupancy
  Sm  Sm1       1.0  0.2529595255334769  0.27478619248375213  0.4536322156634897  1.0000
  Sm  Sm2       1.0  0.7470419146974339  0.7252087945445495  0.5463630712524578  1.0000
  H   H1        1.0  0.018571218446076905  0.3130895340361235  0.23188015056783232  1.0000
  H   H2        1.0  0.9814202114325926  0.6869105366973329  0.7681207618211449  1.0000
  H   H3        1.0  0.8912636690649407  0.3862009282347003  0.36021398136155386  1.0000
  H   H4        1.0  0.10872889669054327  0.6138004224148332  0.6397873183778133  1.0000
  H   H5        1.0  0.8426543614128194  0.5943607012996209  0.02424225614058164  1.0000
  H   H6        1.0  0.1573542061305631  0.4056341445750888  0.9757660482797168  1.0000
  H   H7        1.0  0.6860564513904494  0.7410605799434293  0.19251986045873082  1.0000
  H   H8        1.0  0.3139457305342789  0.2589394654331443  0.8074829507456658  1.0000
  H   H9        1.0  0.991369680449566  0.9754522053635738  0.7588807156055495  1.0000
  H   H10       1.0  0.008646583627545104  0.024543953611754394  0.2411245335029407  1.0000
  H   H11       1.0  0.6354602323200284  0.294282807525299  0.0017749380132627542  1.0000
  H   H12       1.0  0.36453995244504983  0.7057121554322803  0.9982226834517793  1.0000
  H   H13       1.0  0.327096281805126  0.9152742090033285  0.4858788408643522  1.0000
  H   H14       1.0  0.6728972227140418  0.0847219766150644  0.5141249451623794  1.0000
  H   H15       1.0  0.12706971222248595  0.8896290219446924  0.5704827131373593  1.0000
  H   H16       1.0  0.8729231147858983  0.11037102927495816  0.429519979744157  1.0000
  C   C1        1.0  0.5298348446802167  0.032027111317020684  0.25405303224314224  1.0000
  C   C2        1.0  0.4701651209401234  0.9679768627591586  0.745942790281852  1.0000
  C   C3        1.0  0.649483987125862  0.019185277313646096  0.1117155584249829  1.0000
  C   C4        1.0  0.35051999280376833  0.9808186927017671  0.888280461775594  1.0000
  C   C5        1.0  0.7214040762931975  0.8555152469204399  0.10006122155154878  1.0000
  C   C6        1.0  0.27859854192269035  0.14448873171264853  0.8999340469168973  1.0000
  C   C7        1.0  0.8405938263266532  0.8406539163522099  0.9718469235705886  1.0000
  C   C8        1.0  0.15941430288396674  0.15934228343305523  0.02815484390551153  1.0000
  C   C9        1.0  0.8933651269440829  0.9862825809215109  0.8570724672877722  1.0000
  C   C10       1.0  0.10664251517670921  0.013716206827396599  0.14292754266443816  1.0000
  C   C11       1.0  0.818868223637395  0.14972915678594487  0.8676259164973178  1.0000
  C   C12       1.0  0.1811358912639348  0.850267047060086  0.1323756533032068  1.0000
  C   C13       1.0  0.6940463010468819  0.1670855126648974  0.993874185024595  1.0000
  C   C14       1.0  0.3059566138378785  0.8329171556421712  0.006123505346401672  1.0000
  C   C15       1.0  0.873858180309135  0.30488391280393756  0.7403840927392767  1.0000
  C   C16       1.0  0.12614105235117992  0.6951174383417464  0.2596168506191177  1.0000
  C   C17       1.0  0.4242178371676104  0.5278744198956105  0.5586811476259116  1.0000
  C   C18       1.0  0.575782761813741  0.4721232640576645  0.4413020941620403  1.0000
  O   O1        1.0  0.4245828693943211  0.17171855043022785  0.2527790145800353  1.0000
  O   O2        1.0  0.5754141402694162  0.8282790068302147  0.7472163746572636  1.0000
  O   O3        1.0  0.20926400180682242  0.97566629770413  0.5231172506494418  1.0000
  O   O4        1.0  0.7907304969252709  0.02433121141486789  0.4768828076860461  1.0000
  O   O5        1.0  0.5406896769265758  0.897656727430707  0.37291502658320763  1.0000
  O   O6        1.0  0.45931187624443487  0.102345949494044  0.6270819120556583  1.0000
  O   O7        1.0  0.9876087317808813  0.289368628052891  0.34202930843301266  1.0000
  O   O8        1.0  0.012383256019560938  0.7106288329246623  0.6579754190006715  1.0000
  O   O9        1.0  0.9146106323000398  0.6810867352969794  0.9555821367886924  1.0000
  O   O10       1.0  0.08539327883925552  0.3189119693436239  0.04442590557122373  1.0000
  O   O11       1.0  0.0008790413385213338  0.27983190435465116  0.6361368122882926  1.0000
  O   O12       1.0  0.9991222372385028  0.7201732951569326  0.36386454138914814  1.0000
  O   O13       1.0  0.7899222330441801  0.4526578232934142  0.7417688299768277  1.0000
  O   O14       1.0  0.2100621978448132  0.5473435681660561  0.2582289881301564  1.0000
  O   O15       1.0  0.27411715162816114  0.4779303785312691  0.5788867251170446  1.0000
  O   O16       1.0  0.725886117416323  0.5220721808144617  0.42112125285805774  1.0000
  O   O17       1.0  0.45663854208792304  0.6169348596704083  0.6252090929937001  1.0000
  O   O18       1.0  0.5433449854533663  0.3830716859240795  0.3747872675863208  1.0000
