data_image0
_chemical_formula_structural       Ag2H26C40N4O10
_chemical_formula_sum              "Ag2 H26 C40 N4 O10"
_cell_length_a       7.923664044739168
_cell_length_b       9.807660814939892
_cell_length_c       11.936136442617979
_cell_angle_alpha    71.41633808165703
_cell_angle_beta     76.30445249839607
_cell_angle_gamma    79.12115385008163

_space_group_name_H-M_alt    "P 1"
_space_group_IT_number       1

loop_
  _space_group_symop_operation_xyz
  'x, y, z'

loop_
  _atom_site_type_symbol
  _atom_site_label
  _atom_site_symmetry_multiplicity
  _atom_site_fract_x
  _atom_site_fract_y
  _atom_site_fract_z
  _atom_site_occupancy
  Ag  Ag1       1.0  0.39840578600477966  0.8689418979975516  0.03131845417311753  1.0000
  Ag  Ag2       1.0  0.6015947355738546  0.13106245749506942  0.9686856010487973  1.0000
  H   H1        1.0  0.5325547295428024  0.2638595684862963  0.29019373286661937  1.0000
  H   H2        1.0  0.4674344783107073  0.7361427139085066  0.7098042113430977  1.0000
  H   H3        1.0  0.4561829734730906  0.45762547632409684  0.3959396962679804  1.0000
  H   H4        1.0  0.5438172427376528  0.5423724277604478  0.6040610258416166  1.0000
  H   H5        1.0  0.2358797693655816  0.43183218479141067  0.5819395335930153  1.0000
  H   H6        1.0  0.7641275519593478  0.568161335807602  0.4180654051989095  1.0000
  H   H7        1.0  0.08989082289466667  0.2041678340651885  0.6767087323356975  1.0000
  H   H8        1.0  0.9101158676987778  0.7958213944407292  0.323293209913679  1.0000
  H   H9        1.0  0.3304271014283061  0.7669650838544159  0.34751378523745297  1.0000
  H   H10       1.0  0.6695594575429381  0.23302848827658812  0.6524909786688085  1.0000
  H   H11       1.0  0.5808193848740615  0.6259022479129044  0.21668498742070602  1.0000
  H   H12       1.0  0.4191831489686492  0.37410651727183364  0.7833100924612637  1.0000
  H   H13       1.0  0.785561898986259  0.3994647539954457  0.22639965267552506  1.0000
  H   H14       1.0  0.2144382257908362  0.6005429718876273  0.7735918734642624  1.0000
  H   H15       1.0  0.8004525600194654  0.48539032564967516  0.8440190019271085  1.0000
  H   H16       1.0  0.1995614967160221  0.514610860405952  0.15597456695392964  1.0000
  H   H17       1.0  0.5994992339548162  0.7084258174157512  0.8522622304091455  1.0000
  H   H18       1.0  0.4005085199098134  0.2915829772788925  0.14772868869849987  1.0000
  H   H19       1.0  0.908909956358997  0.19962426799241945  0.23265266417861594  1.0000
  H   H20       1.0  0.09108507515002624  0.8003736574537046  0.7673471733104192  1.0000
  H   H21       1.0  0.12804018899073805  0.9887337569366114  0.22444123358953752  1.0000
  H   H22       1.0  0.8719617820073251  0.011260860442185099  0.775563409316284  1.0000
  H   H23       1.0  0.0028251566697648045  0.32483429554987703  0.841838601449055  1.0000
  H   H24       1.0  0.9971890362573673  0.6751657726946547  0.1581585831932558  1.0000
  H   H25       1.0  0.22299168551040788  0.1059912238536782  0.8520047313742936  1.0000
  H   H26       1.0  0.7770193828702148  0.894012030454753  0.14799882255599092  1.0000
  C   C1        1.0  0.24070803756309542  0.913401861905875  0.481907277436413  1.0000
  C   C2        1.0  0.7592900808366279  0.0866014627636602  0.5180923831441717  1.0000
  C   C3        1.0  0.35270390179521627  0.9978720538867306  0.3893785589402655  1.0000
  C   C4        1.0  0.647282343585836  0.0021236945164063003  0.6106248597374629  1.0000
  C   C5        1.0  0.34965862369919165  0.12791891082689233  0.42247518225928365  1.0000
  C   C6        1.0  0.6503313828465591  0.8720779520840268  0.5775240227738719  1.0000
  C   C7        1.0  0.434531132765443  0.2533150024686747  0.37240536489165516  1.0000
  C   C8        1.0  0.5654659847811984  0.7466774854352992  0.6275972159246876  1.0000
  C   C9        1.0  0.39246711234419956  0.35933046744239766  0.43230348682686065  1.0000
  C   C10       1.0  0.6075377881417197  0.6406619968977907  0.5676995800211841  1.0000
  C   C11       1.0  0.26863154072232476  0.34354678068477545  0.5405165277081494  1.0000
  C   C12       1.0  0.7313646207292379  0.65644357444107  0.45948339313541453  1.0000
  C   C13       1.0  0.18628803123777263  0.21857405820129827  0.5934477741583848  1.0000
  C   C14       1.0  0.8137113474094305  0.7814205698582769  0.40655642643715584  1.0000
  C   C15       1.0  0.2311917357892597  0.11342022629218457  0.5327585551785177  1.0000
  C   C16       1.0  0.7688026449925757  0.8865820177838798  0.46724195545004926  1.0000
  C   C17       1.0  0.19424119960743258  0.7646839463725642  0.5104424451435107  1.0000
  C   C18       1.0  0.8057533550218565  0.23530859460509387  0.4895554888668059  1.0000
  C   C19       1.0  0.4575900463934559  0.9675932457885777  0.27681112421677767  1.0000
  C   C20       1.0  0.5423992646670968  0.032399231764863104  0.7231943341644537  1.0000
  C   C21       1.0  0.6311872274172288  0.5880616657485194  0.13711172518254947  1.0000
  C   C22       1.0  0.3688190617034763  0.4119482054654213  0.8628799819539877  1.0000
  C   C23       1.0  0.7450885924509832  0.46097322962489073  0.1412463784102655  1.0000
  C   C24       1.0  0.2549073154928791  0.5390366673550417  0.8587452412834438  1.0000
  C   C25       1.0  0.8098682141654338  0.41760299169083487  0.03593358893190413  1.0000
  C   C26       1.0  0.19013548260441127  0.5824068902038989  0.9640576758943523  1.0000
  C   C27       1.0  0.7557682174665032  0.5090900240591125  0.9301311955359068  1.0000
  C   C28       1.0  0.24422277460783443  0.4909090140228328  0.06986646497429662  1.0000
  C   C29       1.0  0.6423597653845051  0.6349389204426713  0.9331250602763743  1.0000
  C   C30       1.0  0.35764118518273585  0.36507206450820456  0.0668646691757644  1.0000
  C   C31       1.0  0.9336272319989048  0.2841073788933528  0.03668656996052285  1.0000
  C   C32       1.0  0.06638370607677047  0.7158970017047539  0.9633125273093341  1.0000
  C   C33       1.0  0.9711706559691179  0.1849822031417148  0.14491705561646032  1.0000
  C   C34       1.0  0.028833780625959066  0.8150221744833318  0.8550838790247113  1.0000
  C   C35       1.0  0.0958637944342939  0.06571802656352328  0.1414795906264175  1.0000
  C   C36       1.0  0.9041394968937481  0.9342852597872738  0.8585226363730241  1.0000
  C   C37       1.0  0.02309743328142839  0.252828666854569  0.9295267483423614  1.0000
  C   C38       1.0  0.9769191958092164  0.747181119243322  0.07047093253103763  1.0000
  C   C39       1.0  0.14708024703941186  0.13162070706765414  0.9333008800171925  1.0000
  C   C40       1.0  0.8529306674894669  0.8683836396161413  0.06670158084925498  1.0000
  N   N1        1.0  0.5790330080773883  0.6742027374488231  0.035084764232195226  1.0000
  N   N2        1.0  0.42097981550852376  0.3258158237684512  0.9649012071227929  1.0000
  N   N3        1.0  0.18510829290191566  0.03964546930122741  0.0376343001160109  1.0000
  N   N4        1.0  0.8148930332556572  0.9603534751860892  0.9623701750301946  1.0000
  O   O1        1.0  0.16630794499385348  0.9822778313285881  0.5694575723454065  1.0000
  O   O2        1.0  0.8336903213709161  0.0177243924870041  0.43054402219815563  1.0000
  O   O3        1.0  0.24607682579153323  0.7018523871813614  0.4233593827031328  1.0000
  O   O4        1.0  0.7539055198975718  0.2981520006838849  0.57664578084254  1.0000
  O   O5        1.0  0.11235564758413116  0.7049635040529766  0.6110308924689107  1.0000
  O   O6        1.0  0.8876409224423581  0.2950234976395762  0.38897987565848513  1.0000
  O   O7        1.0  0.4416859776028232  0.8492467512562029  0.2557592019069261  1.0000
  O   O8        1.0  0.5583008831852183  0.1507446276455084  0.7442485890261493  1.0000
  O   O9        1.0  0.5542889430678174  0.0597781091228455  0.20660790650391905  1.0000
  O   O10       1.0  0.4456981127788779  0.9402122367535668  0.7933950911989669  1.0000
