data_image0
_chemical_formula_structural       Ag2P2H38C38N2Cl2
_chemical_formula_sum              "Ag2 P2 H38 C38 N2 Cl2"
_cell_length_a       9.19829785531187
_cell_length_b       9.723338292450874
_cell_length_c       11.388375381470668
_cell_angle_alpha    75.20831236466827
_cell_angle_beta     66.57615266291255
_cell_angle_gamma    72.71289448096711

_space_group_name_H-M_alt    "P 1"
_space_group_IT_number       1

loop_
  _space_group_symop_operation_xyz
  'x, y, z'

loop_
  _atom_site_type_symbol
  _atom_site_label
  _atom_site_symmetry_multiplicity
  _atom_site_fract_x
  _atom_site_fract_y
  _atom_site_fract_z
  _atom_site_occupancy
  Ag  Ag1       1.0  0.6632083579966874  0.8466883035715467  0.9982079044158852  1.0000
  Ag  Ag2       1.0  0.3367928529756838  0.1533147511326192  0.0017910518718267168  1.0000
  P   P1        1.0  0.7587998139344804  0.6565521467964857  0.8742870714281779  1.0000
  P   P2        1.0  0.24119757003956727  0.3434520038253766  0.1257111245109925  1.0000
  H   H1        1.0  0.9617572241712653  0.881187773957457  0.059859986082244555  1.0000
  H   H2        1.0  0.038248203898106715  0.11881745014490964  0.9401415310631335  1.0000
  H   H3        1.0  0.04972004803320835  0.8528347670242481  0.2462004622737197  1.0000
  H   H4        1.0  0.9502761729756344  0.14716936646384937  0.7538060150306194  1.0000
  H   H5        1.0  0.8467932518593955  0.8107285854824227  0.47379471467881734  1.0000
  H   H6        1.0  0.15320008650060396  0.18926792778145798  0.5262090755018463  1.0000
  H   H7        1.0  0.5626293015982355  0.808631336708501  0.4994316949335911  1.0000
  H   H8        1.0  0.43736745658976867  0.1913608290230258  0.5005649109809838  1.0000
  H   H9        1.0  0.4951467783575012  0.843763985608369  0.2985175406335472  1.0000
  H   H10       1.0  0.5048578573204877  0.15623471764880748  0.7014759868467948  1.0000
  H   H11       1.0  0.7165189053478898  0.43172848343097303  0.014700918082589023  1.0000
  H   H12       1.0  0.2834816579036287  0.5682723886846615  0.9852995983207649  1.0000
  H   H13       1.0  0.8998578820758282  0.3993084448097122  0.8820717593266352  1.0000
  H   H14       1.0  0.10014386609012865  0.600692426823798  0.117928375275774  1.0000
  H   H15       1.0  0.8430316947440061  0.5416036404527134  0.11323119897766533  1.0000
  H   H16       1.0  0.15697268087300384  0.45839614748916085  0.8867648113980806  1.0000
  H   H17       1.0  0.9485854999752231  0.36172815288166765  0.08944306074469224  1.0000
  H   H18       1.0  0.051415600469873465  0.6382705361633114  0.9105586339733591  1.0000
  H   H19       1.0  0.910299727667983  0.9023411124955771  0.7372264717562802  1.0000
  H   H20       1.0  0.0896962064530342  0.09766412720776428  0.2627728334205273  1.0000
  H   H21       1.0  0.13314252899454004  0.9434395786787347  0.5257984045808543  1.0000
  H   H22       1.0  0.866854582724507  0.056565666414442696  0.4741978856069338  1.0000
  H   H23       1.0  0.2708344796631721  0.7484542193929186  0.38802508854480067  1.0000
  H   H24       1.0  0.7291669938089742  0.2515477486692247  0.6119722625768701  1.0000
  H   H25       1.0  0.19667324698144026  0.5061673732074397  0.46734484640093393  1.0000
  H   H26       1.0  0.8033290359392923  0.4938313173127398  0.5326555887868166  1.0000
  H   H27       1.0  0.9762183648760756  0.46427972435516546  0.6761345884896314  1.0000
  H   H28       1.0  0.023780486022630498  0.5357233234839712  0.3238686423174073  1.0000
  H   H29       1.0  0.6826075204868475  0.4010550307886617  0.8212044331341842  1.0000
  H   H30       1.0  0.31739540771593505  0.5989458442773595  0.17879356420856143  1.0000
  H   H31       1.0  0.4852664572128163  0.3915654587304615  0.7307778072099396  1.0000
  H   H32       1.0  0.5147358232691134  0.6084332337470355  0.2692217502484483  1.0000
  H   H33       1.0  0.29735876556672025  0.6184454600411298  0.6715767479105068  1.0000
  H   H34       1.0  0.7026456149278956  0.38155432398610145  0.32842101792395795  1.0000
  H   H35       1.0  0.2998259899909854  0.8557043340745735  0.7151635055253891  1.0000
  H   H36       1.0  0.7001760304299721  0.14429544308762124  0.28483853482840266  1.0000
  H   H37       1.0  0.49736065718485634  0.8666714486794973  0.8100728518933522  1.0000
  H   H38       1.0  0.5026366333335589  0.13332832258192437  0.18993422658166279  1.0000
  C   C1        1.0  0.876648820109736  0.8649612984391124  0.15899758031347508  1.0000
  C   C2        1.0  0.123352275457755  0.13503739452051627  0.8410023589458574  1.0000
  C   C3        1.0  0.9250713003742276  0.8488207992814409  0.264184157499905  1.0000
  C   C4        1.0  0.0749295253770654  0.1511789861921713  0.735814753737401  1.0000
  C   C5        1.0  0.8122563099627839  0.8267401185306793  0.3891652229988268  1.0000
  C   C6        1.0  0.18774360069026838  0.173258574911074  0.6108350980614574  1.0000
  C   C7        1.0  0.6547824134750186  0.8248378209178285  0.4037565467847272  1.0000
  C   C8        1.0  0.34522081867279303  0.17515214954578076  0.596243717086601  1.0000
  C   C9        1.0  0.6167552096379014  0.84270298198593  0.2931385308718291  1.0000
  C   C10       1.0  0.38324561855220207  0.1572968015303644  0.7068612580948397  1.0000
  C   C11       1.0  0.8270261041809661  0.4724789444992012  0.954212693830293  1.0000
  C   C12       1.0  0.17297154229286346  0.5275241194806455  0.0457838969428366  1.0000
  C   C13       1.0  0.9216273873987786  0.4732783742747202  0.0379404300303677  1.0000
  C   C14       1.0  0.07837278331524544  0.5267192344823355  0.9620574081345125  1.0000
  C   C15       1.0  0.9280191359823889  0.6811344129217147  0.7207284069328139  1.0000
  C   C16       1.0  0.07198035532075411  0.3188708233779137  0.27927063057051527  1.0000
  C   C17       1.0  0.9740154924675297  0.8156771446607678  0.6776282934469933  1.0000
  C   C18       1.0  0.025982548982590007  0.18432918072033289  0.3223718532939728  1.0000
  C   C19       1.0  0.09829516993723787  0.8386113631825012  0.558868144847594  1.0000
  C   C20       1.0  0.9017024862918107  0.16139169296805278  0.44113195684296624  1.0000
  C   C21       1.0  0.17730925105663434  0.7283625085631514  0.48228128698833916  1.0000
  C   C22       1.0  0.8226872178191659  0.27164055002685217  0.5177183187738095  1.0000
  C   C23       1.0  0.1338507976293357  0.5931790096434496  0.5260098359049366  1.0000
  C   C24       1.0  0.8661483133303494  0.4068229535109892  0.4739909120066983  1.0000
  C   C25       1.0  0.009693663827000891  0.5698420991958244  0.6442799899641543  1.0000
  C   C26       1.0  0.9903054471326771  0.4301598639586146  0.35572075794748065  1.0000
  C   C27       1.0  0.6082789449296583  0.6367561776026633  0.8165504798453469  1.0000
  C   C28       1.0  0.3917126859551416  0.36324250747006187  0.18345778019771336  1.0000
  C   C29       1.0  0.6024212155348466  0.5024972890034007  0.7961039249366024  1.0000
  C   C30       1.0  0.39757659998313244  0.49750030897398295  0.20389994320631644  1.0000
  C   C31       1.0  0.49034248097034794  0.4967975775269124  0.7442705397971494  1.0000
  C   C32       1.0  0.509661246925809  0.5032000278264306  0.2557270306942456  1.0000
  C   C33       1.0  0.3839245267887107  0.6237316785570853  0.7124952284105178  1.0000
  C   C34       1.0  0.6160765712175831  0.37626701244521843  0.2875055885781778  1.0000
  C   C35       1.0  0.38601639867241744  0.7570213006943545  0.7364582042882263  1.0000
  C   C36       1.0  0.6139846944562706  0.24297739422259917  0.2635408572417575  1.0000
  C   C37       1.0  0.4972303722317972  0.7635307588390532  0.7887573781332406  1.0000
  C   C38       1.0  0.5027692710438671  0.23646902515937274  0.21124279263437273  1.0000
  N   N1        1.0  0.7257683039215409  0.8608013978215466  0.17238624018953186  1.0000
  N   N2        1.0  0.2742319919525826  0.13920056485076057  0.8276141259211514  1.0000
  Cl  Cl1       1.0  0.6604877646545689  0.11384043992163838  0.8713534594854764  1.0000
  Cl  Cl2       1.0  0.33951254097477357  0.8861615149213832  0.12865041754264442  1.0000
