data_image0
_chemical_formula_structural       Mg4H24C20N8O24
_chemical_formula_sum              "Mg4 H24 C20 N8 O24"
_cell_length_a       9.126390995041955
_cell_length_b       9.126415456234385
_cell_length_c       11.722467539409811
_cell_angle_alpha    74.63588126289781
_cell_angle_beta     74.63503106046701
_cell_angle_gamma    79.41134914329028

_space_group_name_H-M_alt    "P 1"
_space_group_IT_number       1

loop_
  _space_group_symop_operation_xyz
  'x, y, z'

loop_
  _atom_site_type_symbol
  _atom_site_label
  _atom_site_symmetry_multiplicity
  _atom_site_fract_x
  _atom_site_fract_y
  _atom_site_fract_z
  _atom_site_occupancy
  Mg  Mg1       1.0  0.016713362728971493  0.5240309176738907  0.7681058967065866  1.0000
  Mg  Mg2       1.0  0.4759728290036591  0.9832903909465717  0.7318938162942175  1.0000
  Mg  Mg3       1.0  0.9832880024481128  0.4759695612155284  0.23189250372921325  1.0000
  Mg  Mg4       1.0  0.5240275081317095  0.0167089050587137  0.2681067179262584  1.0000
  H   H1        1.0  0.8303913854732984  0.37670965289520103  0.5898208307978335  1.0000
  H   H2        1.0  0.6232826963178583  0.1696080411567138  0.9101852921409944  1.0000
  H   H3        1.0  0.16960698365883087  0.6232873653757026  0.4101796704991685  1.0000
  H   H4        1.0  0.37671630916445753  0.8303923438822096  0.089817848843623  1.0000
  H   H5        1.0  0.957337688968579  0.12417860606509383  0.5334775471995883  1.0000
  H   H6        1.0  0.8758207400270239  0.0426624034538605  0.966528470201041  1.0000
  H   H7        1.0  0.042661637741105096  0.8758195246628376  0.46652426070699704  1.0000
  H   H8        1.0  0.12418057230194529  0.9573380226152328  0.033472510530458376  1.0000
  H   H9        1.0  0.20025897151693778  0.7067923583373387  0.5998650542887985  1.0000
  H   H10       1.0  0.293209483960979  0.7997419422702235  0.9001364244877124  1.0000
  H   H11       1.0  0.7997401220455843  0.29320811473547076  0.40013378620299284  1.0000
  H   H12       1.0  0.7067929817913098  0.20025850431395045  0.09986347611722118  1.0000
  H   H13       1.0  0.3028017119090124  0.5541885034246335  0.6440239593897418  1.0000
  H   H14       1.0  0.4458138790066216  0.6972003468303214  0.8559749701599559  1.0000
  H   H15       1.0  0.6971953960342319  0.4458096743070216  0.3559757082771355  1.0000
  H   H16       1.0  0.5541866715905499  0.3027978748398042  0.14402231722581146  1.0000
  H   H17       1.0  0.8249151046381942  0.5188372037495271  0.9883842797054571  1.0000
  H   H18       1.0  0.4811626155198001  0.17508301455463743  0.5116171787421848  1.0000
  H   H19       1.0  0.17508627815493585  0.4811632927466719  0.01161326063177627  1.0000
  H   H20       1.0  0.5188377216155686  0.8249162814506551  0.48838335547828393  1.0000
  H   H21       1.0  0.8528452026973098  0.3565199314831631  0.9639608370667007  1.0000
  H   H22       1.0  0.643486984438141  0.14715497734701444  0.5360318571070479  1.0000
  H   H23       1.0  0.14715731590309394  0.6434805679213439  0.03603648324254037  1.0000
  H   H24       1.0  0.35651191327860954  0.8528465876677346  0.46396937012089257  1.0000
  C   C1        1.0  0.11500922652972893  0.11598913209948591  0.6427957253883678  1.0000
  C   C2        1.0  0.8840073170950687  0.884995455198933  0.8572059120839486  1.0000
  C   C3        1.0  0.8849912536032892  0.8840090191435339  0.3572050023916588  1.0000
  C   C4        1.0  0.11599248328179355  0.11500845506900252  0.1427921277011919  1.0000
  C   C5        1.0  0.11851057457375452  0.2204433636295775  0.7105519031690122  1.0000
  C   C6        1.0  0.7795558696191379  0.8814949458044554  0.7894478699236345  1.0000
  C   C7        1.0  0.8814897977936911  0.7795559675892677  0.2894469108543305  1.0000
  C   C8        1.0  0.2204429379480929  0.11850781679289918  0.2105505834490558  1.0000
  C   C9        1.0  0.9266517709101411  0.30571193262545654  0.6227203205254027  1.0000
  C   C10       1.0  0.6942799689384743  0.0733494265498251  0.8772855017353933  1.0000
  C   C11       1.0  0.07334743041793959  0.6942873604715277  0.3772804337230653  1.0000
  C   C12       1.0  0.30571858993486967  0.926654375169136  0.12271791866913868  1.0000
  C   C13       1.0  0.2093546348359681  0.9740727155227877  0.6161189477817003  1.0000
  C   C14       1.0  0.025930020799314883  0.7906352060693325  0.8838764981793901  1.0000
  C   C15       1.0  0.7906413372999951  0.025925459300559305  0.3838809399131761  1.0000
  C   C16       1.0  0.9740729972581832  0.2093619294754704  0.11611796241423634  1.0000
  C   C17       1.0  0.21430628961694964  0.23166333714262077  0.7935421276330533  1.0000
  C   C18       1.0  0.7683690646664091  0.785681046860738  0.7064577088870791  1.0000
  C   C19       1.0  0.785690050489947  0.7683405115800711  0.2064591525317709  1.0000
  C   C20       1.0  0.2316324984257605  0.21431705447024296  0.2935453791606477  1.0000
  N   N1        1.0  0.9917991183054516  0.17341815167344518  0.5904105689912171  1.0000
  N   N2        1.0  0.8265788090868966  0.008195010083291291  0.9095945811732735  1.0000
  N   N3        1.0  0.008198150251480681  0.8265788989027175  0.40958843213665125  1.0000
  N   N4        1.0  0.17341929166598655  0.9918043153189375  0.09040467290606095  1.0000
  N   N5        1.0  0.00028457555261948426  0.33695470689935564  0.695661953620153  1.0000
  N   N6        1.0  0.6630454382048755  0.9997144529527732  0.8043401583611427  1.0000
  N   N7        1.0  0.9997146610075448  0.6630446214111814  0.3043370804311891  1.0000
  N   N8        1.0  0.33695475593284396  0.0002859878147915992  0.19566018229977536  1.0000
  O   O1        1.0  0.1645210009005424  0.9040046323299437  0.5520073040444302  1.0000
  O   O2        1.0  0.09600056845163611  0.8354854835513096  0.9479979670215499  1.0000
  O   O3        1.0  0.8354794440003844  0.09599348369951602  0.4479951439327223  1.0000
  O   O4        1.0  0.9040014506916735  0.16451837971290934  0.05200221300329837  1.0000
  O   O5        1.0  0.3308115767295945  0.9260050842634515  0.653479501358767  1.0000
  O   O6        1.0  0.0739953185516882  0.6692132061841749  0.8465275059796512  1.0000
  O   O7        1.0  0.6691910693217411  0.07399296715551171  0.3465259469566604  1.0000
  O   O8        1.0  0.9260048497961154  0.3307963779830986  0.1534719262754365  1.0000
  O   O9        1.0  0.32144954155644007  0.1278870738565985  0.817522986345857  1.0000
  O   O10       1.0  0.8721010389170729  0.6785790961338806  0.6824754416190829  1.0000
  O   O11       1.0  0.6785546496097511  0.8721088141935669  0.18247660837072024  1.0000
  O   O12       1.0  0.12789629399946992  0.32142590025938483  0.31752542495819114  1.0000
  O   O13       1.0  0.17688915856860626  0.3508581307014894  0.8374291283174742  1.0000
  O   O14       1.0  0.6491303121429296  0.8231190532369511  0.6625674768474  1.0000
  O   O15       1.0  0.8231082177538909  0.6491377398988407  0.16257178656707785  1.0000
  O   O16       1.0  0.35086659995454994  0.17688021643664342  0.3374345775556264  1.0000
  O   O17       1.0  0.20644611118674308  0.5927215824170561  0.6194746601526405  1.0000
  O   O18       1.0  0.40728102567119623  0.7935546740201289  0.8805251963251378  1.0000
  O   O19       1.0  0.7935542787967479  0.4072777664085622  0.38052329377213573  1.0000
  O   O20       1.0  0.5927206078851414  0.2064434977379648  0.11947445132832261  1.0000
  O   O21       1.0  0.8356579603390631  0.466272369477501  0.9234112331766654  1.0000
  O   O22       1.0  0.5337327780334604  0.16434353049955774  0.5765873509503265  1.0000
  O   O23       1.0  0.16434537284126088  0.5337303871462995  0.07658720018260819  1.0000
  O   O24       1.0  0.46626741610426603  0.8356569102680068  0.4234129897105987  1.0000
