data_image0
_chemical_formula_structural       Cu2H44C48N4O14
_chemical_formula_sum              "Cu2 H44 C48 N4 O14"
_cell_length_a       6.719575351003551
_cell_length_b       13.23136995184211
_cell_length_c       13.381958994726226
_cell_angle_alpha    111.3298806767309
_cell_angle_beta     90.00010383417118
_cell_angle_gamma    89.99990650820331

_space_group_name_H-M_alt    "P 1"
_space_group_IT_number       1

loop_
  _space_group_symop_operation_xyz
  'x, y, z'

loop_
  _atom_site_type_symbol
  _atom_site_label
  _atom_site_symmetry_multiplicity
  _atom_site_fract_x
  _atom_site_fract_y
  _atom_site_fract_z
  _atom_site_occupancy
  Cu  Cu1       1.0  0.4859854312514074  0.7313402910820269  0.2937393360338801  1.0000
  Cu  Cu2       1.0  0.9859932403669234  0.26865815682903366  0.7062596512175645  1.0000
  H   H1        1.0  0.7552299106864524  0.7338460446206058  0.9845104722667203  1.0000
  H   H2        1.0  0.25523596615159505  0.2661541714214124  0.015491929583518513  1.0000
  H   H3        1.0  0.7087458476511728  0.8750367549508481  0.049511650588833216  1.0000
  H   H4        1.0  0.20874986852322047  0.1249651232568709  0.9504942910628387  1.0000
  H   H5        1.0  0.3481604933485514  0.8645900302363857  0.003540157968657997  1.0000
  H   H6        1.0  0.8481772481151283  0.13541012599552718  0.9964608101987055  1.0000
  H   H7        1.0  0.520439212227977  0.0430138550943511  0.0778476288275911  1.0000
  H   H8        1.0  0.0204493721163459  0.956984860528465  0.9221510421105636  1.0000
  H   H9        1.0  0.8377719430904235  0.99877789175261  0.20320675477093192  1.0000
  H   H10       1.0  0.3377832350834494  0.0012271449217564994  0.7967974363531809  1.0000
  H   H11       1.0  0.8433452631254993  0.18900823049099097  0.3288777490790693  1.0000
  H   H12       1.0  0.3433534763703463  0.8109967966120523  0.6711249490028309  1.0000
  H   H13       1.0  0.34581052210148033  0.393540524311227  0.3317464596991541  1.0000
  H   H14       1.0  0.8458200766529202  0.6064628436538512  0.6682474297748443  1.0000
  H   H15       1.0  0.5141187677586032  0.23817482979175253  0.19143601448597278  1.0000
  H   H16       1.0  0.014130625028805402  0.7618246880805299  0.8085599473673285  1.0000
  H   H17       1.0  0.43038180891575445  0.936117795286407  0.2527756275430663  1.0000
  H   H18       1.0  0.9303919187928784  0.0638798700652785  0.7472222846506043  1.0000
  H   H19       1.0  0.435972940378285  0.1349870145597123  0.3606761850265912  1.0000
  H   H20       1.0  0.9359785769994673  0.8650114398261834  0.6393175293454832  1.0000
  H   H21       1.0  0.4741616362066308  0.1970257875476733  0.5609543906276286  1.0000
  H   H22       1.0  0.9741548258581428  0.8029742707649132  0.4390406758311015  1.0000
  H   H23       1.0  0.5035135755649519  0.05549128649192879  0.6440244471113131  1.0000
  H   H24       1.0  0.003506797148524799  0.9445090456505413  0.3559710479808801  1.0000
  H   H25       1.0  0.5063559852160466  0.8594500852290067  0.5237185620007239  1.0000
  H   H26       1.0  0.006355223302939798  0.14054943392726219  0.4762766461599242  1.0000
  H   H27       1.0  0.7130496984273904  0.34411468678529633  0.394536750109765  1.0000
  H   H28       1.0  0.21305519271403736  0.6558895943441456  0.6054633253354851  1.0000
  H   H29       1.0  0.7673090347066632  0.47651657062475294  0.48570034217082997  1.0000
  H   H30       1.0  0.26731461870362233  0.5234852611711815  0.514302645616084  1.0000
  H   H31       1.0  0.4079699844485916  0.5583407050104015  0.08885523726682013  1.0000
  H   H32       1.0  0.9079735294020849  0.4416585927473448  0.9111424890127182  1.0000
  H   H33       1.0  0.5784960620320518  0.3866337647801855  0.9702098562205493  1.0000
  H   H34       1.0  0.07849956170719  0.613365728808887  0.029789143026768345  1.0000
  H   H35       1.0  0.8711632450612611  0.31970652588146453  0.042982535399097785  1.0000
  H   H36       1.0  0.371172938849078  0.6802903812758816  0.9570195381775052  1.0000
  H   H37       1.0  0.9820409680189783  0.42674067758441936  0.2338467824561405  1.0000
  H   H38       1.0  0.4820517886152373  0.5732553512787604  0.7661543291775815  1.0000
  H   H39       1.0  0.7965976274819084  0.5939847923886887  0.3394044059291589  1.0000
  H   H40       1.0  0.2966056205325387  0.4060153871296988  0.6605950303730452  1.0000
  H   H41       1.0  0.14484791025905247  0.6538672502234771  0.2843034243131797  1.0000
  H   H42       1.0  0.644851039726916  0.34613140659467234  0.7156983248076118  1.0000
  H   H43       1.0  0.08129157260461278  0.7280275066481037  0.22034401396514616  1.0000
  H   H44       1.0  0.5813100601600851  0.27197200761457907  0.7796602260844452  1.0000
  C   C1        1.0  0.7350365403130822  0.7866201265566771  0.1565418847087089  1.0000
  C   C2        1.0  0.23505922594655704  0.2133752361767307  0.8434595186516844  1.0000
  C   C3        1.0  0.7942037495560611  0.8059887893875767  0.05453505278315159  1.0000
  C   C4        1.0  0.2942119935581217  0.1940106056265165  0.9454700803395184  1.0000
  C   C5        1.0  0.0816958196567299  0.9220639480055012  0.09757149226427932  1.0000
  C   C6        1.0  0.5817079471251246  0.0779388082426919  0.9024331551032746  1.0000
  C   C7        1.0  0.27725720195218867  0.9343295421644342  0.06357984197416765  1.0000
  C   C8        1.0  0.7772694948781477  0.06567471477507779  0.9364232707548867  1.0000
  C   C9        1.0  0.3709997748433338  0.0332153931402104  0.1046791760701709  1.0000
  C   C10       1.0  0.8710134719876734  0.9667831272589567  0.8953212298845301  1.0000
  C   C11       1.0  0.2760860338617732  0.12415934559426492  0.1811728591369217  1.0000
  C   C12       1.0  0.7760937884749878  0.875843286136501  0.8188289266511576  1.0000
  C   C13       1.0  0.08124345504170799  0.110821907026768  0.21857983327711852  1.0000
  C   C14       1.0  0.5812525162770753  0.889179217231629  0.7814219908104151  1.0000
  C   C15       1.0  0.9859629126781043  0.008120452836642802  0.1746569716808963  1.0000
  C   C16       1.0  0.48597260145182014  0.9918845018045841  0.8253480685445851  1.0000
  C   C17       1.0  0.9893931092181844  0.2005171473928514  0.29925728904984794  1.0000
  C   C18       1.0  0.4893999811095995  0.7994869875594333  0.7007459678125089  1.0000
  C   C19       1.0  0.08651454135027589  0.2996269406042842  0.339850127722265  1.0000
  C   C20       1.0  0.5865237628158865  0.7003757874046175  0.6601485356066163  1.0000
  C   C21       1.0  0.27706666542748337  0.3135048542300609  0.30018673878448954  1.0000
  C   C22       1.0  0.7770745903705815  0.6864985691848489  0.6998108460509727  1.0000
  C   C23       1.0  0.36871679750739617  0.22756996046007313  0.22275931714523273  1.0000
  C   C24       1.0  0.8687247318511878  0.7724318002860784  0.7772407458878305  1.0000
  C   C25       1.0  0.4496495072687238  0.9663151334428689  0.3394460068730539  1.0000
  C   C26       1.0  0.9496579054499319  0.0336833258120848  0.6605507104483407  1.0000
  C   C27       1.0  0.45298311118521173  0.0768328203175628  0.4003727475391514  1.0000
  C   C28       1.0  0.95298543674469  0.9231680678883406  0.599624090225788  1.0000
  C   C29       1.0  0.472648195061616  0.11095073875274859  0.5115149927101044  1.0000
  C   C30       1.0  0.9726487309537147  0.8890493172443926  0.48847932430884816  1.0000
  C   C31       1.0  0.49001855229321467  0.0324319971848297  0.5575616722970551  1.0000
  C   C32       1.0  0.9900201524584629  0.9675680647413784  0.44243639859434586  1.0000
  C   C33       1.0  0.4894380864882776  0.9235477463638658  0.4915476150962946  1.0000
  C   C34       1.0  0.9894413188105485  0.07645230634475549  0.5084482101593579  1.0000
  C   C35       1.0  0.817724507177779  0.3918292343808432  0.4573979108799406  1.0000
  C   C36       1.0  0.3177284344803154  0.6081717443396429  0.5426018286403362  1.0000
  C   C37       1.0  0.8036554036654235  0.35350189038418733  0.5524987233837706  1.0000
  C   C38       1.0  0.3036543905315341  0.6464958510283765  0.4474998511161914  1.0000
  C   C39       1.0  0.535257894867442  0.5246310509162342  0.11616732782331954  1.0000
  C   C40       1.0  0.035263514408491396  0.4753676530027633  0.8838306047678444  1.0000
  C   C41       1.0  0.6289275395004097  0.42945046807083986  0.0521237294531431  1.0000
  C   C42       1.0  0.1289330890376235  0.5705481915343497  0.947876512023477  1.0000
  C   C43       1.0  0.7925630160905187  0.3924724090256645  0.0934427275190473  1.0000
  C   C44       1.0  0.29257424603793675  0.6075229142631429  0.9065572180957204  1.0000
  C   C45       1.0  0.8542708835990281  0.45110015658765695  0.19802186478296593  1.0000
  C   C46       1.0  0.3542819154778555  0.5488967602832557  0.801980197316624  1.0000
  C   C47       1.0  0.7520337265977516  0.5454635719293819  0.2577421977166665  1.0000
  C   C48       1.0  0.25204484185233156  0.45453420553202767  0.7422578385411498  1.0000
  N   N1        1.0  0.46911820462010206  0.8903909584953523  0.38410060846966604  1.0000
  N   N2        1.0  0.9691247042180037  0.1096099299817794  0.6158984855015461  1.0000
  N   N3        1.0  0.5971488044848526  0.5818238837719534  0.21670245040506594  1.0000
  N   N4        1.0  0.0971572126815872  0.41817560227308787  0.7832973099314415  1.0000
  O   O1        1.0  0.549481701787009  0.7648952286786183  0.1601762145261745  1.0000
  O   O2        1.0  0.0495028156478057  0.2351010266394056  0.8398193643120707  1.0000
  O   O3        1.0  0.8607484740082825  0.793296956785568  0.22754185976148023  1.0000
  O   O4        1.0  0.36078282378063165  0.20669834320473504  0.772461874259406  1.0000
  O   O5        1.0  0.0018247657732714995  0.8216162028940488  0.04500047407216811  1.0000
  O   O6        1.0  0.5018322992011192  0.17838339208923057  0.9550119445338652  1.0000
  O   O7        1.0  0.012869998543393999  0.39165192693167933  0.41566158404380366  1.0000
  O   O8        1.0  0.512877748064099  0.6083516547768965  0.5843373181118494  1.0000
  O   O9        1.0  0.959888601792734  0.3105295129966308  0.5750991654028752  1.0000
  O   O10       1.0  0.45989183084785873  0.6894689499227266  0.4248998041155899  1.0000
  O   O11       1.0  0.6384039514084137  0.36937760873638575  0.5996645545734438  1.0000
  O   O12       1.0  0.1384057912253951  0.6306194195369272  0.4003343671969546  1.0000
  O   O13       1.0  0.18417613985820214  0.6753510169993646  0.22283110122425137  1.0000
  O   O14       1.0  0.684187007248667  0.32465086260064163  0.7771718300800501  1.0000
