data_image0
_chemical_formula_structural       Co2H24C32O12
_chemical_formula_sum              "Co2 H24 C32 O12"
_cell_length_a       7.338052561932059
_cell_length_b       8.505555476440005
_cell_length_c       12.45362947800295
_cell_angle_alpha    109.96060155073552
_cell_angle_beta     98.7873395934084
_cell_angle_gamma    90.00955664860402

_space_group_name_H-M_alt    "P 1"
_space_group_IT_number       1

loop_
  _space_group_symop_operation_xyz
  'x, y, z'

loop_
  _atom_site_type_symbol
  _atom_site_label
  _atom_site_symmetry_multiplicity
  _atom_site_fract_x
  _atom_site_fract_y
  _atom_site_fract_z
  _atom_site_occupancy
  Co  Co1       1.0  0.7499542352681272  0.0916390176689319  0.9999690949743893  1.0000
  Co  Co2       1.0  0.25004556942568007  0.9083614803190797  3.138077610741967e-05  1.0000
  H   H1        1.0  0.15050446437506787  0.9568115013588708  0.6693745104210934  1.0000
  H   H2        1.0  0.34954002569823933  0.2874538390366795  0.3305916860488693  1.0000
  H   H3        1.0  0.8494980206571228  0.04318774538523941  0.3306251110375342  1.0000
  H   H4        1.0  0.6504583216027413  0.7125454043474165  0.6694091675236464  1.0000
  H   H5        1.0  0.5596610329630849  0.2260146570839012  0.6292973395533323  1.0000
  H   H6        1.0  0.9404121348414591  0.5967413715166927  0.3706724090845626  1.0000
  H   H7        1.0  0.4403429089966764  0.7739858423039222  0.37070270656212057  1.0000
  H   H8        1.0  0.05958491198521899  0.4032591268449223  0.6293278181033983  1.0000
  H   H9        1.0  0.7149742091872185  0.12121379632762339  0.4631443716502019  1.0000
  H   H10       1.0  0.7850121038941822  0.658109069853758  0.5367807037674908  1.0000
  H   H11       1.0  0.28502835337371835  0.8787867012867848  0.5368563526628307  1.0000
  H   H12       1.0  0.21498502092649827  0.341892681338365  0.463219823796031  1.0000
  H   H13       1.0  0.531090419658291  0.40588895698358834  0.8037940240305659  1.0000
  H   H14       1.0  0.9689759768912937  0.6021679358649834  0.19618455627386316  1.0000
  H   H15       1.0  0.4689107644343409  0.5941115427778385  0.196205773522351  1.0000
  H   H16       1.0  0.0310224493342091  0.3978325642700398  0.8038149927165178  1.0000
  H   H17       1.0  0.4765279164230307  0.3392532157950185  0.9185534639865055  1.0000
  H   H18       1.0  0.0235900115810566  0.42077284618242317  0.0814156353848787  1.0000
  H   H19       1.0  0.5234718896665599  0.6607472880736224  0.08144460432744438  1.0000
  H   H20       1.0  0.9764083366504438  0.5792264011220923  0.9185836132299344  1.0000
  H   H21       1.0  0.40790922748335845  0.2076575695952485  0.770806591091727  1.0000
  H   H22       1.0  0.09214027584057762  0.4369383797270672  0.22916853260635864  1.0000
  H   H23       1.0  0.5920906566002416  0.7923441871038932  0.22919177759778372  1.0000
  H   H24       1.0  0.9078596073124957  0.5630633730516621  0.7708314410408478  1.0000
  C   C1        1.0  0.950695298479843  0.031327713100644396  0.5502403356877608  1.0000
  C   C2        1.0  0.5492904883793344  0.4811514685462299  0.449737514639132  1.0000
  C   C3        1.0  0.04930297129239139  0.9686702794131533  0.44975941503033573  1.0000
  C   C4        1.0  0.45071046033550016  0.5188452668430444  0.5502637892236493  1.0000
  C   C5        1.0  0.022358113815052098  0.0177158588977306  0.6574294638542996  1.0000
  C   C6        1.0  0.47767327557343714  0.36035115366117054  0.3425549164706895  1.0000
  C   C7        1.0  0.977642914289568  0.9822821352026735  0.34256973294749565  1.0000
  C   C8        1.0  0.5223264506610974  0.6396480895361236  0.6574460613830979  1.0000
  C   C9        1.0  0.937693817179742  0.080853939472064  0.7558198220543275  1.0000
  C   C10       1.0  0.5623532643911844  0.3250866515537183  0.24415304077376732  1.0000
  C   C11       1.0  0.0623086673871853  0.9191453053118437  0.2441806018831514  1.0000
  C   C12       1.0  0.4376452393630643  0.6749150994516098  0.7558476110710259  1.0000
  C   C13       1.0  0.7679747968695665  0.1586109401667599  0.7468257452997022  1.0000
  C   C14       1.0  0.7320960000102587  0.4118003421547555  0.2530776217721922  1.0000
  C   C15       1.0  0.2320276876973679  0.8413883046171404  0.2531746786377767  1.0000
  C   C16       1.0  0.2678998238708701  0.5882026620546769  0.7469230818856261  1.0000
  C   C17       1.0  0.6904965538183063  0.16830157164924492  0.6391889704274618  1.0000
  C   C18       1.0  0.8094797035308261  0.5291903721392685  0.36070912783012693  1.0000
  C   C19       1.0  0.3095060867366328  0.8317001787956713  0.36081205426113894  1.0000
  C   C20       1.0  0.19051612035029558  0.4708126320701636  0.6392915758276914  1.0000
  C   C21       1.0  0.7807522348509011  0.1073447923372228  0.5437977207202422  1.0000
  C   C22       1.0  0.7191914311051519  0.5636619532407965  0.4561127401003661  1.0000
  C   C23       1.0  0.21924603492133343  0.892653200176575  0.4562020299978542  1.0000
  C   C24       1.0  0.280806994189831  0.4363385429738075  0.5438884138477179  1.0000
  C   C25       1.0  0.03367444129506231  0.06341703981909322  0.8650590311340167  1.0000
  C   C26       1.0  0.4662319949110483  0.19844630612274017  0.1349740025797317  1.0000
  C   C27       1.0  0.9663252078759967  0.9365809544681056  0.1349400413864998  1.0000
  C   C28       1.0  0.5337678882420249  0.8015554466559962  0.8650259710674817  1.0000
  C   C29       1.0  0.5144363794921745  0.2988070739635447  0.8321540928330863  1.0000
  C   C30       1.0  0.9856678862593211  0.46675040695240705  0.1678033666942795  1.0000
  C   C31       1.0  0.4855635041261621  0.7011946807753944  0.1678450783352758  1.0000
  C   C32       1.0  0.014333297833310601  0.5332500928090126  0.8321964308586373  1.0000
  O   O1        1.0  0.1660200694855547  0.9651427884829289  0.8576840944870766  1.0000
  O   O2        1.0  0.3337747418387025  0.10764449106950738  0.14233659501628182  1.0000
  O   O3        1.0  0.8339782002866798  0.034855204030868905  0.1423156562310197  1.0000
  O   O4        1.0  0.6662279771755025  0.8923585141661263  0.8576639275690355  1.0000
  O   O5        1.0  0.987219268979267  0.1459022297352419  0.9633568189438222  1.0000
  O   O6        1.0  0.512754927118543  0.1826185043471256  0.03667031933566281  1.0000
  O   O7        1.0  0.012783137128394611  0.8540957602579483  0.036644107096940076  1.0000
  O   O8        1.0  0.48724610145134767  0.8173794917134886  0.9633280749872812  1.0000
  O   O9        1.0  0.6874954481289706  0.22203931104523628  0.8432427296335234  1.0000
  O   O10       1.0  0.8126219215986127  0.378796983783161  0.15669677407148444  1.0000
  O   O11       1.0  0.31250305609053447  0.7779624419202946  0.15675711973241854  1.0000
  O   O12       1.0  0.18737520322206788  0.6212047674089688  0.8433037534920373  1.0000
