data_image0
_chemical_formula_structural       Cu2H28C32N4O12
_chemical_formula_sum              "Cu2 H28 C32 N4 O12"
_cell_length_a       7.241013727289766
_cell_length_b       10.705056728716256
_cell_length_c       10.862124739229278
_cell_angle_alpha    96.11974369199149
_cell_angle_beta     103.79202449125764
_cell_angle_gamma    109.11911898176749

_space_group_name_H-M_alt    "P 1"
_space_group_IT_number       1

loop_
  _space_group_symop_operation_xyz
  'x, y, z'

loop_
  _atom_site_type_symbol
  _atom_site_label
  _atom_site_symmetry_multiplicity
  _atom_site_fract_x
  _atom_site_fract_y
  _atom_site_fract_z
  _atom_site_occupancy
  Cu  Cu1       1.0  0.23826823557811855  0.5927728849567018  0.22986328396032724  1.0000
  Cu  Cu2       1.0  0.761732632379534  0.40722795908268256  0.7701396314233336  1.0000
  H   H1        1.0  0.4284222252097365  0.49926658070442903  0.120787724221664  1.0000
  H   H2        1.0  0.5715801101803919  0.5007342975633335  0.8792209487765063  1.0000
  H   H3        1.0  0.19130836992005842  0.39246953988372013  0.07094362081048901  1.0000
  H   H4        1.0  0.8086933809167931  0.6075303077873784  0.9290611734035678  1.0000
  H   H5        1.0  0.1702240466166245  0.2039921022566062  0.1599545719139854  1.0000
  H   H6        1.0  0.8297796458402684  0.7960087304264719  0.8400460235789424  1.0000
  H   H7        1.0  0.3012945580103973  0.9224448905871369  0.6484253674309244  1.0000
  H   H8        1.0  0.6987022942683223  0.07755388765260558  0.3515693432513132  1.0000
  H   H9        1.0  0.5468122550479605  0.052017306791590605  0.6873528193357146  1.0000
  H   H10       1.0  0.4531851449954584  0.9479824754404613  0.31264115842404283  1.0000
  H   H11       1.0  0.8063367748268531  0.18176599615267722  0.11807234428214737  1.0000
  H   H12       1.0  0.1936640710576539  0.8182348319240871  0.8819278040775627  1.0000
  H   H13       1.0  0.7930320926345971  0.0160489738125946  0.5668281162579021  1.0000
  H   H14       1.0  0.20696476700184271  0.983949809748019  0.43316751676565  1.0000
  H   H15       1.0  0.694313618013112  0.8669053811154229  0.4409798892525316  1.0000
  H   H16       1.0  0.30568181097941505  0.13309339482116664  0.55901459786309  1.0000
  H   H17       1.0  0.7488948128227475  0.5857657826995181  0.5750792623730092  1.0000
  H   H18       1.0  0.2511023672127664  0.4142309898587726  0.424917137720783  1.0000
  H   H19       1.0  0.9999169285039995  0.7191351827607092  0.4708928547512414  1.0000
  H   H20       1.0  7.883560303410433e-05  0.2808615928152989  0.5291042441172636  1.0000
  H   H21       1.0  0.262651504315059  0.0019075449722549998  0.1732878930653072  1.0000
  H   H22       1.0  0.7373502023755165  0.9980922707736184  0.8267113671008488  1.0000
  H   H23       1.0  0.5428784515971118  0.9587275373273985  0.11174326021684078  1.0000
  H   H24       1.0  0.45712468573736936  0.041272286042499204  0.8882571458572457  1.0000
  H   H25       1.0  0.20157392807576716  0.5067216924156455  0.8340410629440029  1.0000
  H   H26       1.0  0.7984243622045779  0.49327709876899917  0.1659557159874723  1.0000
  H   H27       1.0  0.4685426331597284  0.6342746329903761  0.7402464513551549  1.0000
  H   H28       1.0  0.531458190651634  0.3657261791237759  0.25975092998060495  1.0000
  C   C1        1.0  0.05309066615718191  0.10668764937976503  0.1534798432754201  1.0000
  C   C2        1.0  0.9469104927686873  0.8933111623737989  0.846520149813216  1.0000
  C   C3        1.0  0.42176697091630194  0.9772428611052462  0.6084220369318701  1.0000
  C   C4        1.0  0.5782298887201307  0.022755922455374392  0.39157359609167486  1.0000
  C   C5        1.0  0.25561251505070715  0.6876850871579023  0.5974359087359815  1.0000
  C   C6        1.0  0.7443863377097626  0.31231471866078664  0.4025619819556496  1.0000
  C   C7        1.0  0.8492283584051703  0.09455456294532638  0.13178622247298216  1.0000
  C   C8        1.0  0.15077336300083036  0.9054452634422886  0.8682148823758097  1.0000
  C   C9        1.0  0.027275689149341628  0.7484080737820022  0.15553119079640962  1.0000
  C   C10       1.0  0.9727252155968811  0.2515927968617291  0.8444763362938303  1.0000
  C   C11       1.0  0.657696856212908  0.9466887160085944  0.4897205185424768  1.0000
  C   C12       1.0  0.3422980102994941  0.0533090452939504  0.5102728568129962  1.0000
  C   C13       1.0  0.9103482212138373  0.6007782313240853  0.6098206521896614  1.0000
  C   C14       1.0  0.08964952130180143  0.39921955586825675  0.3901768596642867  1.0000
  C   C15       1.0  0.9571662160651685  0.8664079315542211  0.15304687365595984  1.0000
  C   C16       1.0  0.042836630301089  0.1335939241014898  0.8469564547131513  1.0000
  C   C17       1.0  0.05127826603479951  0.6756599607774517  0.5526321893304598  1.0000
  C   C18       1.0  0.948718615674778  0.3243388387457742  0.4473662107170426  1.0000
  C   C19       1.0  0.10520398192143438  0.9931566989943619  0.16235611226024105  1.0000
  C   C20       1.0  0.8947986002906274  0.006842115062362099  0.8376441043950038  1.0000
  C   C21       1.0  0.7021454844003755  0.9700768783545186  0.12635380002794966  1.0000
  C   C22       1.0  0.29785426595473297  0.029921941737633503  0.8736478141767136  1.0000
  C   C23       1.0  0.5957482986467966  0.7263836194222719  0.14493967498982133  1.0000
  C   C24       1.0  0.40425482658908857  0.2736212884741747  0.8550686097757776  1.0000
  C   C25       1.0  0.4163377817727678  0.748029683437217  0.5322651609494287  1.0000
  C   C26       1.0  0.5836585080258273  0.2519680801684813  0.46772843797264585  1.0000
  C   C27       1.0  0.7541672252665704  0.855930742028228  0.13971550098683144  1.0000
  C   C28       1.0  0.24583509540813242  0.14407012559778556  0.8602913273287031  1.0000
  C   C29       1.0  0.1633716514588528  0.5564528085947343  0.7546449246719503  1.0000
  C   C30       1.0  0.8366272086593296  0.44354700254482554  0.24535388836099506  1.0000
  C   C31       1.0  0.31196772478265444  0.6287804679968333  0.7019941730547785  1.0000
  C   C32       1.0  0.6880302598140416  0.3712203448318832  0.2980036834890782  1.0000
  N   N1        1.0  0.49832633154072437  0.8836327954588229  0.5487306326903223  1.0000
  N   N2        1.0  0.5016705207380028  0.11636598278092691  0.4512640779919153  1.0000
  N   N3        1.0  0.9654734421908059  0.5399985703081711  0.7072769594179817  1.0000
  N   N4        1.0  0.03452542528509646  0.46000124615226673  0.29272277595628543  1.0000
  O   O1        1.0  0.6137473694680226  0.6162840008477134  0.10796661040873805  1.0000
  O   O2        1.0  0.3862632367441848  0.38371893948740177  0.8920490933080458  1.0000
  O   O3        1.0  0.47361161783063477  0.6694508320990523  0.47084940806379194  1.0000
  O   O4        1.0  0.5263801037834454  0.330548951562129  0.5291455201121664  1.0000
  O   O5        1.0  0.11880352301564312  0.7352078057068995  0.2678846445261486  1.0000
  O   O6        1.0  0.8811973670151474  0.26479305429509026  0.7321210378814627  1.0000
  O   O7        1.0  0.010712315625795596  0.6752768119158148  0.05171236030539462  1.0000
  O   O8        1.0  0.9892897556101444  0.32472102475294656  0.9482932009789097  1.0000
  O   O9        1.0  0.4528974148138614  0.7390522177423761  0.19080504016172029  1.0000
  O   O10       1.0  0.5471022645809356  0.2609516443093582  0.8091970740039259  1.0000
  O   O11       1.0  0.30857282633329663  0.44441795006109425  0.1510493230783396  1.0000
  O   O12       1.0  0.6914300421060986  0.5555839215572292  0.8489567723147219  1.0000
