data_image0
_chemical_formula_structural       Co4H28C40S4N8
_chemical_formula_sum              "Co4 H28 C40 S4 N8"
_cell_length_a       5.603943555197908
_cell_length_b       12.93152988970771
_cell_length_c       13.57617169231852
_cell_angle_alpha    70.78467437290648
_cell_angle_beta     78.12882150244975
_cell_angle_gamma    77.57422086679482

_space_group_name_H-M_alt    "P 1"
_space_group_IT_number       1

loop_
  _space_group_symop_operation_xyz
  'x, y, z'

loop_
  _atom_site_type_symbol
  _atom_site_label
  _atom_site_symmetry_multiplicity
  _atom_site_fract_x
  _atom_site_fract_y
  _atom_site_fract_z
  _atom_site_occupancy
  Co  Co1       1.0  0.629552815227136  0.9203356563334211  0.9827913741023051  1.0000
  Co  Co2       1.0  0.532492391480993  0.5801376827182381  0.5172164658186844  1.0000
  Co  Co3       1.0  0.3705407717414673  0.0796546905189999  0.017194275828835308  1.0000
  Co  Co4       1.0  0.46751497956840626  0.41989908930796827  0.4827801608918774  1.0000
  H   H1        1.0  0.25984995303975456  0.831544748310094  0.16113041588086924  1.0000
  H   H2        1.0  0.25487490408892216  0.6690518191192679  0.3382366300022781  1.0000
  H   H3        1.0  0.7402513755903899  0.16844725279129594  0.8388756609635447  1.0000
  H   H4        1.0  0.7450293895646001  0.3309301633252062  0.6617777805554467  1.0000
  H   H5        1.0  0.9454449837473927  0.7082573233459399  0.196234374356834  1.0000
  H   H6        1.0  0.8530540468375138  0.7921520943266457  0.3027358246442517  1.0000
  H   H7        1.0  0.054631789075891495  0.29173798237278  0.8037887154921959  1.0000
  H   H8        1.0  0.14685301383070018  0.20783487045090257  0.6972671362374353  1.0000
  H   H9        1.0  0.9673044511877648  0.5964656290629337  0.07584884881631378  1.0000
  H   H10       1.0  0.6416405605753254  0.9032952989539569  0.4233742887310752  1.0000
  H   H11       1.0  0.03272617371717941  0.40353795975160994  0.9241694931518081  1.0000
  H   H12       1.0  0.3582864505631705  0.0967032865805919  0.5766268196163651  1.0000
  H   H13       1.0  0.1933261874934615  0.5375534659383447  0.9195053704930415  1.0000
  H   H14       1.0  0.6513813091952869  0.9620678366174574  0.5802045385102018  1.0000
  H   H15       1.0  0.8067143344091505  0.4624459819929855  0.08050204826728449  1.0000
  H   H16       1.0  0.3485731866341553  0.0379274390868218  0.4197967315620659  1.0000
  H   H17       1.0  0.5518446122793536  0.5430684886324784  0.7762329429609307  1.0000
  H   H18       1.0  0.8711948841056762  0.9566285255206495  0.7238801877912167  1.0000
  H   H19       1.0  0.44818308374149735  0.4569351053950046  0.22376822427774798  1.0000
  H   H20       1.0  0.12875466793997958  0.04337836607820831  0.27611128351231423  1.0000
  H   H21       1.0  0.8660549145788534  0.6622475114790164  0.7549030929249978  1.0000
  H   H22       1.0  0.2831376736424077  0.8380467718043505  0.7452321670671721  1.0000
  H   H23       1.0  0.13397170501360017  0.3377544229707111  0.2450983886995388  1.0000
  H   H24       1.0  0.7168076464413033  0.16196094998741023  0.2547538746769789  1.0000
  H   H25       1.0  0.8196937775766391  0.7769884657134513  0.874568639603403  1.0000
  H   H26       1.0  0.4718431919067214  0.7237870623213002  0.6253571945466515  1.0000
  H   H27       1.0  0.1803518865790253  0.22301098564391006  0.12543362249296305  1.0000
  H   H28       1.0  0.5280854932049409  0.27620571733954336  0.3746422999503523  1.0000
  C   C1        1.0  0.13404750453911146  0.9859766094711516  0.8863975268348482  1.0000
  C   C2        1.0  0.006227060078458619  0.5139827270768862  0.6135516716344893  1.0000
  C   C3        1.0  0.8660483266615133  0.014022033830706  0.1135878695234638  1.0000
  C   C4        1.0  0.9937483255868573  0.48601836302125184  0.38644686871938205  1.0000
  C   C5        1.0  0.2716066400535552  0.7796312955488603  0.11080138939244216  1.0000
  C   C6        1.0  0.16420091083858776  0.7208355108847257  0.38861699872708033  1.0000
  C   C7        1.0  0.7284542418353509  0.2203681594343295  0.8892038957978908  1.0000
  C   C8        1.0  0.8357015312535337  0.2791556002467032  0.6113861071060496  1.0000
  C   C9        1.0  0.09333756856926809  0.7110314111132253  0.1299879186163153  1.0000
  C   C10       1.0  0.9369893589635436  0.7893263657090728  0.3691960006610415  1.0000
  C   C11       1.0  0.9067226420232115  0.2889680408175082  0.8700253531413864  1.0000
  C   C12       1.0  0.06293553883313772  0.21066973175483383  0.6308015084934268  1.0000
  C   C13       1.0  0.1058582981642146  0.6487037016902734  0.06367805807854408  1.0000
  C   C14       1.0  0.8201221764056543  0.8512525977965382  0.43571391708240276  1.0000
  C   C15       1.0  0.8941910118595756  0.35129823615357486  0.9363335797793296  1.0000
  C   C16       1.0  0.17979305104281443  0.14874515599287014  0.5642830844956492  1.0000
  C   C17       1.0  0.3024715580242513  0.6529470540178579  0.9791173558927679  1.0000
  C   C18       1.0  0.9357166947830895  0.847019838187748  0.5205655260408193  1.0000
  C   C19       1.0  0.6975555519027735  0.3470598566890004  0.020887757548038566  1.0000
  C   C20       1.0  0.06423512967478474  0.1529812459822182  0.47942921633838137  1.0000
  C   C21       1.0  0.33164629924480915  0.5895773641235847  0.9087508287144672  1.0000
  C   C22       1.0  0.8307907690384088  0.9102184211433908  0.5910296376278338  1.0000
  C   C23       1.0  0.6683715216698262  0.4104336930819698  0.09124997146568602  1.0000
  C   C24       1.0  0.16915599219639427  0.0897843217702814  0.40896180548596556  1.0000
  C   C25       1.0  0.530663646706003  0.5925796692341337  0.8296018159991261  1.0000
  C   C26       1.0  0.9530978198236965  0.9072862972158332  0.6704105723297785  1.0000
  C   C27       1.0  0.46936517670918226  0.4074222666838878  0.1703974556265635  1.0000
  C   C28       1.0  0.046857387711455006  0.0927172765220377  0.32958466760113936  1.0000
  C   C29       1.0  0.7083495100728495  0.660178893665325  0.8174648120424877  1.0000
  C   C30       1.0  0.1861290635159062  0.8400192798389982  0.6825997275978323  1.0000
  C   C31       1.0  0.2916688179056167  0.3398271846911172  0.1825404978648919  1.0000
  C   C32       1.0  0.813815914746975  0.15998678286443632  0.3173858918658823  1.0000
  C   C33       1.0  0.6832287921788305  0.7245019627728129  0.8837801570072725  1.0000
  C   C34       1.0  0.2920759699453725  0.7759219894056033  0.6161554940936753  1.0000
  C   C35       1.0  0.3168045417079811  0.2755008046036593  0.116217716557145  1.0000
  C   C36       1.0  0.7078715144460829  0.22408490276958307  0.38383256561630924  1.0000
  C   C37       1.0  0.48073412734622406  0.7227685797529657  0.9654536571863159  1.0000
  C   C38       1.0  0.16999157163696998  0.777458888986061  0.5343396777216965  1.0000
  C   C39       1.0  0.5192978796665668  0.277235846251358  0.034544483682388695  1.0000
  C   C40       1.0  0.8299526720183363  0.2225471732279374  0.4656466784083051  1.0000
  S   S1        1.0  0.3950243732341648  0.0354299102984399  0.8598127003223224  1.0000
  S   S2        1.0  0.2901146554329727  0.46438914998172726  0.6397989827835245  1.0000
  S   S3        1.0  0.6050691856703808  0.964555456697042  0.14017982431103343  1.0000
  S   S4        1.0  0.7099044413897458  0.535623566283185  0.36020313131947285  1.0000
  N   N1        1.0  0.9471313312422115  0.9483882137165552  0.9138192754711338  1.0000
  N   N2        1.0  0.809362751338902  0.5515056311917804  0.5861744833263953  1.0000
  N   N3        1.0  0.052937664672441494  0.05161042017316931  0.08616926286131128  1.0000
  N   N4        1.0  0.1906664993319679  0.44846311607584977  0.4138419689159035  1.0000
  N   N5        1.0  0.4579909531804985  0.7886710103771788  0.03050134375558142  1.0000
  N   N6        1.0  0.2785509892540856  0.7116496860077106  0.46928365412961154  1.0000
  N   N7        1.0  0.5420614709571294  0.21133176255388972  0.9694974978800985  1.0000
  N   N8        1.0  0.7213821948782593  0.28834807388366107  0.5307117955685782  1.0000
