data_image0
_chemical_formula_structural       Zn4H44C54N14O16F2
_chemical_formula_sum              "Zn4 H44 C54 N14 O16 F2"
_cell_length_a       9.81195429416302
_cell_length_b       11.137979791321294
_cell_length_c       22.194369546042275
_cell_angle_alpha    89.71973126528641
_cell_angle_beta     89.71132675978727
_cell_angle_gamma    90.81028908567676

_space_group_name_H-M_alt    "P 1"
_space_group_IT_number       1

loop_
  _space_group_symop_operation_xyz
  'x, y, z'

loop_
  _atom_site_type_symbol
  _atom_site_label
  _atom_site_symmetry_multiplicity
  _atom_site_fract_x
  _atom_site_fract_y
  _atom_site_fract_z
  _atom_site_occupancy
  Zn  Zn1       1.0  0.6437693681320764  0.5034870024278463  0.4968422238856931  1.0000
  Zn  Zn2       1.0  0.35412618350380143  0.5016226718828491  0.5024777305066621  1.0000
  Zn  Zn3       1.0  0.35473569003881517  0.5054629082367726  0.9928872581851067  1.0000
  Zn  Zn4       1.0  0.643495929879549  0.5107130629522487  0.9971701008345943  1.0000
  H   H1        1.0  0.12104569882423281  0.6059033434027513  0.6329649325437714  1.0000
  H   H2        1.0  0.128023880463509  0.7296833440727042  0.5816908327329529  1.0000
  H   H3        1.0  0.8708994470558337  0.7327552181397154  0.5794488670686633  1.0000
  H   H4        1.0  0.8643875139142592  0.6063578532488664  0.6294832584111774  1.0000
  H   H5        1.0  0.180982605569433  0.8780620176970404  0.46324491346609875  1.0000
  H   H6        1.0  0.1861296441667619  0.8924876097135765  0.5432964285082136  1.0000
  H   H7        1.0  0.18064137157757895  0.11680815633701513  0.5326283813395207  1.0000
  H   H8        1.0  0.18797011220441817  0.10113764766659732  0.4525714738188427  1.0000
  H   H9        1.0  0.6764220499957005  0.32514157351197787  0.8584971358654698  1.0000
  H   H10       1.0  0.8169709612473923  0.18271794676540054  0.8012643288733728  1.0000
  H   H11       1.0  0.6773370287787868  0.3327760169014766  0.6337041823778051  1.0000
  H   H12       1.0  0.8177121956080099  0.18673112399027048  0.6887287372763211  1.0000
  H   H13       1.0  0.8132902793809291  0.44034493001756664  0.18570950206903092  1.0000
  H   H14       1.0  0.8081661983657539  0.5987485209230458  0.1948451074961781  1.0000
  H   H15       1.0  0.8129150209034036  0.5698934265978791  0.3075546554619848  1.0000
  H   H16       1.0  0.8068419066473422  0.4110577498120804  0.2965435487218571  1.0000
  H   H17       1.0  0.8635021241995773  0.6088388107589466  0.8666260253903317  1.0000
  H   H18       1.0  0.8743024565797978  0.7377926471805195  0.9140115324772254  1.0000
  H   H19       1.0  0.13091429291264228  0.730595640621502  0.9090907762533575  1.0000
  H   H20       1.0  0.1198166598366512  0.6034968478274791  0.8606035259828816  1.0000
  H   H21       1.0  0.811892252793882  0.8890419434008624  0.0326329708005275  1.0000
  H   H22       1.0  0.8144133808808006  0.9047971790107641  0.9525227332383749  1.0000
  H   H23       1.0  0.81719387401138  0.1293832177590275  0.9626291233712934  1.0000
  H   H24       1.0  0.8090879931608085  0.11274728484411871  0.0427371124851561  1.0000
  H   H25       1.0  0.7659454618175516  0.390540846917709  0.4034018067439006  1.0000
  H   H26       1.0  0.9230046766798023  0.34969164680124726  0.3768363591035708  1.0000
  H   H27       1.0  0.23649856936759753  0.317553659644517  0.44180186265666077  1.0000
  H   H28       1.0  0.08215591970989068  0.2672995336491084  0.4154191103981972  1.0000
  H   H29       1.0  0.7492353858621853  0.20907491133230144  0.5136805132966131  1.0000
  H   H30       1.0  0.8229322756108529  0.0736748437844454  0.5304048241080679  1.0000
  H   H31       1.0  0.7444913543320338  0.7933294934533918  0.4851215376460373  1.0000
  H   H32       1.0  0.8248702571879034  0.9294702870385051  0.4728873436368204  1.0000
  H   H33       1.0  0.24847571960103204  0.5287832346333728  0.3533100054814753  1.0000
  H   H34       1.0  0.1759648051990865  0.5788647127195999  0.2876652696557755  1.0000
  H   H35       1.0  0.2462373567592094  0.5294503664160642  0.1424035032926412  1.0000
  H   H36       1.0  0.16373212135798096  0.48724338790437133  0.2085128968100207  1.0000
  H   H37       1.0  0.2372760324495644  0.334946962289898  0.0654122078106667  1.0000
  H   H38       1.0  0.08500084948565959  0.3163971205934645  0.1068343656015855  1.0000
  H   H39       1.0  0.7570975295673037  0.383494534581672  0.0856538610444488  1.0000
  H   H40       1.0  0.8809945634556797  0.27745660522506205  0.0815942043939586  1.0000
  H   H41       1.0  0.24773603877662956  0.21155545922148633  0.9848227695178551  1.0000
  H   H42       1.0  0.17701159624731128  0.07769161306048741  0.9622188995374543  1.0000
  H   H43       1.0  0.249898620897838  0.7932240181594565  0.9922387785381659  1.0000
  H   H44       1.0  0.17093698443625974  0.9232839149058947  0.014509403751844696  1.0000
  C   C1        1.0  0.4959845360281818  0.736018308005605  0.4967625363849422  1.0000
  C   C2        1.0  0.5069613797568591  0.5035788782218944  0.6156791613111635  1.0000
  C   C3        1.0  0.5014102250718507  0.2638008275801553  0.5000375318614658  1.0000
  C   C4        1.0  0.49455532632655513  0.4965680336907355  0.37959207919931964  1.0000
  C   C5        1.0  0.49859469143101603  0.7420704296534811  0.9911064872855704  1.0000
  C   C6        1.0  0.5060557193682911  0.4962482604324166  0.8789220886663571  1.0000
  C   C7        1.0  0.4992097640350081  0.2694351402808125  0.9993826466495932  1.0000
  C   C8        1.0  0.4943629786694855  0.515509632838061  0.11468186098198882  1.0000
  C   C9        1.0  0.067769560591465  0.5576265545469141  0.5392433876999688  1.0000
  C   C10       1.0  0.9270212241472107  0.4309607669669974  0.4579852407803812  1.0000
  C   C11       1.0  0.9282680090995894  0.5601578657285061  0.5369775733931448  1.0000
  C   C12       1.0  0.07364124548545449  0.4191626332560006  0.4645612133285723  1.0000
  C   C13       1.0  0.07746891214668489  0.6433935338403245  0.591649687219217  1.0000
  C   C14       1.0  0.9154693294363269  0.6450806206162413  0.5896746245633011  1.0000
  C   C15       1.0  0.5021636922057269  0.8690959668359997  0.4984303946193974  1.0000
  C   C16       1.0  0.504435200078241  0.13097614174170505  0.49904410864809984  1.0000
  C   C17       1.0  0.3829760543481057  0.9371942221966097  0.499361770792369  1.0000
  C   C18       1.0  0.6272021835487533  0.06493401480842212  0.5016959649020052  1.0000
  C   C19       1.0  0.3838865156957637  0.06137918616440881  0.4971435887162698  1.0000
  C   C20       1.0  0.6261371571457912  0.9360523923643884  0.4978410925350971  1.0000
  C   C21       1.0  0.22898616944459596  0.9270034898684616  0.5006670270079283  1.0000
  C   C22       1.0  0.22968176496521409  0.06848164295006852  0.49544914889003167  1.0000
  C   C23       1.0  0.5106667305699375  0.4942917185511392  0.8113205890405268  1.0000
  C   C24       1.0  0.5953660887915291  0.41302362856715297  0.779091057558631  1.0000
  C   C25       1.0  0.43085490341179866  0.5727626248855558  0.7795491363183658  1.0000
  C   C26       1.0  0.6768085355708847  0.32746352805665424  0.8094008367991492  1.0000
  C   C27       1.0  0.7554006315687188  0.2481114688966741  0.777317929840116  1.0000
  C   C28       1.0  0.5114059711273099  0.49867095834116537  0.6832559562085763  1.0000
  C   C29       1.0  0.4312484559079763  0.575002664371347  0.716113080704389  1.0000
  C   C30       1.0  0.5956872954274245  0.41523201116959996  0.7143160464710689  1.0000
  C   C31       1.0  0.677483579257391  0.331792754377993  0.6827894181466974  1.0000
  C   C32       1.0  0.7558019685953568  0.25034511023542905  0.7136660429962447  1.0000
  C   C33       1.0  0.49093645798338764  0.5171142937562435  0.18140349461311442  1.0000
  C   C34       1.0  0.49033129293316324  0.5014721886452946  0.31282415278378284  1.0000
  C   C35       1.0  0.6106887469471047  0.5093256296232767  0.21563156551600568  1.0000
  C   C36       1.0  0.3676482881488496  0.5153101796182115  0.280016267715517  1.0000
  C   C37       1.0  0.6101626113870039  0.49941400493944593  0.2778118614028102  1.0000
  C   C38       1.0  0.3677265530661984  0.520660063965714  0.2151583468733023  1.0000
  C   C39       1.0  0.7648785662595329  0.5127636761404304  0.2110500563164237  1.0000
  C   C40       1.0  0.7643464077364753  0.4970846135378793  0.2817321914923738  1.0000
  C   C41       1.0  0.9288752069256603  0.5667833949846397  0.959058205338593  1.0000
  C   C42       1.0  0.0714752771378571  0.42705267741990843  0.033159510802562395  1.0000
  C   C43       1.0  0.06826950945989549  0.5609734574424792  0.9556051483383782  1.0000
  C   C44       1.0  0.9237676291916513  0.4327189399208963  0.0365075104093009  1.0000
  C   C45       1.0  0.9167368320774257  0.6490329929329662  0.9050953217762016  1.0000
  C   C46       1.0  0.0785258851174717  0.6442534353887696  0.9015782115059565  1.0000
  C   C47       1.0  0.494175760835347  0.8750558544525762  0.9911211741578754  1.0000
  C   C48       1.0  0.4940723991856401  0.13664656487308238  0.9970803550612645  1.0000
  C   C49       1.0  0.6139586505820132  0.9451183755486811  0.9935984924594833  1.0000
  C   C50       1.0  0.3708582335682563  0.06899821192823201  0.9925868602855346  1.0000
  C   C51       1.0  0.6138588079066877  0.0690500231571605  0.9971696266039629  1.0000
  C   C52       1.0  0.37078803161230667  0.9399768928047793  0.9912121975158995  1.0000
  C   C53       1.0  0.7679746741728904  0.9378663481267749  0.994366950138314  1.0000
  C   C54       1.0  0.7678429096607786  0.0793457539392577  0.9997860688687934  1.0000
  N   N1        1.0  0.1450117137265892  0.48801788444761485  0.5033819182498291  1.0000
  N   N2        1.0  0.8534999792394584  0.4994804612361464  0.49576300959457587  1.0000
  N   N3        1.0  0.8528068595669038  0.5038090176164617  0.9993084290371071  1.0000
  N   N4        1.0  0.14451036659151836  0.49330776799025244  0.9927561177243972  1.0000
  N   N5        1.0  0.8645310029201454  0.3672218981498787  0.4135306306567514  1.0000
  N   N6        1.0  0.13905849410996038  0.3389880242199723  0.42886835853227706  1.0000
  N   N7        1.0  0.7550346960255253  0.11939885226940557  0.504796211834794  1.0000
  N   N8        1.0  0.7529092020990689  0.8819862443262849  0.4965522451731204  1.0000
  N   N9        1.0  0.2406930329120058  0.5202777716106936  0.3075909457407633  1.0000
  N   N10       1.0  0.24171940543902784  0.5334970337386764  0.18835613071454557  1.0000
  N   N11       1.0  0.13620706570363686  0.3527310264671826  0.0714874879508756  1.0000
  N   N12       1.0  0.8591164167939522  0.36654623148969995  0.0808985569805287  1.0000
  N   N13       1.0  0.24291352746970318  0.12082935852397013  0.9903941394176741  1.0000
  N   N14       1.0  0.24340618616721338  0.884428603416751  0.9883519818228804  1.0000
  O   O1        1.0  0.6063004873346287  0.6800572799479597  0.483820657262349  1.0000
  O   O2        1.0  0.3817110973600676  0.6847283764765137  0.5078239755579688  1.0000
  O   O3        1.0  0.391962543789468  0.4815302532794945  0.5918780892445383  1.0000
  O   O4        1.0  0.6180685363656124  0.5280065353302348  0.5884934352895428  1.0000
  O   O5        1.0  0.38806525045439594  0.3153326932768721  0.48968289355629935  1.0000
  O   O6        1.0  0.6120441615865815  0.3221857719329578  0.5115591340105183  1.0000
  O   O7        1.0  0.6088431037152019  0.47319611240801873  0.40457436468162905  1.0000
  O   O8        1.0  0.385506581216127  0.5169607727285098  0.4095525530550503  1.0000
  O   O9        1.0  0.38642715549807594  0.6840565376060753  0.9813069634180422  1.0000
  O   O10       1.0  0.6127930010944593  0.6929614959601268  0.0010757465013427  1.0000
  O   O11       1.0  0.6176367942981216  0.5190520854741507  0.9055551004165352  1.0000
  O   O12       1.0  0.39096201116620927  0.47490259780242633  0.9033937782011064  1.0000
  O   O13       1.0  0.6131044791940283  0.3225708891272987  0.990626348172185  1.0000
  O   O14       1.0  0.38698118869058357  0.3251321527465977  0.0103216889400244  1.0000
  O   O15       1.0  0.38411958366469173  0.5340100381836521  0.0854694526641069  1.0000
  O   O16       1.0  0.6087749418827924  0.49363961375414084  0.0890746402201188  1.0000
  F   F1        1.0  0.351362378825577  0.6570442263273933  0.6885656425441482  1.0000
  F   F2        1.0  0.3508320218116693  0.6530022269807035  0.8083055003701459  1.0000
