data_image0
_chemical_formula_structural       Er2H26C36O28
_chemical_formula_sum              "Er2 H26 C36 O28"
_cell_length_a       9.399756835823586
_cell_length_b       10.434483633260964
_cell_length_c       11.088822179300964
_cell_angle_alpha    78.14376224549919
_cell_angle_beta     70.32892614185245
_cell_angle_gamma    92.04653024305253

_space_group_name_H-M_alt    "P 1"
_space_group_IT_number       1

loop_
  _space_group_symop_operation_xyz
  'x, y, z'

loop_
  _atom_site_type_symbol
  _atom_site_label
  _atom_site_symmetry_multiplicity
  _atom_site_fract_x
  _atom_site_fract_y
  _atom_site_fract_z
  _atom_site_occupancy
  Er  Er1       1.0  0.7639995341570867  0.0307280954304616  0.4975438089781505  1.0000
  Er  Er2       1.0  0.23600711653187287  0.9692791789303925  0.5024548953351696  1.0000
  H   H1        1.0  0.018988234976468697  0.6277044047901298  0.3260983788177967  1.0000
  H   H2        1.0  0.9810025948319491  0.37230335311115675  0.6739119093206654  1.0000
  H   H3        1.0  0.9479489460598031  0.531292828679625  0.16605635367432822  1.0000
  H   H4        1.0  0.05203359783687491  0.4686999948551361  0.833958927339168  1.0000
  H   H5        1.0  0.6702065084863734  0.3383945404532085  0.17167258158409027  1.0000
  H   H6        1.0  0.32979657847987914  0.6615998575543998  0.828330321477793  1.0000
  H   H7        1.0  0.35456502765331516  0.5425080240106936  0.03411982903474348  1.0000
  H   H8        1.0  0.6454217088338865  0.4574927592885558  0.9658928538318746  1.0000
  H   H9        1.0  0.2862065839072727  0.7469338798798688  0.3015689604973986  1.0000
  H   H10       1.0  0.7138040257064446  0.25306840397341557  0.6984385375848204  1.0000
  H   H11       1.0  0.7327796554067659  0.7315950230138383  0.4271546969657436  1.0000
  H   H12       1.0  0.2672222065764132  0.26839761555532243  0.5728362370325186  1.0000
  H   H13       1.0  0.6871327627318493  0.8420079242958423  0.3335492953932968  1.0000
  H   H14       1.0  0.31285875908768185  0.15798339212684445  0.6664501970580046  1.0000
  H   H15       1.0  0.6850945157533205  0.7692645956169244  0.7072770171449746  1.0000
  H   H16       1.0  0.31489836594517584  0.23074121040638573  0.2927348448471249  1.0000
  H   H17       1.0  0.7941775820690251  0.8557596575115906  0.746653351396411  1.0000
  H   H18       1.0  0.20582446089556328  0.1442465778614732  0.25334412941036527  1.0000
  H   H19       1.0  0.9329826457705723  0.27188583783513554  0.3033659736219504  1.0000
  H   H20       1.0  0.0670150668463521  0.7281106029007985  0.6966272553119309  1.0000
  H   H21       1.0  0.037750856371168595  0.21306032990505483  0.3840494867718576  1.0000
  H   H22       1.0  0.9622494885562957  0.7869400360645004  0.6159459097176665  1.0000
  H   H23       1.0  0.5181368588627393  0.20843175931408103  0.51129406444133  1.0000
  H   H24       1.0  0.48186492714361157  0.7915607099397806  0.48870594062843487  1.0000
  H   H25       1.0  0.6488209571986941  0.28544878473459073  0.5352008613577509  1.0000
  H   H26       1.0  0.3511652981373459  0.7145471066155052  0.4648110243881547  1.0000
  C   C1        1.0  0.07575464751067783  0.888812129254255  0.31948714885847806  1.0000
  C   C2        1.0  0.9242419783797401  0.11118515196842792  0.6805125500057797  1.0000
  C   C3        1.0  0.034357520330715395  0.8299802875366279  0.22129704572245867  1.0000
  C   C4        1.0  0.965663726755132  0.17002550889789345  0.7786896946763375  1.0000
  C   C5        1.0  0.005937910232788104  0.6930507824755735  0.2408480752529556  1.0000
  C   C6        1.0  0.9940548565016131  0.30695323946968506  0.7591542153979274  1.0000
  C   C7        1.0  0.9649703914657621  0.6384373417338906  0.15064596080249257  1.0000
  C   C8        1.0  0.035022729121585904  0.3615588589298753  0.8493558193847759  1.0000
  C   C9        1.0  0.9497716241647041  0.7190588182567764  0.03868993482392833  1.0000
  C   C10       1.0  0.050242169152255704  0.2809400097684005  0.9612956355644114  1.0000
  C   C11       1.0  0.9705337758717505  0.8567431921572677  0.022329323088868463  1.0000
  C   C12       1.0  0.029493196055696596  0.14326287050440809  0.9776485424574872  1.0000
  C   C13       1.0  0.0176096026146269  0.9116965958162949  0.11067714631320058  1.0000
  C   C14       1.0  0.9824124181944497  0.08830537078108591  0.8893055486256639  1.0000
  C   C15       1.0  0.9273501119560662  0.661354143516874  0.9304368013583184  1.0000
  C   C16       1.0  0.07264789373234488  0.33863434048532776  0.06956317396915068  1.0000
  C   C17       1.0  0.06017878695931239  0.05445137110532268  0.08453027775809119  1.0000
  C   C18       1.0  0.9398425285056858  0.9455545777129685  0.9154482986763454  1.0000
  C   C19       1.0  0.604157032660467  0.07981411139081018  0.28359275705455633  1.0000
  C   C20       1.0  0.3958486861168993  0.9201834467978572  0.7164007245887305  1.0000
  C   C21       1.0  0.6019459690327267  0.14626842362708464  0.15114842733522235  1.0000
  C   C22       1.0  0.39806594863915035  0.8537350408589149  0.8488494726577326  1.0000
  C   C23       1.0  0.6320585825536185  0.2835191893024245  0.11248871004889341  1.0000
  C   C24       1.0  0.3679488955417653  0.7164851387945602  0.8875111880286821  1.0000
  C   C25       1.0  0.5550142078631167  0.0755447078050224  0.07357063662907852  1.0000
  C   C26       1.0  0.44498894038402875  0.9244505907073874  0.9264365985498413  1.0000
  C   C27       1.0  0.5358573046754601  0.9295217063262772  0.11170459983943451  1.0000
  C   C28       1.0  0.46414291818965125  0.07047762368624431  0.8882937213902548  1.0000
  C   C29       1.0  0.46667887691987175  0.8555173305216428  0.04162223305088015  1.0000
  C   C30       1.0  0.533327280283828  0.14447412273747054  0.9583839378986097  1.0000
  C   C31       1.0  0.431992348613619  0.7171707171184069  0.08200302463489348  1.0000
  C   C32       1.0  0.5679994715132537  0.2828243198441598  0.9180074465344957  1.0000
  C   C33       1.0  0.38411328657657867  0.6490892685211945  0.0036621131332737473  1.0000
  C   C34       1.0  0.6158866845661423  0.3509079726457358  0.9963429646839043  1.0000
  C   C35       1.0  0.43033168196510735  0.6333734703553304  0.2107559870727087  1.0000
  C   C36       1.0  0.5696541454035541  0.36661764756632215  0.7892487518024253  1.0000
  O   O1        1.0  0.9762065840482207  0.9381487801767178  0.40064483627364206  1.0000
  O   O2        1.0  0.0237817654033066  0.06185539112154709  0.5993451421661716  1.0000
  O   O3        1.0  0.20862300566791703  0.8794537184123997  0.3263723983261853  1.0000
  O   O4        1.0  0.79137592147314  0.12055536011997962  0.6736272572358785  1.0000
  O   O5        1.0  0.053896624347139314  0.6630317876284905  0.8370272863951413  1.0000
  O   O6        1.0  0.9460976699019099  0.33695362855836913  0.1629760841999186  1.0000
  O   O7        1.0  0.7976375892415959  0.6189715359048759  0.9397564043556697  1.0000
  O   O8        1.0  0.20235687365476446  0.38101654793330647  0.06026177680479351  1.0000
  O   O9        1.0  0.1318363321396916  0.09611390318405448  0.14754568463467876  1.0000
  O   O10       1.0  0.8681694555162524  0.9038845724409439  0.8524512220184944  1.0000
  O   O11       1.0  0.7304119033549057  0.0687550289779111  0.3001002706884747  1.0000
  O   O12       1.0  0.2695885641343452  0.9312471380012326  0.6999037900351154  1.0000
  O   O13       1.0  0.47530019545098406  0.047858304622344916  0.37533625331671044  1.0000
  O   O14       1.0  0.5247107698908522  0.9521579654600315  0.624656928109566  1.0000
  O   O15       1.0  0.5858809203345814  0.8701613179731497  0.19570171022265728  1.0000
  O   O16       1.0  0.4141200610583907  0.12983414833917098  0.8042943797614016  1.0000
  O   O17       1.0  0.32981868549376964  0.6609741060077636  0.3203865517501113  1.0000
  O   O18       1.0  0.6701834111540279  0.3390330129385645  0.6796161682808514  1.0000
  O   O19       1.0  0.49854658405887875  0.5369079935801722  0.21921353334347063  1.0000
  O   O20       1.0  0.5014064805713473  0.4630942293673996  0.7807948440498647  1.0000
  O   O21       1.0  0.6810304907145265  0.8108228879789364  0.4254285541302211  1.0000
  O   O22       1.0  0.3189663973572294  0.1891656037313467  0.5745699305819939  1.0000
  O   O23       1.0  0.7726315723035099  0.8365331938250048  0.6698227039679381  1.0000
  O   O24       1.0  0.22736110275926077  0.16346985988933938  0.3301788829945096  1.0000
  O   O25       1.0  0.9303388497122926  0.21960947809060363  0.39412087621997927  1.0000
  O   O26       1.0  0.06965997815946419  0.7803986152793314  0.6058789827607995  1.0000
  O   O27       1.0  0.6296200519734754  0.218789172601241  0.4898553823511875  1.0000
  O   O28       1.0  0.3703847757547366  0.7812220916885977  0.5101377128424572  1.0000
