data_image0
_chemical_formula_structural       C46F4H40N16Zn4
_chemical_formula_sum              "C46 F4 H40 N16 Zn4"
_cell_length_a       14.997933165051796
_cell_length_b       15.070444500981369
_cell_length_c       15.060248367068194
_cell_angle_alpha    119.37633831455813
_cell_angle_beta     102.5305657009486
_cell_angle_gamma    106.79782805429305

_space_group_name_H-M_alt    "P 1"
_space_group_IT_number       1

loop_
  _space_group_symop_operation_xyz
  'x, y, z'

loop_
  _atom_site_type_symbol
  _atom_site_label
  _atom_site_symmetry_multiplicity
  _atom_site_fract_x
  _atom_site_fract_y
  _atom_site_fract_z
  _atom_site_occupancy
  C   C1        1.0  0.7267169239214155  0.22860410239005094  0.11824908479103172  1.0000
  C   C2        1.0  0.10283293277386443  0.601491063942774  0.8757680461237953  1.0000
  C   C3        1.0  0.8765891923632055  0.7742747506199735  0.5795315023646311  1.0000
  C   C4        1.0  0.20361235004676095  0.31132652796209476  0.4196491805804855  1.0000
  C   C5        1.0  0.8123153185854476  0.7579366683216833  0.4828033159934577  1.0000
  C   C6        1.0  0.284007183382556  0.3447909773010521  0.5168097175816015  1.0000
  C   C7        1.0  0.104090654813092  0.5885042199969489  0.3087108538025589  1.0000
  C   C8        1.0  0.2770465853302963  0.7883821128838872  0.6889894136871249  1.0000
  C   C9        1.0  0.39964044605885357  0.26233006178163976  0.4499208460499986  1.0000
  C   C10       1.0  0.8100683844415499  0.9465721943463093  0.548655852863405  1.0000
  C   C11       1.0  0.37987616017282005  0.3385244386656013  0.529048828392675  1.0000
  C   C12       1.0  0.7831818302586837  0.8352053032948773  0.4687511830618477  1.0000
  C   C13       1.0  0.4969355686222413  0.27166908523690136  0.44611767963716187  1.0000
  C   C14       1.0  0.8133136463419245  0.03982865321065526  0.5426568480508536  1.0000
  C   C15       1.0  0.5942948554124496  0.3331665045432998  0.5286211000884579  1.0000
  C   C16       1.0  0.8150754238443838  0.05364403820163939  0.46040761452078277  1.0000
  C   C17       1.0  0.0703109735360954  0.6996962486726162  0.05160877564073017  1.0000
  C   C18       1.0  0.6469864878842129  0.017664073504470083  0.9471947641186845  1.0000
  C   C19       1.0  0.12449254802611154  0.675435403047281  0.1138530086381735  1.0000
  C   C20       1.0  0.558817834248373  0.006590987793380483  0.884179272056457  1.0000
  C   C21       1.0  0.14426080997586144  0.6252278515140616  0.24710399230072977  1.0000
  C   C22       1.0  0.37518300353416806  0.8900343151878259  0.7506629565325939  1.0000
  C   C23       1.0  0.8614378128882263  0.17112043880037917  0.3859105227593955  1.0000
  C   C24       1.0  0.7852663098987235  0.45963009407573446  0.6039505253573624  1.0000
  C   C25       1.0  0.10560153219787355  0.6723400838101058  0.2016738239111717  1.0000
  C   C26       1.0  0.46846458998411555  0.8990459786609079  0.7983302328555056  1.0000
  C   C27       1.0  0.9170724607384669  0.27348463275215107  0.5718725316137068  1.0000
  C   C28       1.0  0.7020089528801776  0.3382595482673025  0.417178512972967  1.0000
  C   C29       1.0  0.02407471770320053  0.705684783146303  0.8805255889580934  1.0000
  C   C30       1.0  0.8251271896497556  0.1441795034676048  0.1160064335034293  1.0000
  C   C31       1.0  0.7283809930646471  0.12374646159974387  0.05116554739199601  1.0000
  C   C32       1.0  0.06872329255892849  0.6740220511046787  0.9452856299508527  1.0000
  C   C33       1.0  0.8553860087215455  0.16031915828509125  0.4724518624887753  1.0000
  C   C34       1.0  0.6884987360718778  0.367961603644744  0.516049501097001  1.0000
  C   C35       1.0  0.7894514765683665  0.647440873246154  0.39253903215276154  1.0000
  C   C36       1.0  0.2572407476135154  0.40174715753973067  0.605167851965362  1.0000
  C   C37       1.0  0.12320809489092713  0.513527966609459  0.33098323992525286  1.0000
  C   C38       1.0  0.1793847891220962  0.7849583829812729  0.6643258218820947  1.0000
  C   C39       1.0  0.25472776068850317  0.6770903437259718  0.6585714051851356  1.0000
  C   C40       1.0  0.02363509725256564  0.598255247712622  0.3404322038672092  1.0000
  C   C41       1.0  0.9305982435913974  0.8745766296278247  0.701273389244065  1.0000
  C   C42       1.0  0.026241281921279686  0.9747678570071017  0.7298214211178264  1.0000
  C   C43       1.0  0.07799072536657549  0.07570966845798205  0.85462338129512  1.0000
  C   C44       1.0  0.19200815773024957  0.25939815049323295  0.3013101936508491  1.0000
  C   C45       1.0  0.27809198353749304  0.3362611216959834  0.29317822299007196  1.0000
  C   C46       1.0  0.25866987478362097  0.2885899052825067  0.17124413036894032  1.0000
  F   F1        1.0  0.45922218589205943  0.4310709621103398  0.6323091998262029  1.0000
  F   F2        1.0  0.72714314402198  0.7851526863801652  0.3569013115019288  1.0000
  F   F3        1.0  0.611888328294576  0.38049024454085156  0.6388463410003739  1.0000
  F   F4        1.0  0.7922044531702496  0.9619449074712773  0.35521642775159995  1.0000
  H   H1        1.0  0.6662210107794378  0.25237893771436853  0.10340088632523972  1.0000
  H   H2        1.0  0.1399306393803811  0.5544397482916352  0.8897553029622004  1.0000
  H   H3        1.0  0.4931240793503661  0.22959582217423247  0.3611325746985586  1.0000
  H   H4        1.0  0.8321437895428544  0.11860475227940961  0.6223800776411182  1.0000
  H   H5        1.0  0.04707341036326795  0.6970504358563048  0.2223041467003172  1.0000
  H   H6        1.0  0.4738551718745113  0.821519031663385  0.7804024632689207  1.0000
  H   H7        1.0  0.17908345707159173  0.6451104649918378  0.08899768103382402  1.0000
  H   H8        1.0  0.5517094444009699  0.08438394557236947  0.9062722592230372  1.0000
  H   H9        1.0  0.20218377704235027  0.6003808963457261  0.22472275734384087  1.0000
  H   H10       1.0  0.37167704606039814  0.9688916127924542  0.7704481085040343  1.0000
  H   H11       1.0  0.017953851397528815  0.7329447261741606  0.07848939093326379  1.0000
  H   H12       1.0  0.6546145517788489  0.9398170640889418  0.9228766575587102  1.0000
  H   H13       1.0  0.8253010065145574  0.10531776607219004  0.29542004931091276  1.0000
  H   H14       1.0  0.8096410936151058  0.5089341748063703  0.6944748168834992  1.0000
  H   H15       1.0  0.935292232699666  0.30609875563562355  0.659208479224766  1.0000
  H   H16       1.0  0.6482418048879878  0.27140908292201266  0.32917077674736833  1.0000
  H   H17       1.0  0.9868764401713502  0.7605873979086154  0.9003788466966469  1.0000
  H   H18       1.0  0.8595821319151183  0.08661921512550205  0.09760223532029495  1.0000
  H   H19       1.0  0.7432624283563385  0.6014740668741752  0.303008065652712  1.0000
  H   H20       1.0  0.2987106419487659  0.44273911931369964  0.6945318394377225  1.0000
  H   H21       1.0  0.17907586880667026  0.4816860572971605  0.3186973777906772  1.0000
  H   H22       1.0  0.15975221494010575  0.8522204342894355  0.6742502532310439  1.0000
  H   H23       1.0  0.3059207618554538  0.6394779278245224  0.6624842229896971  1.0000
  H   H24       1.0  0.9835722454900165  0.6472801850926688  0.3383607460913895  1.0000
  H   H25       1.0  0.3311374622956079  0.19164406023752176  0.37166762476957876  1.0000
  H   H26       1.0  0.843457385558146  0.972579518936932  0.634610026365998  1.0000
  H   H27       1.0  0.024882463051703402  0.10966941534483945  0.8791487983688384  1.0000
  H   H28       1.0  0.10260408689758542  0.04964387006565115  0.9083260608377374  1.0000
  H   H29       1.0  0.1465530582877929  0.1466819671819335  0.8746305447725363  1.0000
  H   H30       1.0  0.08086135398881576  0.9431283948204268  0.7063199304959513  1.0000
  H   H31       1.0  0.00428992968498676  0.0024753320160897283  0.6769222925230737  1.0000
  H   H32       1.0  0.8766461242070844  0.9058551173371966  0.7280989789425973  1.0000
  H   H33       1.0  0.9544654487706977  0.8449952391831771  0.752057882236386  1.0000
  H   H34       1.0  0.25298792258631414  0.20210314723325246  0.12543414936907032  1.0000
  H   H35       1.0  0.1861683832976269  0.2818268084121486  0.12536486227033092  1.0000
  H   H36       1.0  0.3212382557050688  0.343697193474121  0.16683414568340282  1.0000
  H   H37       1.0  0.28463989591455874  0.4232144502575608  0.3383683910710645  1.0000
  H   H38       1.0  0.3523422846091861  0.3459770133665145  0.33872314758176714  1.0000
  H   H39       1.0  0.1888844396350392  0.17400786757231398  0.2622241176120497  1.0000
  H   H40       1.0  0.1168004437328705  0.24449635363972524  0.2503476506473774  1.0000
  N   N1        1.0  0.8145713492091887  0.3038351249995018  0.2138577127682597  1.0000
  N   N2        1.0  0.08053851381185931  0.5917264732466803  0.7790801865737151  1.0000
  N   N3        1.0  0.9232573199991873  0.28153888155920004  0.4313531591866708  1.0000
  N   N4        1.0  0.8495829698796199  0.48358289511968855  0.5597965490623267  1.0000
  N   N5        1.0  0.9573927214140597  0.3440465727648957  0.5453803156199868  1.0000
  N   N6        1.0  0.7985324058785322  0.4087587749809672  0.4454757941349856  1.0000
  N   N7        1.0  0.031818403604624616  0.656955685307153  0.7818527799508814  1.0000
  N   N8        1.0  0.8763553780837653  0.2516613821594974  0.21257840292027222  1.0000
  N   N9        1.0  0.8357537471059118  0.6014502140613587  0.4311283012840549  1.0000
  N   N10       1.0  0.16787294095576738  0.4011641005107406  0.5649477723642349  1.0000
  N   N11       1.0  0.05767080788463367  0.47983874954230993  0.36968288798269106  1.0000
  N   N12       1.0  0.10639370076238186  0.6816397170220228  0.6257897759337752  1.0000
  N   N13       1.0  0.1528744413449202  0.6152490900932008  0.6217976232048913  1.0000
  N   N14       1.0  0.9967276679459188  0.5322941696799433  0.37565239603900125  1.0000
  N   N15       1.0  0.8890392742166071  0.6794952382653533  0.5464695878023279  1.0000
  N   N16       1.0  0.13493344965279153  0.3453371033039545  0.45038955501301814  1.0000
  Zn  Zn1       1.0  0.854241935006705  0.4565257288267971  0.3583489927081162  1.0000
  Zn  Zn2       1.0  0.09104638754990896  0.488333635052669  0.6356720918090417  1.0000
  Zn  Zn3       1.0  0.0043043366920087435  0.3367756132122608  0.3618806779561582  1.0000
  Zn  Zn4       1.0  0.9703985117856674  0.637413245789773  0.6332780748667092  1.0000
