data_image0
_chemical_formula_structural       U3H36C28N2O20
_chemical_formula_sum              "U3 H36 C28 N2 O20"
_cell_length_a       8.914039196079681
_cell_length_b       9.481122349126379
_cell_length_c       11.993155366493523
_cell_angle_alpha    84.34799091640656
_cell_angle_beta     73.92878950505965
_cell_angle_gamma    68.029787934342

_space_group_name_H-M_alt    "P 1"
_space_group_IT_number       1

loop_
  _space_group_symop_operation_xyz
  'x, y, z'

loop_
  _atom_site_type_symbol
  _atom_site_label
  _atom_site_symmetry_multiplicity
  _atom_site_fract_x
  _atom_site_fract_y
  _atom_site_fract_z
  _atom_site_occupancy
  U   U1        1.0  0.4999997928243118  0.9999997633964669  0.4999991873512073  1.0000
  U   U2        1.0  0.41560757741438437  0.29200126023454936  0.17914561328994696  1.0000
  U   U3        1.0  0.5843930067155156  0.7080024327859675  0.8208547658668549  1.0000
  H   H1        1.0  0.24793737084630854  0.051805967191477  0.17376389694793912  1.0000
  H   H2        1.0  0.7520631697712971  0.9481920326818736  0.8262369500216452  1.0000
  H   H3        1.0  0.017003328896620977  0.9365678352993  0.3700963948293463  1.0000
  H   H4        1.0  0.9829930484020295  0.06343470740293361  0.6299049492644289  1.0000
  H   H5        1.0  0.9862615342113585  0.1293436772395538  0.33963521714859  1.0000
  H   H6        1.0  0.013739962866033288  0.8706577346117115  0.6603634889221013  1.0000
  H   H7        1.0  0.9843213697915019  0.08793844513468942  0.1347888541600497  1.0000
  H   H8        1.0  0.015677087884071704  0.9120618228991547  0.8652114080853934  1.0000
  H   H9        1.0  0.997260315435348  0.7705760967478098  0.22367927938877602  1.0000
  H   H10       1.0  0.0027393109522150945  0.2294241810408337  0.7763224073806897  1.0000
  H   H11       1.0  0.9613760728187801  0.8485198146836125  0.08819774158309464  1.0000
  H   H12       1.0  0.03862284517818889  0.15147932252745733  0.9118041839779991  1.0000
  H   H13       1.0  0.23660243363367797  0.879438424406132  0.03039410402804067  1.0000
  H   H14       1.0  0.7633960240418958  0.12056184362770493  0.9696061582174025  1.0000
  H   H15       1.0  0.4382871451711949  0.783297914767779  0.14929470881001097  1.0000
  H   H16       1.0  0.5617117702606721  0.21670121593539451  0.8507055501786098  1.0000
  H   H17       1.0  0.29326233774182936  0.7271962169272613  0.26109364256435447  1.0000
  H   H18       1.0  0.7067358680168992  0.2728017699443869  0.7389060219296583  1.0000
  H   H19       1.0  0.9271616516274148  0.37121298543272735  0.13421396696209342  1.0000
  H   H20       1.0  0.07283680348306378  0.6287872760932061  0.865784628710891  1.0000
  H   H21       1.0  0.977195800892986  0.5358615915351591  0.12844015768106226  1.0000
  H   H22       1.0  0.02280219774375067  0.4641398105754034  0.871559274534974  1.0000
  H   H23       1.0  0.7018503955737854  0.6817858646086209  0.24383316642818195  1.0000
  H   H24       1.0  0.2981473537112009  0.3182132628476495  0.7561673346088895  1.0000
  H   H25       1.0  0.6404118113616235  0.5463356946044301  0.1935170169304641  1.0000
  H   H26       1.0  0.3595875605439928  0.4536622955141141  0.806482405515098  1.0000
  H   H27       1.0  0.6111356434622975  0.5881718726546197  0.42986795121792915  1.0000
  H   H28       1.0  0.38886581138534365  0.41182384930343835  0.5701320559517741  1.0000
  H   H29       1.0  0.6346810091093005  0.4106567720713342  0.3740604584224343  1.0000
  H   H30       1.0  0.3653211541289281  0.5893400904642974  0.6259393099556405  1.0000
  H   H31       1.0  0.016197786454270616  0.3208035775449431  0.49179804538337624  1.0000
  H   H32       1.0  0.9838048754874574  0.6791978342992665  0.5081995853526353  1.0000
  H   H33       1.0  0.8195499806299225  0.2925984581376611  0.5290066534118196  1.0000
  H   H34       1.0  0.18045197548631361  0.7074018196368854  0.4709928826882788  1.0000
  H   H35       1.0  0.8247793568442247  0.47091074209840394  0.5597328099276455  1.0000
  H   H36       1.0  0.17522376413634794  0.5290895356690939  0.4402656508377731  1.0000
  C   C1        1.0  0.22870004341125844  0.9719456163259821  0.24433868865269665  1.0000
  C   C2        1.0  0.7713004972063473  0.0280523835473758  0.7556621583168877  1.0000
  C   C3        1.0  0.03987853359676309  0.015833780114505192  0.3000000835705237  1.0000
  C   C4        1.0  0.9601206324694047  0.9841676284969054  0.6999999398832915  1.0000
  C   C5        1.0  0.9551494950006826  0.011723510873785904  0.20634010905645536  1.0000
  C   C6        1.0  0.044848961392339806  0.9882767539060996  0.7936593199027585  1.0000
  C   C7        1.0  0.02417972878791358  0.8503129410344387  0.15491214002380363  1.0000
  C   C8        1.0  0.9758208118296848  0.14968505883891234  0.8450887069457806  1.0000
  C   C9        1.0  0.21376321813013274  0.8023405651029094  0.10218436297618888  1.0000
  C   C10       1.0  0.7862364069748793  0.19765970943178962  0.89781649050704  1.0000
  C   C11       1.0  0.3045639847424367  0.8109514693539454  0.19208960285020993  1.0000
  C   C12       1.0  0.6954356403625751  0.18904880518074663  0.807911250633019  1.0000
  C   C13       1.0  0.32021642514346377  0.9827915859646056  0.3296029500269597  1.0000
  C   C14       1.0  0.6797845732304354  0.01720527657808191  0.670397893685795  1.0000
  C   C15       1.0  0.7655640221689666  0.06776449167320922  0.24714323838880867  1.0000
  C   C16       1.0  0.2344358535703464  0.9322380607697341  0.7528573795596216  1.0000
  C   C17       1.0  0.2914637383504795  0.642208715226282  0.05265015406447307  1.0000
  C   C18       1.0  0.708534719325101  0.35779155280755504  0.9473501081809774  1.0000
  C   C19       1.0  0.9806732232298643  0.41035266491923755  0.28769577727497625  1.0000
  C   C20       1.0  0.019326190905502534  0.5896510150925137  0.7123023440715741  1.0000
  C   C21       1.0  0.9084350786619164  0.4699479911209466  0.1852109268637393  1.0000
  C   C22       1.0  0.09156454387799329  0.5300522769058417  0.8147882600470241  1.0000
  C   C23       1.0  0.7226975717315156  0.5603468768675484  0.24085556132604327  1.0000
  C   C24       1.0  0.2773025085646878  0.43965225382856943  0.7591436223278976  1.0000
  C   C25       1.0  0.6901071261095453  0.4984143742571661  0.365169506541335  1.0000
  C   C26       1.0  0.3098929554692091  0.5015847596929035  0.6348305103988353  1.0000
  C   C27       1.0  0.8817831075346517  0.3751461616626274  0.49828967617211367  1.0000
  C   C28       1.0  0.11821884729903322  0.6248541128579606  0.5017090266417483  1.0000
  N   N1        1.0  0.8580996551790321  0.4295493350543751  0.3847443533016134  1.0000
  N   N2        1.0  0.14190113607286753  0.5704509427272271  0.6152562581331651  1.0000
  O   O1        1.0  0.3459520918989726  0.1870014310294081  0.5436098158404974  1.0000
  O   O2        1.0  0.654048696787825  0.8129988402442835  0.4563891290218154  1.0000
  O   O3        1.0  0.4402634583350248  0.3830956464773578  0.2949031603999828  1.0000
  O   O4        1.0  0.5597352499748497  0.6169068994647231  0.7050968663106616  1.0000
  O   O5        1.0  0.39341519857153184  0.2003740556987523  0.0623415589034053  1.0000
  O   O6        1.0  0.6065860504366609  0.7996250847521793  0.9376590492745509  1.0000
  O   O7        1.0  0.402441125434109  0.07401221741919532  0.3108709561659283  1.0000
  O   O8        1.0  0.5975570854548167  0.9259857824682597  0.689132041473016  1.0000
  O   O9        1.0  0.3214466652530632  0.9027997212328245  0.4204204644944981  1.0000
  O   O10       1.0  0.6785587457915342  0.0971948731352725  0.579578813273031  1.0000
  O   O11       1.0  0.6949644326325454  0.07554033434465171  0.35488784518982913  1.0000
  O   O12       1.0  0.3050340237604842  0.9244599304352337  0.6451115837693849  1.0000
  O   O13       1.0  0.6866563694244762  0.10489255683449981  0.16831026017010942  1.0000
  O   O14       1.0  0.31334537828720943  0.8951111329250028  0.8316882103657763  1.0000
  O   O15       1.0  0.3871562292514596  0.6174616790068016  0.9500434121709702  1.0000
  O   O16       1.0  0.6128410622772265  0.3825385857801392  0.0499570921229235  1.0000
  O   O17       1.0  0.25966224569047824  0.5365937468736275  0.11728270317546222  1.0000
  O   O18       1.0  0.7403382936445766  0.46340424974577127  0.8827173105078856  1.0000
  O   O19       1.0  0.1346914396661987  0.3458277769720439  0.28446639457951056  1.0000
  O   O20       1.0  0.8653091418985992  0.6541759095405623  0.715532318004826  1.0000
