data_image0
_chemical_formula_structural       Zn2H40C44S2N8O14
_chemical_formula_sum              "Zn2 H40 C44 S2 N8 O14"
_cell_length_a       10.290925969817392
_cell_length_b       11.323073965397803
_cell_length_c       11.729180439863674
_cell_angle_alpha    65.81393534879282
_cell_angle_beta     81.12335657679773
_cell_angle_gamma    76.87459656832948

_space_group_name_H-M_alt    "P 1"
_space_group_IT_number       1

loop_
  _space_group_symop_operation_xyz
  'x, y, z'

loop_
  _atom_site_type_symbol
  _atom_site_label
  _atom_site_symmetry_multiplicity
  _atom_site_fract_x
  _atom_site_fract_y
  _atom_site_fract_z
  _atom_site_occupancy
  Zn  Zn1       1.0  0.2903713617243612  0.2006307888077785  0.7415761583753235  1.0000
  Zn  Zn2       1.0  0.7096281534272677  0.7993717735293232  0.25842330786350937  1.0000
  H   H1        1.0  0.4735983391792827  0.029393690885832803  0.7068775901148426  1.0000
  H   H2        1.0  0.5264021349834068  0.9706039356394456  0.29312537450472576  1.0000
  H   H3        1.0  0.355071523748684  0.9616002594011238  0.6959952761681689  1.0000
  H   H4        1.0  0.6449280365696453  0.038402317060075616  0.30400247376734046  1.0000
  H   H5        1.0  0.11091360769044202  0.39640548955609484  0.8535298722701368  1.0000
  H   H6        1.0  0.889082163063506  0.6035999055768712  0.1464766058831728  1.0000
  H   H7        1.0  0.36610276687295606  0.691626397502027  0.503355452247824  1.0000
  H   H8        1.0  0.6338916743392459  0.30837211416812244  0.49664615524493155  1.0000
  H   H9        1.0  0.4631786400207145  0.1551890328963523  0.5084303554786586  1.0000
  H   H10       1.0  0.5368275714614015  0.8448125643133862  0.4915823627448931  1.0000
  H   H11       1.0  0.46262967937526867  0.25935448157287777  0.2775788497760558  1.0000
  H   H12       1.0  0.537377073373044  0.7406352940622155  0.7224349513573357  1.0000
  H   H13       1.0  0.10214213191282072  0.38808329089168586  0.553818372011541  1.0000
  H   H14       1.0  0.8978628814326867  0.6119213604993233  0.4461788076526716  1.0000
  H   H15       1.0  0.09093529294187157  0.5122418963662696  0.3199601860513325  1.0000
  H   H16       1.0  0.9090704850887478  0.4877499561745893  0.6800375747865386  1.0000
  H   H17       1.0  0.8352624997833048  0.13401500924349108  0.08604269051564725  1.0000
  H   H18       1.0  0.16473183092674754  0.8659845150123788  0.9139551279549778  1.0000
  H   H19       1.0  0.40169531525450003  0.4471111742576994  0.5590517335484646  1.0000
  H   H20       1.0  0.598294760932113  0.5528892164189472  0.440951354477967  1.0000
  H   H21       1.0  0.05776146603831485  0.6362909494748975  0.8084175357978223  1.0000
  H   H22       1.0  0.9422341942134977  0.36371545824379575  0.1915851533333637  1.0000
  H   H23       1.0  0.14290346202707843  0.06049566891704931  0.6081753022392105  1.0000
  H   H24       1.0  0.8570897967551405  0.9395087558404284  0.391823308608977  1.0000
  H   H25       1.0  0.9684927303917946  0.060956405877014695  0.6395781597502005  1.0000
  H   H26       1.0  0.03149750387828489  0.9390440342339443  0.3604189212146096  1.0000
  H   H27       1.0  0.49704046795697826  0.47552156954142094  0.21770266578997163  1.0000
  H   H28       1.0  0.502957065517414  0.5244809479613862  0.7822978971311795  1.0000
  H   H29       1.0  0.5173852391790561  0.6176476579259145  0.08163865847503611  1.0000
  H   H30       1.0  0.4826109377081166  0.38235186879199995  0.9183632122232267  1.0000
  H   H31       1.0  0.8772045431009445  0.8813667965549287  0.6188707880168707  1.0000
  H   H32       1.0  0.1227918531101722  0.11864164815929003  0.3811250619563963  1.0000
  H   H33       1.0  0.9929048925832618  0.7664003098923046  0.5682398234843119  1.0000
  H   H34       1.0  0.007087765739775902  0.23360212024190466  0.43176047761183156  1.0000
  H   H35       1.0  0.5947896171014336  0.12625306849830759  0.03624849066417818  1.0000
  H   H36       1.0  0.40520765261658204  0.873752507947806  0.9637381307356208  1.0000
  H   H37       1.0  0.38671700215935084  0.6698812196674169  0.8945922893449207  1.0000
  H   H38       1.0  0.6132825783277127  0.3301203159598812  0.10541268221935246  1.0000
  H   H39       1.0  0.28401051689380813  0.5554347831201837  0.9116565804019031  1.0000
  H   H40       1.0  0.7159900657235454  0.4445667784552824  0.0883474137453817  1.0000
  C   C1        1.0  0.04144243362611629  0.17893718407994902  0.8821388540631997  1.0000
  C   C2        1.0  0.9585602230493748  0.8210595029420844  0.11786337028952688  1.0000
  C   C3        1.0  0.1634296997110666  0.46523330493379694  0.7754192806270906  1.0000
  C   C4        1.0  0.8365650237458909  0.5347720501269108  0.2245898912465307  1.0000
  C   C5        1.0  0.5604377080368012  0.165783011426285  0.7806865902710026  1.0000
  C   C6        1.0  0.4395716049988609  0.8342207876680374  0.21930360353408676  1.0000
  C   C7        1.0  0.30884608368008776  0.6283348505036627  0.5819330388094739  1.0000
  C   C8        1.0  0.691150093207078  0.37166467621424454  0.41806883188879596  1.0000
  C   C9        1.0  0.380460728917619  0.2322696013531953  0.46387733848904117  1.0000
  C   C10       1.0  0.6195484482507824  0.7677281598370057  0.5361288435008547  1.0000
  C   C11       1.0  0.21004362354053546  0.6822972088893877  0.6523188132926663  1.0000
  C   C12       1.0  0.7899542438549076  0.31770331875218716  0.3476850369144344  1.0000
  C   C13       1.0  0.3806685505374715  0.2933185061037165  0.33397186420710767  1.0000
  C   C14       1.0  0.6193357761104108  0.7066742271440278  0.6660359573005292  1.0000
  C   C15       1.0  0.19681149513021273  0.8246747502550773  0.6287943835431022  1.0000
  C   C16       1.0  0.8031896677775947  0.17532984677755786  0.3712006987274562  1.0000
  C   C17       1.0  0.6731474543408851  0.1683594920943605  0.84309277515716  1.0000
  C   C18       1.0  0.3268556023253737  0.8316461694203385  0.15689656325729123  1.0000
  C   C19       1.0  0.2687060954948138  0.4683958039204014  0.14084702819452843  1.0000
  C   C20       1.0  0.7313028938572118  0.531585246855613  0.8591536757966763  1.0000
  C   C21       1.0  0.1802964670166532  0.36514895884479864  0.4879424121196435  1.0000
  C   C22       1.0  0.8197116878527239  0.6348498172311353  0.51205752565847  1.0000
  C   C23       1.0  0.17415473154121494  0.4329046418324863  0.3593983271994858  1.0000
  C   C24       1.0  0.8258483493887356  0.5670900835764952  0.6406037518325575  1.0000
  C   C25       1.0  0.8067002284928434  0.1511825984667041  0.994251249762051  1.0000
  C   C26       1.0  0.1932974404816577  0.8488199614083666  0.005744164249137092  1.0000
  C   C27       1.0  0.32769249978837667  0.49385641241605793  0.6123516368416658  1.0000
  C   C28       1.0  0.6722977320670865  0.5061429797989518  0.3876535239035661  1.0000
  C   C29       1.0  0.13542197673869788  0.5997045776043352  0.7501854148649655  1.0000
  C   C30       1.0  0.8645744848078534  0.4003028404000731  0.24981594043374855  1.0000
  C   C31       1.0  0.0563499001545225  0.0419051077576071  0.578897751683378  1.0000
  C   C32       1.0  0.9436459202282421  0.9580964017594835  0.4211016898806009  1.0000
  C   C33       1.0  0.8975809282314557  0.17340484799518657  0.8909422666379496  1.0000
  C   C34       1.0  0.10241981246937117  0.8265967630145854  0.10905572044771358  1.0000
  C   C35       1.0  0.2779092603070623  0.3985846771897882  0.2799694085999533  1.0000
  C   C36       1.0  0.7220967818470638  0.6014101119396217  0.7200314544844346  1.0000
  C   C37       1.0  0.5029457799774377  0.5148920760738207  0.11536719421195585  1.0000
  C   C38       1.0  0.4970503969097352  0.48510745064408684  0.884634676486314  1.0000
  C   C39       1.0  0.9678181109013195  0.869199490134548  0.5580531410756889  1.0000
  C   C40       1.0  0.032176529098947505  0.13080298483396288  0.44194606333813613  1.0000
  C   C41       1.0  0.6786485469111554  0.14828972754814626  0.967149198548881  1.0000
  C   C42       1.0  0.32134883126152397  0.8517197839481483  0.032838452378634114  1.0000
  C   C43       1.0  0.37917781994029554  0.5648433478262617  0.9344079506198995  1.0000
  C   C44       1.0  0.620821027002087  0.4351571987014465  0.06559578032186412  1.0000
  S   S1        1.0  0.8251824204483214  0.1902058404539986  0.760985693462558  1.0000
  S   S2        1.0  0.17482501936476072  0.8098018488562104  0.23900662655257315  1.0000
  N   N1        1.0  0.25696640668964227  0.41351466182817387  0.7069045816088317  1.0000
  N   N2        1.0  0.7430260935499147  0.5864877188717301  0.2931017265489401  1.0000
  N   N3        1.0  0.2832744680897078  0.26836722031185184  0.5401261376992537  1.0000
  N   N4        1.0  0.7167309670956429  0.7316344215701561  0.4598789764246902  1.0000
  N   N5        1.0  0.07757763244902795  0.9039046548144898  0.5968180340275708  1.0000
  N   N6        1.0  0.9224170978846544  0.0960978484022021  0.40317773777961446  1.0000
  N   N7        1.0  0.3784590939793659  0.5141498616409166  0.07039814976716488  1.0000
  N   N8        1.0  0.6215390645850435  0.48584970991129245  0.9296026242487798  1.0000
  O   O1        1.0  0.10209190943609059  0.18493294663260676  0.7731835541982331  1.0000
  O   O2        1.0  0.8979087002267219  0.8150647222649425  0.22681426151137168  1.0000
  O   O3        1.0  0.443900143568726  0.1794772454710625  0.8372741847504198  1.0000
  O   O4        1.0  0.556108409243933  0.8205354527334451  0.16271010759500376  1.0000
  O   O5        1.0  0.3866769586232408  0.0024054028505418037  0.7441830291838084  1.0000
  O   O6        1.0  0.6133239151630788  0.9975952026355512  0.2558178887723131  1.0000
  O   O7        1.0  0.09457853396966699  0.1793276811777176  0.9700995618087657  1.0000
  O   O8        1.0  0.9054280227723412  0.8206651745868142  0.029897723348291397  1.0000
  O   O9        1.0  0.583271438140848  0.15052136213211753  0.6772813715723202  1.0000
  O   O10       1.0  0.4167410882636988  0.8494666875614524  0.3227145248805245  1.0000
  O   O11       1.0  0.1626600110523739  0.47866552881616553  0.09645246120763316  1.0000
  O   O12       1.0  0.8373532003084206  0.5212909511313911  0.9035504072227307  1.0000
  O   O13       1.0  0.29664630502961137  0.8618063239038348  0.6432901438885849  1.0000
  O   O14       1.0  0.7033461774558416  0.1381981455259123  0.3567008628599949  1.0000
