data_image0
_chemical_formula_structural       Co2H48C60N6O12
_chemical_formula_sum              "Co2 H48 C60 N6 O12"
_cell_length_a       11.264564286300462
_cell_length_b       13.628797340697862
_cell_length_c       14.737407651713701
_cell_angle_alpha    86.87326367864368
_cell_angle_beta     71.38294791092909
_cell_angle_gamma    74.17503533993654

_space_group_name_H-M_alt    "P 1"
_space_group_IT_number       1

loop_
  _space_group_symop_operation_xyz
  'x, y, z'

loop_
  _atom_site_type_symbol
  _atom_site_label
  _atom_site_symmetry_multiplicity
  _atom_site_fract_x
  _atom_site_fract_y
  _atom_site_fract_z
  _atom_site_occupancy
  Co  Co1       1.0  0.4999999691012391  0.9999995568741581  0.9999978285669544  1.0000
  Co  Co2       1.0  0.500002784363197  0.500000724081488  0.999999951824819  1.0000
  H   H1        1.0  0.3653821476241248  0.21475709082648814  0.2839290086136117  1.0000
  H   H2        1.0  0.6346198169573113  0.7852474684236979  0.7160715239601245  1.0000
  H   H3        1.0  0.4652314687369098  0.10712653662687903  0.39772791682334946  1.0000
  H   H4        1.0  0.5347685714686321  0.8928811369145179  0.6022776545399753  1.0000
  H   H5        1.0  0.8047147606113966  0.21871705490665508  0.286069485010735  1.0000
  H   H6        1.0  0.19529663188424  0.7812759273262415  0.7139192196545852  1.0000
  H   H7        1.0  0.7011172410483226  0.32981364537469904  0.17514663691216736  1.0000
  H   H8        1.0  0.2988892335770146  0.6701801241675938  0.8248453002045866  1.0000
  H   H9        1.0  0.42677408829017344  0.25649094319382465  0.6911382510389289  1.0000
  H   H10       1.0  0.5732207928112204  0.743517285557914  0.30885298390739285  1.0000
  H   H11       1.0  0.5150708645101716  0.2454701982116774  0.5134751347557797  1.0000
  H   H12       1.0  0.48492339241199994  0.754542627373084  0.48651732097118133  1.0000
  H   H13       1.0  0.7751970711087566  0.9505235997401513  0.5284264529733492  1.0000
  H   H14       1.0  0.2247957059148575  0.04948858672300101  0.471575920097827  1.0000
  H   H15       1.0  0.6842103402940295  0.964220838727847  0.7057150402650337  1.0000
  H   H16       1.0  0.3157797462775421  0.03579360916951659  0.294285834028841  1.0000
  H   H17       1.0  0.2342802431845357  0.5123004347327013  0.1488531072432906  1.0000
  H   H18       1.0  0.7657346286888258  0.4876943256490662  0.8511536033733265  1.0000
  H   H19       1.0  0.04299538321640742  0.6446047894917869  0.24729429393151756  1.0000
  H   H20       1.0  0.9570122080261497  0.3553785275246995  0.7527156752815644  1.0000
  H   H21       1.0  0.2701391250570567  0.8622931004437645  0.15437034931700572  1.0000
  H   H22       1.0  0.7298472537357482  0.13770544268830057  0.8456419861960855  1.0000
  H   H23       1.0  0.44570383178373163  0.7247679324131014  0.053847619585731435  1.0000
  H   H24       1.0  0.5542803949706325  0.27523667071032776  0.9461614797298807  1.0000
  H   H25       1.0  0.8876855017684663  0.8004475315536154  0.21499809543833961  1.0000
  H   H26       1.0  0.112304730069205  0.19954795186835383  0.7850127806512506  1.0000
  H   H27       1.0  0.6995482711411186  0.9416535919514216  0.3013930920405131  1.0000
  H   H28       1.0  0.3004484725276626  0.058347166192120895  0.698610365423818  1.0000
  H   H29       1.0  0.9498317211533023  0.059626021429032484  0.4077342933359702  1.0000
  H   H30       1.0  0.050169961665773116  0.9403792830456011  0.5922649055902341  1.0000
  H   H31       1.0  0.13949147324992597  0.9183111619539089  0.3208034598497919  1.0000
  H   H32       1.0  0.860503357582779  0.0816842436755749  0.6792001472379853  1.0000
  H   H33       1.0  0.23362695074153805  0.060968821555746885  0.13417285909184784  1.0000
  H   H34       1.0  0.7663784169603289  0.9390257998237317  0.8658260905799723  1.0000
  H   H35       1.0  0.007988398588807408  0.06964421671278129  0.14205064540688997  1.0000
  H   H36       1.0  0.9920169516641906  0.9303344483796677  0.8579547611535433  1.0000
  H   H37       1.0  0.16957866533872593  0.9225265137646588  0.8591847792181684  1.0000
  H   H38       1.0  0.8304189498822865  0.07747418240057159  0.1408137106721128  1.0000
  H   H39       1.0  0.3866555877246541  0.9200427892530882  0.8652524399474473  1.0000
  H   H40       1.0  0.6133442243563891  0.0799540384695945  0.13474166907506918  1.0000
  H   H41       1.0  0.600718163214445  0.7931214543402448  0.9210264684352443  1.0000
  H   H42       1.0  0.3992919055429311  0.206873187442504  0.0789726452175685  1.0000
  H   H43       1.0  0.6058078345310564  0.8189022520197256  0.027761330585022375  1.0000
  H   H44       1.0  0.3941848600961038  0.1810939156681854  0.972242769294809  1.0000
  H   H45       1.0  0.6476901218325252  0.6176047712290612  0.9564991080089912  1.0000
  H   H46       1.0  0.3523153981985061  0.3824027714684277  0.0434949025041789  1.0000
  H   H47       1.0  0.6255898423579113  0.6110537320520066  0.06982577269594968  1.0000
  H   H48       1.0  0.37440687892328844  0.38895763088430607  0.9301709025150374  1.0000
  C   C1        1.0  0.4703721446503693  0.3418196796130529  0.15302074135672686  1.0000
  C   C2        1.0  0.529636135765422  0.658182504192986  0.8469715555837496  1.0000
  C   C3        1.0  0.5271571692730959  0.2792052308751991  0.22332372010544083  1.0000
  C   C4        1.0  0.4728461233396857  0.7208008376974605  0.7766750216364785  1.0000
  C   C5        1.0  0.4604175601056609  0.2167529358668645  0.28636438151032456  1.0000
  C   C6        1.0  0.539583011496859  0.7832500515726437  0.7136332118152638  1.0000
  C   C7        1.0  0.5161961322026869  0.15653672890088896  0.3493945431173416  1.0000
  C   C8        1.0  0.4838015228547693  0.8434693187586078  0.6506042721376701  1.0000
  C   C9        1.0  0.6409575255181181  0.15657056744911557  0.3484882071191038  1.0000
  C   C10       1.0  0.35904169949660064  0.8434308928141404  0.651509825586885  1.0000
  C   C11       1.0  0.707939267895945  0.2189591537762539  0.2857010573979366  1.0000
  C   C12       1.0  0.2920656553285853  0.7810392210160441  0.7142930137192566  1.0000
  C   C13       1.0  0.6508473348534948  0.28050675761330274  0.22415978647399026  1.0000
  C   C14       1.0  0.3491613343702868  0.7194916192185942  0.7758333346668637  1.0000
  C   C15       1.0  0.49803415264961604  0.11690364652485388  0.8171694829650705  1.0000
  C   C16       1.0  0.50195082933314  0.883103947443068  0.18283448249794526  1.0000
  C   C17       1.0  0.5497768465753622  0.11111728123296419  0.7102305971119949  1.0000
  C   C18       1.0  0.4502152134867786  0.8888994127943375  0.2897662394827236  1.0000
  C   C19       1.0  0.5029559492597357  0.1896210073100875  0.6545876132004836  1.0000
  C   C20       1.0  0.49704052737200055  0.8103911365582234  0.34541043126580473  1.0000
  C   C21       1.0  0.5525037238122152  0.1833937738608356  0.5551958277770269  1.0000
  C   C22       1.0  0.4474899525983104  0.8166183774046657  0.4448036048972314  1.0000
  C   C23       1.0  0.65209219676467  0.0973026808772346  0.5075600665511644  1.0000
  C   C24       1.0  0.34791434599375753  0.9027102584588464  0.4924374104611999  1.0000
  C   C25       1.0  0.6992256995317945  0.018052054410716795  0.5634132829163789  1.0000
  C   C26       1.0  0.3007728761925749  0.9819592916916163  0.43658156585501473  1.0000
  C   C27       1.0  0.6485337185100164  0.025710796947734597  0.6626219936418493  1.0000
  C   C28       1.0  0.35146169601983257  0.9743043903065923  0.33737544631426897  1.0000
  C   C29       1.0  0.23744974794843196  0.5913038833615116  0.15046448735991905  1.0000
  C   C30       1.0  0.7625564928752055  0.40868852912527126  0.849540490431636  1.0000
  C   C31       1.0  0.13099075397452256  0.6655932817103434  0.20564427495953916  1.0000
  C   C32       1.0  0.8690132408744091  0.33439763879783874  0.7943640826093344  1.0000
  C   C33       1.0  0.13854656787255246  0.7664331153180015  0.2084980840233328  1.0000
  C   C34       1.0  0.8614514863786981  0.23355319586098489  0.7915100394977942  1.0000
  C   C35       1.0  0.2565960573660817  0.7862044104669438  0.15522682882848224  1.0000
  C   C36       1.0  0.743401109500027  0.2137872606232918  0.8447825332771686  1.0000
  C   C37       1.0  0.3563005671086046  0.7085315250766514  0.09893770703237688  1.0000
  C   C38       1.0  0.6436990138942846  0.2914692613772445  0.9010670651268244  1.0000
  C   C39       1.0  0.026614738119654657  0.8489474691198211  0.2624790952255864  1.0000
  C   C40       1.0  0.9733904985330424  0.1510395645821418  0.7375237675181979  1.0000
  C   C41       1.0  0.9017496941981166  0.856323726402138  0.2580633961480814  1.0000
  C   C42       1.0  0.09824837477844993  0.14367322527716203  0.7419406480225348  1.0000
  C   C43       1.0  0.7959965781767764  0.9360711715267553  0.30579533651899043  1.0000
  C   C44       1.0  0.20400105560068477  0.0639295424922466  0.6942045048227072  1.0000
  C   C45       1.0  0.8131576393327721  0.0094870679576857  0.359779517155701  1.0000
  C   C46       1.0  0.18684371260926014  0.990513621320254  0.6402173470325253  1.0000
  C   C47       1.0  0.9372806470719723  0.0025128648978310015  0.36513152259944803  1.0000
  C   C48       1.0  0.06271912291102695  0.9974870870627511  0.6348678259501954  1.0000
  C   C49       1.0  0.04311509176756802  0.9232362063569822  0.3164617816295205  1.0000
  C   C50       1.0  0.9568834850643809  0.07675920131209318  0.6835408754819099  1.0000
  C   C51       1.0  0.2135171616827805  0.03120040064302289  0.07521271433015642  1.0000
  C   C52       1.0  0.786483903049792  0.9687904022859396  0.9247875712867568  1.0000
  C   C53       1.0  0.08783342069772  0.036188671611554896  0.07822561794980491  1.0000
  C   C54       1.0  0.9121720764373434  0.9637922832254731  0.9217796045282044  1.0000
  C   C55       1.0  0.0660432639897764  0.9976676173900356  0.00017389072509389034  1.0000
  C   C56       1.0  0.9339547133121187  0.0023133065871405994  0.9998312045284692  1.0000
  C   C57       1.0  0.17681564987970697  0.9544668519097784  0.9225414956619391  1.0000
  C   C58       1.0  0.8231841873124564  0.04552468680684999  0.0774570180758119  1.0000
  C   C59       1.0  0.2996002053977237  0.952086426094141  0.925144962430281  1.0000
  C   C60       1.0  0.7004019056038188  0.04790663138174978  0.07485219870727633  1.0000
  N   N1        1.0  0.7037052504469088  0.09100584375332228  0.40807458109993194  1.0000
  N   N2        1.0  0.29629270492937104  0.9089994765354917  0.5919269192540286  1.0000
  N   N3        1.0  0.34855321647476245  0.6119756883450337  0.09581023130219535  1.0000
  N   N4        1.0  0.6514527360318354  0.3880227762260374  0.9041903595780099  1.0000
  N   N5        1.0  0.31877311637128264  0.9898900429564605  8.970650426927425e-07  1.0000
  N   N6        1.0  0.6812222949730612  0.010106036992276296  0.9999957330754298  1.0000
  O   O1        1.0  0.3757668518926707  0.3202311976352376  0.13528701425993014  1.0000
  O   O2        1.0  0.6242498171849818  0.679765639265625  0.8647028198690521  1.0000
  O   O3        1.0  0.5212611083937304  0.4124904786440311  0.11410993940543791  1.0000
  O   O4        1.0  0.47874569212351037  0.5875110660403919  0.8858922748792609  1.0000
  O   O5        1.0  0.41576693775116524  0.19784590811265454  0.8601896293221503  1.0000
  O   O6        1.0  0.584222288807986  0.8021601349577595  0.13981132337962512  1.0000
  O   O7        1.0  0.5436557242307244  0.036743744823155594  0.8587016887055229  1.0000
  O   O8        1.0  0.4563388631065237  0.9632599044394253  0.14128991440566105  1.0000
  O   O9        1.0  0.6006421394471674  0.8471999231403231  0.96335953910193  1.0000
  O   O10       1.0  0.3993541728536201  0.15279397469637962  0.036645146335409655  1.0000
  O   O11       1.0  0.6442713897545289  0.569868099940777  0.01233310905757179  1.0000
  O   O12       1.0  0.3557276331707229  0.4301448085354592  0.9876642407303469  1.0000
