data_image0
_chemical_formula_structural       Mg4H32C52N4O20
_chemical_formula_sum              "Mg4 H32 C52 N4 O20"
_cell_length_a       12.09744413820412
_cell_length_b       12.45444305176238
_cell_length_c       12.3649
_cell_angle_alpha    94.68876722338516
_cell_angle_beta     112.04073647122723
_cell_angle_gamma    112.2214649175914

_space_group_name_H-M_alt    "P 1"
_space_group_IT_number       1

loop_
  _space_group_symop_operation_xyz
  'x, y, z'

loop_
  _atom_site_type_symbol
  _atom_site_label
  _atom_site_symmetry_multiplicity
  _atom_site_fract_x
  _atom_site_fract_y
  _atom_site_fract_z
  _atom_site_occupancy
  Mg  Mg1       1.0  0.7498379955268817  0.6957194982222319  0.3038333678540681  1.0000
  Mg  Mg2       1.0  0.2501617684764668  0.3042796354491131  0.6961665550449395  1.0000
  Mg  Mg3       1.0  0.5000001020748285  0.5000000160364664  7.923404154720706e-08  1.0000
  Mg  Mg4       1.0  0.0  0.0  0.5  1.0000
  H   H1        1.0  0.5993990267445141  0.9307431516892918  0.8927902655728842  1.0000
  H   H2        1.0  0.9009727991444192  0.10614165617566579  0.06959585406652741  1.0000
  H   H3        1.0  0.4006020692009002  0.069256880383648  0.10721022031678024  1.0000
  H   H4        1.0  0.09902518126744299  0.8938574774956791  0.9304042227301962  1.0000
  H   H5        1.0  0.6474483981409022  0.7633960902042247  0.9615819449186275  1.0000
  H   H6        1.0  0.8521992810298824  0.037237847617973295  0.23818691203214828  1.0000
  H   H7        1.0  0.3525531379508137  0.2366048402703029  0.03841877654011227  1.0000
  H   H8        1.0  0.14780136326609034  0.9627630828565613  0.7618142907458817  1.0000
  H   H9        1.0  0.44265972559063016  0.9349153286860314  0.1560288978727797  1.0000
  H   H10       1.0  0.0570910954800253  0.8449736500308659  0.06435779846749054  1.0000
  H   H11       1.0  0.5573400384127181  0.0650838049853135  0.8439718337670925  1.0000
  H   H12       1.0  0.9429068849318368  0.15502548364047897  0.9356406608474825  1.0000
  H   H13       1.0  0.02378122856747215  0.5869841566482918  0.3348946615431316  1.0000
  H   H14       1.0  0.47629184024911086  0.6656769489606091  0.4118618947638524  1.0000
  H   H15       1.0  0.9762189755821918  0.4130158754246409  0.6651063056658231  1.0000
  H   H16       1.0  0.5237083639005532  0.33432308311232356  0.5881382637042307  1.0000
  H   H17       1.0  0.7490176052147461  0.1525108575823637  0.2728378825226158  1.0000
  H   H18       1.0  0.750840156160443  0.7264690895373461  0.8485619663410233  1.0000
  H   H19       1.0  0.2509830505843523  0.847488276088981  0.7271623677979733  1.0000
  H   H20       1.0  0.24915959633977988  0.27353184093718136  0.15143810027455368  1.0000
  H   H21       1.0  0.6527000612927338  0.2718266747141413  0.1467530059318634  1.0000
  H   H22       1.0  0.8470977319639487  0.8530511787513007  0.7285629936000433  1.0000
  H   H23       1.0  0.34730103465268053  0.7281733573587984  0.853247479957801  1.0000
  H   H24       1.0  0.1529029123320242  0.146949751723227  0.2714374004371152  1.0000
  H   H25       1.0  0.12274720847831588  0.4668633716894135  0.45677357962229337  1.0000
  H   H26       1.0  0.3773404522374761  0.5433658609185983  0.5327212793701435  1.0000
  H   H27       1.0  0.8772521038756054  0.5331366603835264  0.5432262514242154  1.0000
  H   H28       1.0  0.6226597519121881  0.4566341711543345  0.467278070357068  1.0000
  H   H29       1.0  0.5039159030126753  0.7708797754718475  0.21502971821955438  1.0000
  H   H30       1.0  0.995166785055666  0.7856000855690863  0.22954058136920003  1.0000
  H   H31       1.0  0.4960834093412387  0.22912025660109236  0.7849701128269473  1.0000
  H   H32       1.0  0.004832087151946508  0.21439904810225838  0.7704582053673548  1.0000
  C   C1        1.0  0.5759756735067113  0.9010554710568073  0.9652097516193122  1.0000
  C   C2        1.0  0.9238785942534377  0.0341203940911186  0.09946543607663469  1.0000
  C   C3        1.0  0.424024090496644  0.0989436626145377  0.03479098002056696  1.0000
  C   C4        1.0  0.07611894601211586  0.9658778411786314  0.9005335964101349  1.0000
  C   C5        1.0  0.6057357912307495  0.8095353008031765  0.0013378392600599679  1.0000
  C   C6        1.0  0.8937091876751565  0.997858242675818  0.19134697400166084  1.0000
  C   C7        1.0  0.3942639612694805  0.1904656296713512  0.9986638448372601  1.0000
  C   C8        1.0  0.10628924438614719  0.002139992593932  0.8086515771658185  1.0000
  C   C9        1.0  0.002451211788844911  0.2344935965273365  0.4500406494815365  1.0000
  C   C10       1.0  0.497823903382475  0.5495549494910676  0.7657669461117891  1.0000
  C   C11       1.0  0.9975489923608192  0.765506435545596  0.549960317727411  1.0000
  C   C12       1.0  0.5021763007671893  0.4504450825818722  0.234233212356294  1.0000
  C   C13       1.0  0.5165758291445925  0.9514827524579701  0.018820977783505603  1.0000
  C   C14       1.0  0.9832925881510375  0.9810275872372003  0.048694148550723  1.0000
  C   C15       1.0  0.48342348320932865  0.0485172796149698  0.9811788532629961  1.0000
  C   C16       1.0  0.0167040603187729  0.0189706480325498  0.9513037477736006  1.0000
  C   C17       1.0  0.9428700351483741  0.3022402638335677  0.3703499529704856  1.0000
  C   C18       1.0  0.5571357325247419  0.6294695679695224  0.6979111210166238  1.0000
  C   C19       1.0  0.05713062065072446  0.6977588698377771  0.6296494886092248  1.0000
  C   C20       1.0  0.44286670686584967  0.37052956570181544  0.3020897841471211  1.0000
  C   C21       1.0  0.7674676091241677  0.5081988289719205  0.16641744972821465  1.0000
  C   C22       1.0  0.7324898688400124  0.8338388606902996  0.4913761887855371  1.0000
  C   C23       1.0  0.2325325950254893  0.4918012031010122  0.8335827087398684  1.0000
  C   C24       1.0  0.2675107754559605  0.1661620697842281  0.5086250139924928  1.0000
  C   C25       1.0  0.8327469882422135  0.43542560475424347  0.23091005221705535  1.0000
  C   C26       1.0  0.6670899245944851  0.7692896046526769  0.5644358069275199  1.0000
  C   C27       1.0  0.1672527757611419  0.5645735289171014  0.7690906794228239  1.0000
  C   C28       1.0  0.3329120516435395  0.2307122242234456  0.4355643413594236  1.0000
  C   C29       1.0  0.48913559891247615  0.9025378336848462  0.10963925706045796  1.0000
  C   C30       1.0  0.010518655222213628  0.8906241301633671  0.09730004959455839  1.0000
  C   C31       1.0  0.510864605237188  0.0974621983880866  0.8903600926667535  1.0000
  C   C32       1.0  0.9894802169853988  0.1093750035079779  0.9026987371419962  1.0000
  C   C33       1.0  0.7562871339088771  0.3126967599716081  0.21294265872155185  1.0000
  C   C34       1.0  0.7435745173534086  0.7869530783677732  0.6877149238837958  1.0000
  C   C35       1.0  0.2437135218902213  0.6873023736997368  0.7870575915990301  1.0000
  C   C36       1.0  0.2564261269425643  0.2130478521067616  0.3122862788942342  1.0000
  C   C37       1.0  0.5196821448667137  0.8108298974983368  0.1439904629109988  1.0000
  C   C38       1.0  0.9796044126799329  0.8561695306797432  0.18940236017611764  1.0000
  C   C39       1.0  0.4803184994292592  0.1891710329761906  0.8560099311261595  1.0000
  C   C40       1.0  0.0203935677319294  0.1438296029916017  0.8105960991388627  1.0000
  C   C41       1.0  0.8100594225235582  0.2466489700772669  0.28251233794689773  1.0000
  C   C42       1.0  0.6898608055871306  0.7171580554300689  0.7540047430250495  1.0000
  C   C43       1.0  0.18994123327554743  0.7533501635940708  0.7174871036328199  1.0000
  C   C44       1.0  0.3101402788551582  0.2828437734460536  0.24599588658118418  1.0000
  C   C45       1.0  0.020424239068802287  0.424672636090598  0.3867928902878006  1.0000
  C   C46       1.0  0.4795472897733219  0.6133082217175101  0.5749456381187912  1.0000
  C   C47       1.0  0.979576856876605  0.5753273959823345  0.6132075956018638  1.0000
  C   C48       1.0  0.5204533545226511  0.3866927087570176  0.4250547559183673  1.0000
  C   C49       1.0  0.9656409344256857  0.4908156565537637  0.3185861970007052  1.0000
  C   C50       1.0  0.5342639811398228  0.68175564226609  0.5085443207714562  1.0000
  C   C51       1.0  0.03435926972397845  0.509184375519169  0.6814147702082493  1.0000
  C   C52       1.0  0.4657375549518931  0.3182452882084377  0.491455591946405  1.0000
  N   N1        1.0  0.5785296268396252  0.7663760882873802  0.09039410079703451  1.0000
  N   N2        1.0  0.9208598686857314  0.9093396321435705  0.23424095355591126  1.0000
  N   N3        1.0  0.4214705773100391  0.2336239437855525  0.90960686641192  1.0000
  N   N4        1.0  0.07913812322925648  0.09065770472458468  0.7657581707833644  1.0000
  O   O1        1.0  0.6093105994658927  0.6797009978234669  0.12426151817953011  1.0000
  O   O2        1.0  0.890182786266024  0.8753818487407371  0.32159890228680876  1.0000
  O   O3        1.0  0.3906887128880214  0.3202990342494729  0.8757391216078503  1.0000
  O   O4        1.0  0.10981697773733148  0.1246172849306078  0.6784002118713274  1.0000
  O   O5        1.0  0.8273557988386813  0.6218529192661748  0.21290994218840362  1.0000
  O   O6        1.0  0.6728167972198946  0.7873663431004374  0.37713480967644836  1.0000
  O   O7        1.0  0.1726444053109759  0.3781471128067579  0.7870902162796725  1.0000
  O   O8        1.0  0.32718251513401947  0.21263368897250245  0.6228642126291816  1.0000
  O   O9        1.0  0.11890496761874655  0.29558490483446315  0.5336108004365059  1.0000
  O   O10       1.0  0.38166339263246835  0.46585177149597  0.7045270127887518  1.0000
  O   O11       1.0  0.8810956766772263  0.7044160256400643  0.4663895936006526  1.0000
  O   O12       1.0  0.618338595108689  0.5341482605769626  0.29547460926335833  1.0000
  O   O13       1.0  0.9330615305553349  0.12144323210340957  0.4281837124278526  1.0000
  O   O14       1.0  0.5674204995254044  0.5715002051972178  0.8793864061696867  1.0000
  O   O15       1.0  0.06693911374063789  0.8785576983711181  0.571816681609306  1.0000
  O   O16       1.0  0.43258147671262037  0.4285016236789048  0.12061455085812872  1.0000
  O   O17       1.0  0.6553275341271386  0.453087281666157  0.07474540096792731  1.0000
  O   O18       1.0  0.8444048736823145  0.9254300046697563  0.5467258117277679  1.0000
  O   O19       1.0  0.3446735618182685  0.5469127504067828  0.9252550849217298  1.0000
  O   O20       1.0  0.1555953304673494  0.0745700274031762  0.4532735379994434  1.0000
