data_image0
_chemical_formula_structural       Cu8H32C40Br8N8
_chemical_formula_sum              "Cu8 H32 C40 Br8 N8"
_cell_length_a       3.8994846875733726
_cell_length_b       15.349469293150781
_cell_length_c       18.92510006200257
_cell_angle_alpha    90.00027491536999
_cell_angle_beta     86.90564531503328
_cell_angle_gamma    90.00048275591841

_space_group_name_H-M_alt    "P 1"
_space_group_IT_number       1

loop_
  _space_group_symop_operation_xyz
  'x, y, z'

loop_
  _atom_site_type_symbol
  _atom_site_label
  _atom_site_symmetry_multiplicity
  _atom_site_fract_x
  _atom_site_fract_y
  _atom_site_fract_z
  _atom_site_occupancy
  Cu  Cu1       1.0  0.9664659381309377  0.3512499738822399  0.302608494290034  1.0000
  Cu  Cu2       1.0  0.5335475741725874  0.8512508166196753  0.19738862048465225  1.0000
  Cu  Cu3       1.0  0.033529924924735575  0.648750192111251  0.6973911995177461  1.0000
  Cu  Cu4       1.0  0.46646171425978605  0.14874869789053946  0.8026073141224048  1.0000
  Cu  Cu5       1.0  0.6876150850608551  0.26259932373073264  0.4075694950117993  1.0000
  Cu  Cu6       1.0  0.8124032238690331  0.7626073891786901  0.0924293738734505  1.0000
  Cu  Cu7       1.0  0.3123831757699235  0.7373975848269438  0.592431245728527  1.0000
  Cu  Cu8       1.0  0.18761847613664875  0.23739407981846483  0.9075691501676674  1.0000
  H   H1        1.0  0.10244038295591196  0.43157592434851466  0.4463293834572468  1.0000
  H   H2        1.0  0.3975796999398468  0.9315820142963532  0.053667791737325415  1.0000
  H   H3        1.0  0.897552828807818  0.5684235901550779  0.5536708505682313  1.0000
  H   H4        1.0  0.6024603901831042  0.06842727257451742  0.9463280088909514  1.0000
  H   H5        1.0  0.3677584767700424  0.5722450533507839  0.4849177370447962  1.0000
  H   H6        1.0  0.13224531161097272  0.07225025340925133  0.015082889972156005  1.0000
  H   H7        1.0  0.6322290944816019  0.4277544611553026  0.5150856936284712  1.0000
  H   H8        1.0  0.8677965849551934  0.9277609879422642  0.9849176609658062  1.0000
  H   H9        1.0  0.5954347632863841  0.6759659072702532  0.3925828690791064  1.0000
  H   H10       1.0  0.9045875555377165  0.1759638050570231  0.10742305188701101  1.0000
  H   H11       1.0  0.4045632441406894  0.32403491022159164  0.6074194588259516  1.0000
  H   H12       1.0  0.09544613358860939  0.8240383154574785  0.89258070684825  1.0000
  H   H13       1.0  0.5400489289032747  0.6385224914729976  0.2656062841023542  1.0000
  H   H14       1.0  0.9599707531915486  0.1385199411451765  0.23439316060271412  1.0000
  H   H15       1.0  0.4599388113030327  0.36147572005361883  0.7343960884635052  1.0000
  H   H16       1.0  0.040037859280758405  0.8614750129580672  0.7656070064158627  1.0000
  H   H17       1.0  0.4657030805644807  0.6050805653877731  0.16341023529325582  1.0000
  H   H18       1.0  0.03430902055369241  0.10507890089510138  0.336592596137649  1.0000
  H   H19       1.0  0.534259245229336  0.3949235094996695  0.8365906617900549  1.0000
  H   H20       1.0  0.9657246684689227  0.8949160532478545  0.6634111625843246  1.0000
  H   H21       1.0  0.3742078304523915  0.5519616658166555  0.0431569752324492  1.0000
  H   H22       1.0  0.12577714962242229  0.05195373629783972  0.4568452418952873  1.0000
  H   H23       1.0  0.6257180533461906  0.4480469694557314  0.956847252504005  1.0000
  H   H24       1.0  0.8742726159651323  0.9480340514801923  0.5431542173949921  1.0000
  H   H25       1.0  0.08768607783140678  0.4045112365695972  0.027914001771073105  1.0000
  H   H26       1.0  0.41228436786457223  0.9045015075409993  0.4720838142840122  1.0000
  H   H27       1.0  0.9122356017582902  0.5954993531462663  0.972084428724351  1.0000
  H   H28       1.0  0.5877558909396254  0.09548758318905472  0.5279109282018412  1.0000
  H   H29       1.0  0.8900930239327777  0.3228549430340593  0.13649057449428173  1.0000
  H   H30       1.0  0.6098892027827034  0.8228477924984006  0.3635044527967183  1.0000
  H   H31       1.0  0.10986467519949625  0.6771497833272734  0.8635071706080738  1.0000
  H   H32       1.0  0.39013094408918636  0.17714129820072338  0.6364877337579103  1.0000
  C   C1        1.0  0.19412538900537865  0.4805391792629905  0.4080667297603214  1.0000
  C   C2        1.0  0.3058908084595586  0.9805407116848529  0.09193170736245551  1.0000
  C   C3        1.0  0.8058651714852517  0.5194609867273456  0.5919340444852708  1.0000
  C   C4        1.0  0.6941409898027899  0.0194640147686798  0.9080678301240682  1.0000
  C   C5        1.0  0.3458186657330203  0.5576919220671499  0.4290767006517555  1.0000
  C   C6        1.0  0.15419496857998638  0.05769553794600309  0.07092382775053352  1.0000
  C   C7        1.0  0.6541818239653381  0.4423062894758089  0.570926145134564  1.0000
  C   C8        1.0  0.8458189465705033  0.9423072340202554  0.9290752588447191  1.0000
  C   C9        1.0  0.470333671699933  0.6158567982582284  0.3773684725214324  1.0000
  C   C10       1.0  0.029691575307062096  0.1158552047229264  0.12263434302332141  1.0000
  C   C11       1.0  0.5296616844634768  0.38414532220868836  0.6226343956049477  1.0000
  C   C12       1.0  0.9703244841676761  0.8841449613000805  0.8773673776631838  1.0000
  C   C13       1.0  0.437653649569917  0.5947424730665459  0.3066726329726421  1.0000
  C   C14       1.0  0.06237321515639139  0.09474135983854377  0.1933322093492009  1.0000
  C   C15       1.0  0.5623467556793996  0.4052583444311039  0.6933307418710015  1.0000
  C   C16       1.0  0.9376376262023526  0.90525620022661  0.8066700627177853  1.0000
  C   C17       1.0  0.276179611153516  0.5170340084031652  0.2888773202616122  1.0000
  C   C18       1.0  0.22383541302813373  0.0170294672979452  0.2111230462468612  1.0000
  C   C19       1.0  0.7238030800140294  0.4829687635343305  0.711124545593016  1.0000
  C   C20       1.0  0.7761838046402617  0.9829700472298484  0.7888749599045541  1.0000
  C   C21       1.0  0.22995456525345054  0.4914302511186222  0.21462630709930863  1.0000
  C   C22       1.0  0.2700486064655081  0.9914262884890378  0.2853754005317343  1.0000
  C   C23       1.0  0.7700306082513819  0.5085744752882349  0.7853760766450293  1.0000
  C   C24       1.0  0.7299756602416494  0.0085686656278838  0.7146231123309053  1.0000
  C   C25       1.0  0.3406500662058036  0.5424854006106514  0.15647165904877625  1.0000
  C   C26       1.0  0.15934995589437753  0.0424788577113588  0.34353098500859863  1.0000
  C   C27       1.0  0.6593043057875931  0.45752193171368566  0.8435308586972853  1.0000
  C   C28       1.0  0.8406892891347013  0.9575147934538749  0.6564701061156627  1.0000
  C   C29       1.0  0.2899091314510969  0.5120951712154208  0.08849356792384812  1.0000
  C   C30       1.0  0.21006724781257446  0.012088484030940101  0.4115069477692899  1.0000
  C   C31       1.0  0.7099964714416627  0.48791346402885694  0.9115091619863733  1.0000
  C   C32       1.0  0.7899828557314448  0.9878999552297785  0.5884903953122065  1.0000
  C   C33       1.0  0.12995939026346548  0.4317762208408738  0.07988122084002922  1.0000
  C   C34       1.0  0.3700013239737529  0.9317680503162009  0.42011832810793953  1.0000
  C   C35       1.0  0.8699564798123447  0.5682324144153413  0.9201214644045665  1.0000
  C   C36       1.0  0.6300284141682583  0.06821973742949444  0.5798780461986155  1.0000
  C   C37       1.0  0.022834915372825993  0.38520723063415835  0.1403137776665631  1.0000
  C   C38       1.0  0.4771424185048829  0.885197012524479  0.35968552048906594  1.0000
  C   C39       1.0  0.9771119252350783  0.6148020561433681  0.8596877154773495  1.0000
  C   C40       1.0  0.5228826929661566  0.11479077520679233  0.6403077018353259  1.0000
  Br  Br1       1.0  0.5165334682674398  0.2503240936654834  0.2892903611141193  1.0000
  Br  Br2       1.0  0.9834708064599981  0.7503280243699137  0.21071380861818773  1.0000
  Br  Br3       1.0  0.4834622257675747  0.7496728148892159  0.7107103907926133  1.0000
  Br  Br4       1.0  0.016540034955312356  0.2496734446251807  0.7892884634560389  1.0000
  Br  Br5       1.0  0.14758477168601294  0.24995416333927525  0.481535501516845  1.0000
  Br  Br6       1.0  0.352421678044422  0.7499605977299809  0.0184652663551503  1.0000
  Br  Br7       1.0  0.8524134891730526  0.7500446996833784  0.5184652392270978  1.0000
  Br  Br8       1.0  0.6475848746752461  0.250042825710004  0.9815317375305526  1.0000
  N   N1        1.0  0.1549602616269965  0.4605173990270615  0.33970469972356204  1.0000
  N   N2        1.0  0.3450474869422564  0.9605174591984992  0.16029475478320881  1.0000
  N   N3        1.0  0.8450251652909629  0.5394840699339555  0.6602960968572518  1.0000
  N   N4        1.0  0.6549717307449896  0.039483358305943704  0.8397032513706152  1.0000
  N   N5        1.0  0.07168758870616897  0.4139459278153054  0.20580468721546202  1.0000
  N   N6        1.0  0.42831881183896303  0.913942387507703  0.2941945946517422  1.0000
  N   N7        1.0  0.928292704667413  0.5860587985813555  0.7941961317042046  1.0000
  N   N8        1.0  0.5717058773019944  0.08605256660216301  0.7058012729484134  1.0000
