data_image0
_chemical_formula_structural       Al4H60C80O24
_chemical_formula_sum              "Al4 H60 C80 O24"
_cell_length_a       6.634347721763148
_cell_length_b       24.19965675328015
_cell_length_c       27.78044700450719
_cell_angle_alpha    84.40269196217446
_cell_angle_beta     89.99702300244256
_cell_angle_gamma    90.00506307193335

_space_group_name_H-M_alt    "P 1"
_space_group_IT_number       1

loop_
  _space_group_symop_operation_xyz
  'x, y, z'

loop_
  _atom_site_type_symbol
  _atom_site_label
  _atom_site_symmetry_multiplicity
  _atom_site_fract_x
  _atom_site_fract_y
  _atom_site_fract_z
  _atom_site_occupancy
  Al  Al1       1.0  0.7716373797657781  0.2488146851567876  0.7502642621207016  1.0000
  Al  Al2       1.0  0.228424535836524  0.7511552733497311  0.24982788999616193  1.0000
  Al  Al3       1.0  0.27165494059013895  0.25115450444048554  0.7498294289402238  1.0000
  Al  Al4       1.0  0.728426569622819  0.7488229772900112  0.2502735391595365  1.0000
  H   H1        1.0  0.2811336023168778  0.6731013281232092  0.12222701355752721  1.0000
  H   H2        1.0  0.7188830995655737  0.32689549696059567  0.8778534630354998  1.0000
  H   H3        1.0  0.7811084305358522  0.8269177245710749  0.3778537623880709  1.0000
  H   H4        1.0  0.2189112842095113  0.17308603276710247  0.6222469324837191  1.0000
  H   H5        1.0  0.2791285378288038  0.609616071681387  0.0571676155506466  1.0000
  H   H6        1.0  0.7209002290619678  0.3904091041540242  0.9428950332349971  1.0000
  H   H7        1.0  0.7790648755565996  0.8904361315458474  0.44289244463698907  1.0000
  H   H8        1.0  0.22089455760564652  0.1096126233896584  0.557177703062095  1.0000
  H   H9        1.0  0.6839717549237038  0.6176295218989553  0.16438793639365204  1.0000
  H   H10       1.0  0.3159695894208526  0.38238170397971066  0.8356505456182503  1.0000
  H   H11       1.0  0.18399043976622656  0.8823623646887241  0.3356636973269572  1.0000
  H   H12       1.0  0.8161875598847529  0.11766975359250152  0.6643378239767584  1.0000
  H   H13       1.0  0.6767767849862736  0.5466645787975111  0.015839508365843396  1.0000
  H   H14       1.0  0.3232580139041731  0.45336031806898797  0.9842025341241724  1.0000
  H   H15       1.0  0.17671979098687277  0.9533756906298694  0.48420225504403186  1.0000
  H   H16       1.0  0.8232532165117376  0.0466827986308331  0.5158154316497274  1.0000
  H   H17       1.0  0.6946881793614282  0.4824476974682455  0.9523462356782417  1.0000
  H   H18       1.0  0.3053466212682068  0.5175847294184877  0.0476910769704091  1.0000
  H   H19       1.0  0.19466287799350818  0.01760471544920961  0.5476879966592562  1.0000
  H   H20       1.0  0.8052920419056732  0.9824560609056833  0.4523314887165029  1.0000
  H   H21       1.0  0.31714962298291743  0.4588422484582396  0.57595893043068  1.0000
  H   H22       1.0  0.6832921270213816  0.5410133295244818  0.42406281347967933  1.0000
  H   H23       1.0  0.8166564910452792  0.041046868613882695  0.9240716508831  1.0000
  H   H24       1.0  0.1829351382754822  0.9588988940295523  0.07604193050094919  1.0000
  H   H25       1.0  0.3245861225065809  0.38704332798351265  0.6471942158553857  1.0000
  H   H26       1.0  0.6756415927046858  0.6129003177460605  0.35290057057107294  1.0000
  H   H27       1.0  0.8242583975156281  0.11290389362610401  0.8528823242331073  1.0000
  H   H28       1.0  0.17560153263114128  0.8870712878782001  0.1472615074862702  1.0000
  H   H29       1.0  0.7068111123355935  0.3457532000161764  0.6214746418537942  1.0000
  H   H30       1.0  0.2934226370010791  0.6542057604096102  0.3786005609253209  1.0000
  H   H31       1.0  0.20659051941989054  0.1542367251983805  0.8786330914140379  1.0000
  H   H32       1.0  0.793313140766607  0.8458083398321603  0.12145225564260902  1.0000
  H   H33       1.0  0.6999864555089843  0.4149600283909863  0.5483884798826607  1.0000
  H   H34       1.0  0.3004733856226665  0.5848964838187314  0.45160903751496306  1.0000
  H   H35       1.0  0.1995494547434049  0.08495920893804504  0.9516635764638721  1.0000
  H   H36       1.0  0.800049728159422  0.915048995371201  0.0483915500305514  1.0000
  H   H37       1.0  0.7125167862590446  0.4949272544899372  0.16889693101808936  1.0000
  H   H38       1.0  0.8365719741896811  0.472498860056774  0.11711874064238968  1.0000
  H   H39       1.0  0.5084812043370093  0.44319516402333653  0.08398289882020997  1.0000
  H   H40       1.0  0.5425576076331211  0.41074122973184757  0.14365608564292393  1.0000
  H   H41       1.0  0.376555612402406  0.4685199725470355  0.13331759662183626  1.0000
  H   H42       1.0  0.16347790516718416  0.5275371702189275  0.8828809581935744  1.0000
  H   H43       1.0  0.2875587113578959  0.5050797260286827  0.8311155367261874  1.0000
  H   H44       1.0  0.6235123470741541  0.5314851382812764  0.8667046399790905  1.0000
  H   H45       1.0  0.457564619314951  0.5892680958991933  0.8563382958760783  1.0000
  H   H46       1.0  0.49156415208242527  0.556838297072666  0.9160215101748648  1.0000
  H   H47       1.0  0.2123954350252006  0.005063526632632404  0.331113053102726  1.0000
  H   H48       1.0  0.3365289365761868  0.027529894196682406  0.3828607410006626  1.0000
  H   H49       1.0  0.008499434672671701  0.05683323779265953  0.41602241546633667  1.0000
  H   H50       1.0  0.04246890413087811  0.08925620785625912  0.3563381138860322  1.0000
  H   H51       1.0  0.8765003953568354  0.031474741185469716  0.3667197666786706  1.0000
  H   H52       1.0  0.6634847767243955  0.9725338323166782  0.6171001640038868  1.0000
  H   H53       1.0  0.7874811103300702  0.9950003225350201  0.6688699057046535  1.0000
  H   H54       1.0  0.1234801460610626  0.9685833935213851  0.6333167210854781  1.0000
  H   H55       1.0  0.9574709436430241  0.9108022651659412  0.6436719808745154  1.0000
  H   H56       1.0  0.9916167674046293  0.9432262733892786  0.5839934586791243  1.0000
  H   H57       1.0  0.5265302646123757  0.3184016297575596  0.7645087387535056  1.0000
  H   H58       1.0  0.4735708512452844  0.6815940977039218  0.23553558843484268  1.0000
  H   H59       1.0  0.026502867301701403  0.1815907690827743  0.7355269453580391  1.0000
  H   H60       1.0  0.9735892036243  0.8184049354070668  0.26452533569508313  1.0000
  C   C1        1.0  0.5189977757544071  0.17866085983953178  0.8180613939988249  1.0000
  C   C2        1.0  0.48096466067235616  0.8213472668645992  0.18204868369686983  1.0000
  C   C3        1.0  0.01924715555123409  0.3213200378241368  0.6820337123282626  1.0000
  C   C4        1.0  0.9809202719870883  0.6786420630381543  0.3180469013483602  1.0000
  C   C5        1.0  0.5201552036772555  0.18826892526840316  0.6860196404093414  1.0000
  C   C6        1.0  0.47996851102709565  0.8116969772564459  0.31407180439961013  1.0000
  C   C7        1.0  0.0199964718694119  0.3117035448028175  0.8140617501740762  1.0000
  C   C8        1.0  0.9800021412434389  0.688282129418006  0.18601479396222234  1.0000
  C   C9        1.0  0.15094584701158456  0.6467968084844385  0.11723935256370051  1.0000
  C   C10       1.0  0.8490663363761898  0.35320761944561246  0.8828241018097174  1.0000
  C   C11       1.0  0.6509103782728403  0.8532201658256683  0.3828244926895151  1.0000
  C   C12       1.0  0.3491213998887162  0.1467956104464818  0.6172526547328161  1.0000
  C   C13       1.0  0.14938849794238251  0.6108335016750246  0.08115231136380878  1.0000
  C   C14       1.0  0.8505995727816752  0.38919061069591276  0.9189009420284435  1.0000
  C   C15       1.0  0.649368708706348  0.8892065759074795  0.418899890899219  1.0000
  C   C16       1.0  0.3506449892592727  0.11083858204060701  0.5811536402689866  1.0000
  C   C17       1.0  0.9841973512268255  0.5757822299355482  0.07453838440937231  1.0000
  C   C18       1.0  0.0158088088092398  0.42424525142340747  0.9255065402402778  1.0000
  C   C19       1.0  0.484162987608073  0.9242570637499414  0.42550418106997506  1.0000
  C   C20       1.0  0.5158567467911652  0.07580503097764789  0.5745145756294221  1.0000
  C   C21       1.0  0.8177882360532394  0.5785355995186805  0.1061195009743869  1.0000
  C   C22       1.0  0.18217873712131896  0.42149741715941513  0.8939084098690772  1.0000
  C   C23       1.0  0.3177827924490871  0.9214967843584817  0.3939152466713196  1.0000
  C   C24       1.0  0.6822836698771582  0.07856073197508812  0.6060883435706615  1.0000
  C   C25       1.0  0.8152461042122712  0.6160756003891734  0.1409927824040551  1.0000
  C   C26       1.0  0.1847299075205342  0.38393774741325615  0.8590529216341735  1.0000
  C   C27       1.0  0.3152287116458865  0.8839295133294344  0.35906451795538163  1.0000
  C   C28       1.0  0.6848814568820956  0.1161054407519302  0.6409568767764782  1.0000
  C   C29       1.0  0.9819071607140515  0.6502049871540053  0.14706194491397176  1.0000
  C   C30       1.0  0.018082413868903302  0.34979852062548394  0.8529946441221128  1.0000
  C   C31       1.0  0.48189205895047843  0.849800699651169  0.35300066464300517  1.0000
  C   C32       1.0  0.5182105657604481  0.15021577985819332  0.6470544260772684  1.0000
  C   C33       1.0  0.8185188312653864  0.5260078802812059  0.0092898836742776  1.0000
  C   C34       1.0  0.18153556259021997  0.4740188521758242  0.9907543206072943  1.0000
  C   C35       1.0  0.3184479650558743  0.9740358667947079  0.49074697998837274  1.0000
  C   C36       1.0  0.6815054483657902  0.0260258636422179  0.5092674401466155  1.0000
  C   C37       1.0  0.8287010022722824  0.48961225911998696  0.9736018825255073  1.0000
  C   C38       1.0  0.17133078216158285  0.5104160880349582  0.026442677004204995  1.0000
  C   C39       1.0  0.32866886737973283  0.010435692639035194  0.5264340781586583  1.0000
  C   C40       1.0  0.6712845454586899  0.9896271121169776  0.47358576070019603  1.0000
  C   C41       1.0  0.010070932755866102  0.46292985385707663  0.9634526599583139  1.0000
  C   C42       1.0  0.9899683890915442  0.5371028205945905  0.0365900746726737  1.0000
  C   C43       1.0  0.5100607067753415  0.0371155541436607  0.5365739646769753  1.0000
  C   C44       1.0  0.489910793377085  0.9629440208377958  0.46344516384331064  1.0000
  C   C45       1.0  0.18460408218093247  0.43355882502714155  0.5857231873556683  1.0000
  C   C46       1.0  0.8157999862125963  0.5663030694222188  0.41429744707938443  1.0000
  C   C47       1.0  0.684161659301438  0.0663445893000585  0.9143106708450048  1.0000
  C   C48       1.0  0.31551438239912244  0.9336141675189041  0.08579345857751258  1.0000
  C   C49       1.0  0.18863551584415464  0.3939808992727194  0.6254107553050616  1.0000
  C   C50       1.0  0.8116660580256507  0.6059364579587269  0.37465159718303903  1.0000
  C   C51       1.0  0.6882591341342919  0.10595621634662677  0.8746529294260057  1.0000
  C   C52       1.0  0.31152995774397857  0.8940266785883325  0.12546122636854307  1.0000
  C   C53       1.0  0.0158570930423991  0.36261518183627584  0.6385631085507911  1.0000
  C   C54       1.0  0.9843826840674411  0.6373293980361369  0.36150745139799056  1.0000
  C   C55       1.0  0.5155748092288377  0.13735189664635064  0.8615212459203575  1.0000
  C   C56       1.0  0.4843002033576909  0.8626584389420627  0.138591354232851  1.0000
  C   C57       1.0  0.839489348514313  0.3705999525423991  0.6108617938309635  1.0000
  C   C58       1.0  0.16081373559497084  0.6293246600301715  0.3891867915785028  1.0000
  C   C59       1.0  0.3391772468012917  0.1293650098863921  0.8892148656035488  1.0000
  C   C60       1.0  0.6606404923205959  0.8706505088264863  0.11087240699256988  1.0000
  C   C61       1.0  0.8356085998094189  0.4092158762513948  0.5704853499987976  1.0000
  C   C62       1.0  0.16482109585392382  0.590653725905412  0.42952115388882817  1.0000
  C   C63       1.0  0.33516724067437303  0.0907114358056589  0.9295636664196464  1.0000
  C   C64       1.0  0.6644982611583714  0.9092908701982622  0.0705041367732946  1.0000
  C   C65       1.0  0.007719085579545  0.44179572947530943  0.5575635081357716  1.0000
  C   C66       1.0  0.9927618538318229  0.5580304997580682  0.44243123718541  1.0000
  C   C67       1.0  0.5072273946238254  0.05809607705916159  0.9424652027089593  1.0000
  C   C68       1.0  0.49233409607875706  0.9418623947547641  0.0576067520868335  1.0000
  C   C69       1.0  0.0026824901888745003  0.4822570464309096  0.5172614460421697  1.0000
  C   C70       1.0  0.9978858717434421  0.5175315393553461  0.4827027180371459  1.0000
  C   C71       1.0  0.5021424210315218  0.01760892873453199  0.9827486259964431  1.0000
  C   C72       1.0  0.4973346594452367  0.982338804699289  0.017319395085777997  1.0000
  C   C73       1.0  0.6938622619491212  0.4890974232604322  0.13021015985870582  1.0000
  C   C74       1.0  0.5196733765259722  0.4508252274441206  0.1221987144598273  1.0000
  C   C75       1.0  0.3061876134187713  0.5109220750227195  0.869801173704488  1.0000
  C   C76       1.0  0.48039307945326476  0.5491914658747703  0.8778079302250817  1.0000
  C   C77       1.0  0.19379988076600801  0.010916865643992005  0.36979560695227315  1.0000
  C   C78       1.0  0.019635000328115396  0.049183140350194804  0.37781125078723926  1.0000
  C   C79       1.0  0.8061897130347405  0.9891487545993058  0.6301862595697542  1.0000
  C   C80       1.0  0.9803771978116772  0.950875438122317  0.6222017354001467  1.0000
  O   O1        1.0  0.35029411381945863  0.20462316537317798  0.7007069077429692  1.0000
  O   O2        1.0  0.6498627449463328  0.7952857361855903  0.2994462239017466  1.0000
  O   O3        1.0  0.8501048032435604  0.29522255298113725  0.7994868753849431  1.0000
  O   O4        1.0  0.1498636517018355  0.7047171954752119  0.2006288969192056  1.0000
  O   O5        1.0  0.6913055021286922  0.19278036244097765  0.800647480495428  1.0000
  O   O6        1.0  0.30867501929097335  0.8071683593216149  0.19941908763055946  1.0000
  O   O7        1.0  0.19156562022476462  0.3070921914514528  0.6993520734769021  1.0000
  O   O8        1.0  0.8085761815663943  0.6928391536240428  0.30070697056546447  1.0000
  O   O9        1.0  0.6914753554198327  0.20108287226033636  0.7024728036796973  1.0000
  O   O10       1.0  0.3086920815058675  0.7989195908811196  0.2975819808184497  1.0000
  O   O11       1.0  0.19124958966708047  0.29899476454330914  0.7975140058043734  1.0000
  O   O12       1.0  0.808746018481159  0.7010344246995717  0.20253814277685223  1.0000
  O   O13       1.0  0.8494008404359548  0.30405542042311856  0.6987833439233456  1.0000
  O   O14       1.0  0.15073644360044366  0.6959586280813002  0.3013332168299314  1.0000
  O   O15       1.0  0.349178794313751  0.19605333206775552  0.8014159122949279  1.0000
  O   O16       1.0  0.6508107763678198  0.8040164489347531  0.1987398349706808  1.0000
  O   O17       1.0  0.5232895511134146  0.2837645433635956  0.749747234764861  1.0000
  O   O18       1.0  0.47679950028027923  0.7162143473216888  0.25032318974269435  1.0000
  O   O19       1.0  0.023280238771917504  0.21620303961690007  0.7503265460916425  1.0000
  O   O20       1.0  0.9767907216344299  0.7837694495114179  0.24976125752604614  1.0000
  O   O21       1.0  0.6550785700296373  0.5428146913314151  0.10399192291258427  1.0000
  O   O22       1.0  0.3449396512065235  0.4572143464598001  0.8960345573118572  1.0000
  O   O23       1.0  0.1550497635963666  0.9572132498753874  0.39603603939688264  1.0000
  O   O24       1.0  0.8450212241616698  0.04285007273470141  0.603948004981234  1.0000
