data_image0
_chemical_formula_structural       Zn3H42C30N12
_chemical_formula_sum              "Zn3 H42 C30 N12"
_cell_length_a       8.403370085289403
_cell_length_b       8.403371511251686
_cell_length_c       12.932502115013609
_cell_angle_alpha    90.00006710426766
_cell_angle_beta     89.9998344204628
_cell_angle_gamma    120.00018310363275

_space_group_name_H-M_alt    "P 1"
_space_group_IT_number       1

loop_
  _space_group_symop_operation_xyz
  'x, y, z'

loop_
  _atom_site_type_symbol
  _atom_site_label
  _atom_site_symmetry_multiplicity
  _atom_site_fract_x
  _atom_site_fract_y
  _atom_site_fract_z
  _atom_site_occupancy
  Zn  Zn1       1.0  0.47409701128853476  0.4740962901469459  0.9999995708246987  1.0000
  Zn  Zn2       1.0  0.5259050543249227  0.9999992944878927  0.6666651545613577  1.0000
  Zn  Zn3       1.0  5.220642477522233e-07  0.5259055940472521  0.3333339943492676  1.0000
  H   H1        1.0  0.7925977334854508  0.8604504149023525  0.08173241196521272  1.0000
  H   H2        1.0  0.13955866523217936  0.9321549881294969  0.7483975491728929  1.0000
  H   H3        1.0  0.06784810389711275  0.2074029904561954  0.4150650931359365  1.0000
  H   H4        1.0  0.8604514441544209  0.7925992820379621  0.9182672715460073  1.0000
  H   H5        1.0  0.9321536075009715  0.1395592438924996  0.25160014032159245  1.0000
  H   H6        1.0  0.2074034583559197  0.06785199547256587  0.5849361355933455  1.0000
  H   H7        1.0  0.010024939039432319  0.8846177276099991  0.24840160093653912  1.0000
  H   H8        1.0  0.11538961160990616  0.1254072500481769  0.9150618424749909  1.0000
  H   H9        1.0  0.874597152070727  0.9899820376917748  0.5817315290844861  1.0000
  H   H10       1.0  0.8846164068815484  0.010022849494959142  0.7515977342597824  1.0000
  H   H11       1.0  0.12540100096320114  0.1153909123682553  0.08493399284510873  1.0000
  H   H12       1.0  0.9899813379791026  0.8745983217679055  0.4182672626631288  1.0000
  H   H13       1.0  0.5150804174520117  0.21310768455875012  0.12338793901859192  1.0000
  H   H14       1.0  0.7868972616583249  0.30197394641268743  0.7900522127851702  1.0000
  H   H15       1.0  0.6980305973673919  0.4849182379025906  0.45672011813706354  1.0000
  H   H16       1.0  0.21310751856245952  0.5150808756066425  0.8766145824233507  1.0000
  H   H17       1.0  0.3019769013656982  0.7868980516872314  0.20994778682876367  1.0000
  H   H18       1.0  0.48491780143040586  0.698030733486398  0.5432790555231365  1.0000
  H   H19       1.0  0.6824084750711635  0.21383151376162618  0.205872206836915  1.0000
  H   H20       1.0  0.7861732268302288  0.4685744879362943  0.8725390215117416  1.0000
  H   H21       1.0  0.5314231080104576  0.31758954141869117  0.5392030896614203  1.0000
  H   H22       1.0  0.21383191469834623  0.682403984739942  0.7941279007074799  1.0000
  H   H23       1.0  0.46857582102303036  0.7861737502778112  0.12746011191847373  1.0000
  H   H24       1.0  0.31758861628323126  0.5314241674132063  0.4607962711019412  1.0000
  H   H25       1.0  0.36266925560462937  0.057065154377362155  0.2849801094992515  1.0000
  H   H26       1.0  0.9429284352372704  0.3055954149103572  0.9516480200861324  1.0000
  H   H27       1.0  0.6943944752397184  0.6373255720078959  0.6183130392394035  1.0000
  H   H28       1.0  0.057068328527080305  0.36266484432622537  0.715021811516799  1.0000
  H   H29       1.0  0.3055962149926612  0.9429298004783957  0.04835189007766871  1.0000
  H   H30       1.0  0.6373255963644834  0.6943950553237953  0.3816868243105206  1.0000
  H   H31       1.0  0.3656433294974518  0.2696979877028269  0.2817325561746742  1.0000
  H   H32       1.0  0.7302909193941075  0.09593694514975953  0.9483958694813455  1.0000
  H   H33       1.0  0.9040561979080618  0.6343577134248122  0.6150659827332207  1.0000
  H   H34       1.0  0.26970270988172734  0.365644564081535  0.7182707905300134  1.0000
  H   H35       1.0  0.09593840027226003  0.7302916134576306  0.05160427729138211  1.0000
  H   H36       1.0  0.6343565149296636  0.9040555317089697  0.38493376500809967  1.0000
  H   H37       1.0  0.5231700993214972  0.24216923332178922  0.36118028710379957  1.0000
  H   H38       1.0  0.7578211715235098  0.28099104219096943  0.027846286828186403  1.0000
  H   H39       1.0  0.7189999663614655  0.47682882814668687  0.6945116667306551  1.0000
  H   H40       1.0  0.2421726321000719  0.5231658734909814  0.6388206670262662  1.0000
  H   H41       1.0  0.2809912993879704  0.75782064356072  0.9721529675899492  1.0000
  H   H42       1.0  0.4768290143243517  0.7190007236701206  0.30548749971262623  1.0000
  C   C1        1.0  0.7903055391712569  0.7528672416734211  0.12910912941977412  1.0000
  C   C2        1.0  0.24712996082094207  0.03741648437964783  0.795767677917425  1.0000
  C   C3        1.0  0.9625767235243785  0.2097050105542524  0.46243714237297706  1.0000
  C   C4        1.0  0.7528685558462199  0.7903046369188546  0.8708906156527264  1.0000
  C   C5        1.0  0.0374129531321898  0.2471326003774124  0.20423354560701773  1.0000
  C   C6        1.0  0.20969873122557908  0.9625682698153072  0.5375620372661559  1.0000
  C   C7        1.0  0.8960203653800887  0.7648362633220388  0.21306958526964345  1.0000
  C   C8        1.0  0.2351516730721386  0.13119526723305344  0.8797383277852618  1.0000
  C   C9        1.0  0.8688162807374268  0.103970926326973  0.5464054735461304  1.0000
  C   C10       1.0  0.7648371025746242  0.8960203489555881  0.7869293206205442  1.0000
  C   C11       1.0  0.13118602988428305  0.2351485972466918  0.12025898368220572  1.0000
  C   C12       1.0  0.10397693911127684  0.8688173935819208  0.4535976840884715  1.0000
  C   C13       1.0  0.7001860917351764  0.474055029481079  0.1843296674467894  1.0000
  C   C14       1.0  0.5259510461798624  0.22613989670006165  0.8509919129588043  1.0000
  C   C15       1.0  0.773865211021288  0.2998103882938139  0.5176617796901085  1.0000
  C   C16       1.0  0.47405574930825617  0.7001860110530133  0.8156710575822573  1.0000
  C   C17       1.0  0.22614114750502515  0.5259515443303046  0.1490082753524931  1.0000
  C   C18       1.0  0.2998093750409581  0.7738661568396452  0.4823382284416198  1.0000
  C   C19       1.0  0.5896221650328785  0.269970523732269  0.19625623353175572  1.0000
  C   C20       1.0  0.7300354246874079  0.31965119430231687  0.8629229357356466  1.0000
  C   C21       1.0  0.6803482941359108  0.4103775871855649  0.5295892226660827  1.0000
  C   C22       1.0  0.26997023541620974  0.5896183636941855  0.8037438945467984  1.0000
  C   C23       1.0  0.3196524747029059  0.7300359186969345  0.13707708583462622  1.0000
  C   C24       1.0  0.4103766409018804  0.6803493049889442  0.470410002666867  1.0000
  C   C25       1.0  0.4527120236262191  0.2068149063870025  0.28640130712097545  1.0000
  C   C26       1.0  0.7931778303487674  0.24588899675187303  0.9530670438649055  1.0000
  C   C27       1.0  0.7541039950186387  0.5472853040230633  0.6197326276966422  1.0000
  C   C28       1.0  0.20681792389494558  0.4527101767054092  0.7136012527875267  1.0000
  C   C29       1.0  0.2458909939521447  0.7931804164525502  0.0469329836556938  1.0000
  C   C30       1.0  0.547285305044376  0.7541045552058492  0.3802672528474248  1.0000
  N   N1        1.0  0.6682340586323506  0.5689369189869142  0.11054200160348421  1.0000
  N   N2        1.0  0.431073138573872  0.09930874003565304  0.7772073149585524  1.0000
  N   N3        1.0  0.9007002497080518  0.3317670410131584  0.44387626028573385  1.0000
  N   N4        1.0  0.568937972304212  0.6682356783970604  0.8894586881666912  1.0000
  N   N5        1.0  0.09930840426861194  0.43107482346773196  0.22279299757688878  1.0000
  N   N6        1.0  0.3317646361852764  0.90069978595195  0.5561244321223456  1.0000
  N   N7        1.0  0.8386391458940068  0.5886581072502467  0.24797929008991565  1.0000
  N   N8        1.0  0.41134671248907034  0.24998497007256062  0.9146432856116606  1.0000
  N   N9        1.0  0.7500187883898022  0.16135943595285357  0.581311458749255  1.0000
  N   N10       1.0  0.5886578151668757  0.8386380246140419  0.7520212931539235  1.0000
  N   N11       1.0  0.24998027287128355  0.4113440211026358  0.08535618031029911  1.0000
  N   N12       1.0  0.16135975188402807  0.7500210817890577  0.4186878670703607  1.0000
