data_image0
_chemical_formula_structural       Zn4H36C20N4O12
_chemical_formula_sum              "Zn4 H36 C20 N4 O12"
_cell_length_a       6.573838439029878
_cell_length_b       7.572168149329062
_cell_length_c       12.98132349002995
_cell_angle_alpha    90.00024525892857
_cell_angle_beta     89.99993753927065
_cell_angle_gamma    106.98930622357543

_space_group_name_H-M_alt    "P 1"
_space_group_IT_number       1

loop_
  _space_group_symop_operation_xyz
  'x, y, z'

loop_
  _atom_site_type_symbol
  _atom_site_label
  _atom_site_symmetry_multiplicity
  _atom_site_fract_x
  _atom_site_fract_y
  _atom_site_fract_z
  _atom_site_occupancy
  Zn  Zn1       1.0  0.11095759688551245  0.5596727444163959  0.7846564059078461  1.0000
  Zn  Zn2       1.0  0.38903971567149387  0.4403235148578943  0.2846563114081277  1.0000
  Zn  Zn3       1.0  0.8890440384694995  0.4403353764248266  0.2153419711547997  1.0000
  Zn  Zn4       1.0  0.6109519803113556  0.5596653303030054  0.7153436063083305  1.0000
  H   H1        1.0  0.4370348934039185  0.8277866842486007  0.9067435809592581  1.0000
  H   H2        1.0  0.0629609634358204  0.172210513875136  0.4067422364618309  1.0000
  H   H3        1.0  0.5629662780540059  0.1722158874759074  0.09325479609660901  1.0000
  H   H4        1.0  0.9370332324223226  0.8277810659595204  0.5932561405823621  1.0000
  H   H5        1.0  0.3089694530304214  0.894792751771  0.014944802072371  1.0000
  H   H6        1.0  0.19102671730538387  0.1052028993576215  0.5149429478741538  1.0000
  H   H7        1.0  0.691032706352459  0.1052125812304325  0.9850566563365605  1.0000
  H   H8        1.0  0.8089690205693713  0.894784485410014  0.4850561995018481  1.0000
  H   H9        1.0  0.2686648244672583  0.5994782233087221  0.07734717396494521  1.0000
  H   H10       1.0  0.23133285649832663  0.40052203601086944  0.5773468025051544  1.0000
  H   H11       1.0  0.7313368108879245  0.40052989753537827  0.9226519734351728  1.0000
  H   H12       1.0  0.768661339359994  0.5994695438266646  0.42265234487651077  1.0000
  H   H13       1.0  0.3673012796962638  0.5236075356137917  0.9619533092717276  1.0000
  H   H14       1.0  0.13269559049814458  0.4763928363228729  0.46195345260481  1.0000
  H   H15       1.0  0.6326978557832774  0.4763978505507964  0.0380458381257043  1.0000
  H   H16       1.0  0.867300611273869  0.5236000975643549  0.5380464651154426  1.0000
  H   H17       1.0  0.8514911176959143  0.739089180575185  0.9379404780394794  1.0000
  H   H18       1.0  0.6485055276424416  0.260910401609685  0.4379400754545132  1.0000
  H   H19       1.0  0.1485090057080498  0.2609189668576946  0.06205943969858652  1.0000
  H   H20       1.0  0.3514901801676302  0.7390811516477099  0.5620606126016412  1.0000
  H   H21       1.0  0.9643702809314905  0.7259087081129963  0.0622639228076451  1.0000
  H   H22       1.0  0.5356236614262428  0.27408950071939836  0.5622633493721879  1.0000
  H   H23       1.0  0.03563036649980941  0.27409665147145296  0.9377367652642762  1.0000
  H   H24       1.0  0.4643680044917531  0.7259035129283831  0.4377373386869508  1.0000
  H   H25       1.0  0.328114440808676  0.12095771174963939  0.8865760671618904  1.0000
  H   H26       1.0  0.17187684082040283  0.8790435838847515  0.38656563586130943  1.0000
  H   H27       1.0  0.671888212536501  0.879049001887381  0.1134261615860979  1.0000
  H   H28       1.0  0.8281102892412588  0.12094950948617372  0.6134258081495005  1.0000
  H   H29       1.0  0.05977012121739734  0.9903144096486473  0.888668693706137  1.0000
  H   H30       1.0  0.4402237213835747  0.0096812993712945  0.3886682672152304  1.0000
  H   H31       1.0  0.9402325020627416  0.009696472472377596  0.1113335350470521  1.0000
  H   H32       1.0  0.559767016740949  0.9903006160545756  0.6113355021802676  1.0000
  H   H33       1.0  0.7847292943589607  0.30771756743910583  0.7527816437694099  1.0000
  H   H34       1.0  0.7152672356290068  0.6922847996798753  0.2527830475817369  1.0000
  H   H35       1.0  0.2152960683213792  0.6922845789110994  0.2472167332789397  1.0000
  H   H36       1.0  0.2847173344290752  0.3077138960140929  0.7472176404865252  1.0000
  C   C1        1.0  0.2233190660552468  0.9612119181160284  0.7521601871011542  1.0000
  C   C2        1.0  0.276692242862417  0.0387977451344526  0.2521560758482337  1.0000
  C   C3        1.0  0.7766749494128717  0.03880467262556661  0.24783896031171793  1.0000
  C   C4        1.0  0.723329138055547  0.9611975246323681  0.7478407605177468  1.0000
  C   C5        1.0  0.28556743063341367  0.8433305392826398  0.9350335175870654  1.0000
  C   C6        1.0  0.21443044515005738  0.15666822427171215  0.435030506253689  1.0000
  C   C7        1.0  0.7144352227114084  0.15667617434862535  0.0649671704859642  1.0000
  C   C8        1.0  0.7855647686971848  0.8433219483414689  0.5649671004509713  1.0000
  C   C9        1.0  0.2239454036654323  0.534506445976163  0.0013132561810352001  1.0000
  C   C10       1.0  0.2760512242891977  0.4654946524195225  0.5013137910962797  1.0000
  C   C11       1.0  0.7760542257765904  0.4655003208268909  0.9986874318929327  1.0000
  C   C12       1.0  0.723943989558748  0.5344955202051693  0.49868689695829727  1.0000
  C   C13       1.0  0.927857312632014  0.6580219018141023  0.9864030561089409  1.0000
  C   C14       1.0  0.5721388610663922  0.34197666186153  0.4864021292189804  1.0000
  C   C15       1.0  0.07214031089648641  0.3419835109421356  0.013597631963925504  1.0000
  C   C16       1.0  0.42785684674350927  0.6580148913929946  0.5135977884996948  1.0000
  C   C17       1.0  0.2201517940960897  0.983662471022143  0.8687423195806762  1.0000
  C   C18       1.0  0.27984450913672987  0.0163399922578691  0.36873969124268063  1.0000
  C   C19       1.0  0.7798463233945296  0.01634432236679831  0.1312583684937607  1.0000
  C   C20       1.0  0.7201536985488131  0.9836542956761677  0.6312602264786804  1.0000
  N   N1        1.0  0.13083193509695687  0.6543157201221205  0.9376578666096905  1.0000
  N   N2        1.0  0.36916492390665223  0.3456844702707259  0.43765754782151595  1.0000
  N   N3        1.0  0.8691661823938406  0.3456910732696983  0.0623435918022324  1.0000
  N   N4        1.0  0.6308327898167647  0.6543084370306078  0.5623423698982677  1.0000
  O   O1        1.0  0.21092049094524867  0.8020694009461876  0.7125738901327594  1.0000
  O   O2        1.0  0.28907274651718495  0.1979277800878521  0.21257093849208536  1.0000
  O   O3        1.0  0.7890736147185036  0.19793468435200626  0.28742756827694654  1.0000
  O   O4        1.0  0.7109244732437575  0.8020637465750158  0.7874274385511627  1.0000
  O   O5        1.0  0.8334644138099846  0.43899582451619784  0.7281517930289496  1.0000
  O   O6        1.0  0.6665321048333652  0.5610063585636738  0.22815366828332634  1.0000
  O   O7        1.0  0.166538763561995  0.5610081012637592  0.27184889504045634  1.0000
  O   O8        1.0  0.33346051894419304  0.43899358483928813  0.7718485604591266  1.0000
  O   O9        1.0  0.23587508388985154  0.09996915254457411  0.6962734377230504  1.0000
  O   O10       1.0  0.264174492033348  0.9000408090955929  0.1962707088272424  1.0000
  O   O11       1.0  0.7641114620174251  0.9000350656917251  0.3037303317014377  1.0000
  O   O12       1.0  0.7358956750971757  0.0999674960188699  0.8037292088908076  1.0000
