data_image0
_chemical_formula_structural       Na4H32C16N16O12
_chemical_formula_sum              "Na4 H32 C16 N16 O12"
_cell_length_a       8.58317925810561
_cell_length_b       9.211614328991258
_cell_length_c       11.362710351016371
_cell_angle_alpha    119.87126454618038
_cell_angle_beta     97.20384821184827
_cell_angle_gamma    91.8181206978542

_space_group_name_H-M_alt    "P 1"
_space_group_IT_number       1

loop_
  _space_group_symop_operation_xyz
  'x, y, z'

loop_
  _atom_site_type_symbol
  _atom_site_label
  _atom_site_symmetry_multiplicity
  _atom_site_fract_x
  _atom_site_fract_y
  _atom_site_fract_z
  _atom_site_occupancy
  Na  Na1       1.0  0.062265749983190205  0.7068670481063393  0.6127051538500226  1.0000
  Na  Na2       1.0  0.9377334913661671  0.2931287798217213  0.3872932287796331  1.0000
  Na  Na3       1.0  0.8886332094764312  0.806725738722399  0.899110702741872  1.0000
  Na  Na4       1.0  0.1113641348203558  0.19327390585525006  0.1008889241295847  1.0000
  H   H1        1.0  0.7401297853222105  0.7433769052687397  0.6349681556648292  1.0000
  H   H2        1.0  0.2598659414928123  0.2566189908219556  0.3650299815935156  1.0000
  H   H3        1.0  0.7473007670901739  0.5612421949487967  0.6171254393966875  1.0000
  H   H4        1.0  0.2527008948387106  0.438754695734012  0.38287175267462453  1.0000
  H   H5        1.0  0.575784558764532  0.9164495378197162  0.8372268591906858  1.0000
  H   H6        1.0  0.42422125922666254  0.08354142325148929  0.16277378391158948  1.0000
  H   H7        1.0  0.5554007613936562  0.8958845086554277  0.9639138670277276  1.0000
  H   H8        1.0  0.4445960173049884  0.10412930687155612  0.0360944051062262  1.0000
  H   H9        1.0  0.9988830996312786  0.44392418845509957  0.6877806318508491  1.0000
  H   H10       1.0  0.0011185267475397774  0.5560726277913233  0.31221564851374944  1.0000
  H   H11       1.0  0.15614142585471308  0.3880710406134043  0.625159345037133  1.0000
  H   H12       1.0  0.8438615917924538  0.6119271588541866  0.3748393098055658  1.0000
  H   H13       1.0  0.211990690003482  0.695400842820291  0.8166749118337717  1.0000
  H   H14       1.0  0.7880031042089117  0.3045987954836066  0.1833235579596462  1.0000
  H   H15       1.0  0.2361273271570852  0.8868025007185237  0.9271596782029902  1.0000
  H   H16       1.0  0.7638721759557469  0.1131957669117014  0.07283873126839781  1.0000
  H   H17       1.0  0.07037706961051532  0.026513220694823803  0.591006358629869  1.0000
  H   H18       1.0  0.9296425366065931  0.9735013541175874  0.4090180548299713  1.0000
  H   H19       1.0  0.923915314025116  0.08878283805202608  0.6642905028153833  1.0000
  H   H20       1.0  0.07608635918998632  0.9112231725821264  0.3357135392119659  1.0000
  H   H21       1.0  0.013021831480976692  0.9804345081653454  0.20261219831554192  1.0000
  H   H22       1.0  0.9869694710517579  0.019563918511039405  0.7973856386227708  1.0000
  H   H23       1.0  0.1286238453670663  0.871711656341553  0.10789365365981493  1.0000
  H   H24       1.0  0.8713726958319513  0.12829067396829427  0.8921086533830974  1.0000
  H   H25       1.0  0.4567318311323164  0.3895413061954116  0.23659339013963893  1.0000
  H   H26       1.0  0.5432661497981287  0.6104644004194669  0.7634058479827814  1.0000
  H   H27       1.0  0.5717448212870905  0.2861601835815863  0.020139725594276615  1.0000
  H   H28       1.0  0.42825018644331436  0.7138404657615637  0.9798565601436378  1.0000
  H   H29       1.0  0.7892686808717998  0.7843053282633649  0.1677966999191582  1.0000
  H   H30       1.0  0.21073700620534913  0.21569445501365442  0.8322071463122568  1.0000
  H   H31       1.0  0.6680707021026678  0.8904608445928089  0.381114148711859  1.0000
  H   H32       1.0  0.33194149697268927  0.1095348822783393  0.6188869570260636  1.0000
  C   C1        1.0  0.49819711721080767  0.7056363004783037  0.4550182160033316  1.0000
  C   C2        1.0  0.5018023503519587  0.2943618927155357  0.5449792817613357  1.0000
  C   C3        1.0  0.5603746726440804  0.6460837579637015  0.3261841537929867  1.0000
  C   C4        1.0  0.4396285776730054  0.3539177660934101  0.6738104386320599  1.0000
  C   C5        1.0  0.5307222113238838  0.47570027192043096  0.2221438766481825  1.0000
  C   C6        1.0  0.46927384835475283  0.524298212745208  0.7778561108653291  1.0000
  C   C7        1.0  0.595808128841341  0.41752615599601484  0.10247752637673099  1.0000
  C   C8        1.0  0.40419050653009947  0.5824756078173864  0.8975185623000071  1.0000
  C   C9        1.0  0.6936438072104992  0.5261012073762715  0.08235220393318343  1.0000
  C   C10       1.0  0.3063531444087673  0.4739048197050196  0.9176505992256877  1.0000
  C   C11       1.0  0.7172336719163184  0.6977935144523076  0.18342238738640046  1.0000
  C   C12       1.0  0.28276982725122224  0.3022085306594918  0.816578586985699  1.0000
  C   C13       1.0  0.6516277509436037  0.7568540286940576  0.3034827154875472  1.0000
  C   C14       1.0  0.3483819741948224  0.24315056582466346  0.6965214297986434  1.0000
  C   C15       1.0  0.7666913365613724  0.4572238470776  0.9583339884325497  1.0000
  C   C16       1.0  0.23330223789411522  0.5427743852842611  0.041662188673200304  1.0000
  N   N1        1.0  0.5711082071689404  0.8329499040541251  0.5784683152002968  1.0000
  N   N2        1.0  0.42888781695963024  0.1670485061751279  0.4215307606064941  1.0000
  N   N3        1.0  0.4766993293103922  0.8449835191884106  0.6683199838405258  1.0000
  N   N4        1.0  0.5232958561703425  0.155017502336662  0.33168086043100686  1.0000
  N   N5        1.0  0.35209646635741626  0.7299298025512188  0.6025498711879819  1.0000
  N   N6        1.0  0.6478997064279214  0.27006986474731315  0.3974496738930354  1.0000
  N   N7        1.0  0.36338963287155224  0.6395208728495876  0.46848371984785336  1.0000
  N   N8        1.0  0.6366101675548209  0.36047990891919574  0.531515628171988  1.0000
  N   N9        1.0  0.8356666360411963  0.5465452972182163  0.9099803142660505  1.0000
  N   N10       1.0  0.16433173756676922  0.4534540268930131  0.09001574756895542  1.0000
  N   N11       1.0  0.8857953217475726  0.4308107964387915  0.7957560494521873  1.0000
  N   N12       1.0  0.11420327161729202  0.5691899336144814  0.20424230507049398  1.0000
  N   N13       1.0  0.8486895065021116  0.27856231462544667  0.7749019930521897  1.0000
  N   N14       1.0  0.15130878954921914  0.7214359012892759  0.22509542292203835  1.0000
  N   N15       1.0  0.7741143801979292  0.2904796736711575  0.8754507204561507  1.0000
  N   N16       1.0  0.2258829285487849  0.7095198964700984  0.12454799470858556  1.0000
  O   O1        1.0  0.8073624029168088  0.6758935233311192  0.6612688985800973  1.0000
  O   O2        1.0  0.19263669623228455  0.3241020068513977  0.3387258372226754  1.0000
  O   O3        1.0  0.6329961393148624  0.936926815423803  0.9286248150053426  1.0000
  O   O4        1.0  0.3670083229580571  0.0630628368626276  0.07137436532554628  1.0000
  O   O5        1.0  0.0641890094345356  0.445411666736355  0.620054090746656  1.0000
  O   O6        1.0  0.935814121319332  0.5545877153641217  0.3799441216635486  1.0000
  O   O7        1.0  0.16080115190101202  0.7987155299334817  0.8485332297703749  1.0000
  O   O8        1.0  0.839196305502476  0.20128529727705313  0.15146595466858054  1.0000
  O   O9        1.0  0.9847316060094043  0.9873533358476294  0.6208173019875929  1.0000
  O   O10       1.0  0.015270870303460497  0.012649989054324398  0.37918405986829373  1.0000
  O   O11       1.0  0.04794601440850243  0.9496048897155379  0.11481992090982372  1.0000
  O   O12       1.0  0.9520503070336093  0.05039603465226611  0.8851800934454204  1.0000
