data_image0
_chemical_formula_structural       Cd4H20C16N36
_chemical_formula_sum              "Cd4 H20 C16 N36"
_cell_length_a       8.425505735656493
_cell_length_b       9.878813307142895
_cell_length_c       12.059576086310942
_cell_angle_alpha    114.20433564889288
_cell_angle_beta     104.01912864541892
_cell_angle_gamma    89.99822000996815

_space_group_name_H-M_alt    "P 1"
_space_group_IT_number       1

loop_
  _space_group_symop_operation_xyz
  'x, y, z'

loop_
  _atom_site_type_symbol
  _atom_site_label
  _atom_site_symmetry_multiplicity
  _atom_site_fract_x
  _atom_site_fract_y
  _atom_site_fract_z
  _atom_site_occupancy
  Cd  Cd1       1.0  4.5465971968962517e-07  0.5000001661690021  0.5000001857146189  1.0000
  Cd  Cd2       1.0  0.5000002283453853  0.9999999509298761  0.5000000338766384  1.0000
  Cd  Cd3       1.0  0.25006085612046297  0.09867513115138851  0.9999862839135646  1.0000
  Cd  Cd4       1.0  0.7499385700752157  0.9013236442871673  1.3179219045907982e-05  1.0000
  H   H1        1.0  0.17304735283476455  0.27835117980215784  0.8519509001067149  1.0000
  H   H2        1.0  0.3268614949528015  0.4263421647120182  0.14809379920342994  1.0000
  H   H3        1.0  0.826953432839403  0.7216487000008553  0.14805000270010985  1.0000
  H   H4        1.0  0.6731393034311566  0.5736577453520367  0.8519046283769782  1.0000
  H   H5        1.0  0.13184994457889584  0.9710425490895246  0.6623319897864306  1.0000
  H   H6        1.0  0.36825624189511785  0.30845997930730823  0.3374894231589067  1.0000
  H   H7        1.0  0.8681509860397513  0.028958457638573503  0.3376684943450314  1.0000
  H   H8        1.0  0.6317407425227586  0.6915388109914746  0.6625087985009516  1.0000
  H   H9        1.0  0.1985000191119042  0.1342065542997872  0.6513913179264321  1.0000
  H   H10       1.0  0.3017551042347222  0.4827494910766177  0.3487499596451116  1.0000
  H   H11       1.0  0.8015009115067501  0.865794452428311  0.3486091662050299  1.0000
  H   H12       1.0  0.6982446033767289  0.5172515180380872  0.6512503162877081  1.0000
  H   H13       1.0  0.903359588283223  0.2145136369870073  0.8603364086349643  1.0000
  H   H14       1.0  0.5965229504653777  0.3542534536161882  0.13951421543098524  1.0000
  H   H15       1.0  0.09663997438374847  0.7854862452026126  0.13966428597322528  1.0000
  H   H16       1.0  0.4034764757303008  0.6457453218223677  0.8604852477016252  1.0000
  H   H17       1.0  0.9020144748398664  0.035451845890158  0.7413767932646849  1.0000
  H   H18       1.0  0.5981424739473694  0.2941004144237311  0.25840659473593064  1.0000
  H   H19       1.0  0.09798617859961212  0.9645469372488052  0.2586220529910933  1.0000
  H   H20       1.0  0.4018558657123991  0.7058994701524953  0.7415938916736167  1.0000
  C   C1        1.0  0.3767461497529042  0.05580713748808112  0.7635721862942618  1.0000
  C   C2        1.0  0.1233373155499038  0.29216589701633205  0.23643918491171692  1.0000
  C   C3        1.0  0.6232547766291602  0.9441938591530104  0.23642912291266782  1.0000
  C   C4        1.0  0.8766611775275451  0.7078351346589998  0.7635592326715115  1.0000
  C   C5        1.0  0.20446617325713853  0.081375392298213  0.7163761341076409  1.0000
  C   C6        1.0  0.2956744467592074  0.36489216124081025  0.28362874803482907  1.0000
  C   C7        1.0  0.7955347573615157  0.9186256144298854  0.28362435002382114  1.0000
  C   C8        1.0  0.7043239013737549  0.6351077435094441  0.7163700882237763  1.0000
  C   C9        1.0  0.8935634080504259  0.20937880225604738  0.6783926857439866  1.0000
  C   C10       1.0  0.6064090372254684  0.53108457860494  0.32155867194951077  1.0000
  C   C11       1.0  0.10643860486754159  0.7906210852473734  0.321607600186006  1.0000
  C   C12       1.0  0.39359052967809305  0.46891531367168676  0.6784411975832043  1.0000
  C   C13       1.0  0.9505923773027335  0.1530114313917394  0.7779903290922336  1.0000
  C   C14       1.0  0.5494112004382572  0.3750591387313166  0.22188566378974886  1.0000
  C   C15       1.0  0.049408412608030985  0.8469884584982877  0.22200974863912393  1.0000
  C   C16       1.0  0.45058836646531125  0.6249407535453102  0.7781142057429593  1.0000
  N   N1        1.0  0.4341132499582087  0.05310015067731651  0.8761402602510486  1.0000
  N   N2        1.0  0.06586269460927238  0.1769097528703156  0.123810043153604  1.0000
  N   N3        1.0  0.5658875357159658  0.9468997291256966  0.1238606425557761  1.0000
  N   N4        1.0  0.9341356577602866  0.8230901619669452  0.8761879680295195  1.0000
  N   N5        1.0  0.5868119664883977  0.011539379908519701  0.8791993407179248  1.0000
  N   N6        1.0  0.9131307134437705  0.13236503248558054  0.12074746361521699  1.0000
  N   N7        1.0  0.4131889598936596  0.9884616167325716  0.12080196848901188  1.0000
  N   N8        1.0  0.0868688534597908  0.8676348597910533  0.8792524059174982  1.0000
  N   N9        1.0  0.6212986654431347  0.9902748420626253  0.7731134010202966  1.0000
  N   N10       1.0  0.8787173295992687  0.2172006561719684  0.22688569572110853  1.0000
  N   N11       1.0  0.3787021244676368  0.009725047827401998  0.2268866767110609  1.0000
  N   N12       1.0  0.12128223730429968  0.7827992361046654  0.7731141738116065  1.0000
  N   N13       1.0  0.4918555456848568  0.018501212872386902  0.6993454437791443  1.0000
  N   N14       1.0  0.008270050001016199  0.31912965804884413  0.3006990749690033  1.0000
  N   N15       1.0  0.5081453806972007  0.9814997837687047  0.30065586542779255  1.0000
  N   N16       1.0  0.9917296576104421  0.6808713510658608  0.6993012009638165  1.0000
  N   N17       1.0  0.9774001226973824  0.32454688483019106  0.678204203881215  1.0000
  N   N18       1.0  0.5226943722598065  0.6465023719069265  0.32173999534671094  1.0000
  N   N19       1.0  0.02259943996958922  0.6754529973594289  0.3217964907269747  1.0000
  N   N20       1.0  0.4773064218875547  0.3534975280701148  0.6782592573091649  1.0000
  N   N21       1.0  0.8947347500880767  0.3350218163715155  0.5719186851023963  1.0000
  N   N22       1.0  0.605302411274792  0.7632833052759409  0.4280977627175774  1.0000
  N   N23       1.0  0.10526617629398062  0.664979180269576  0.42808262410454034  1.0000
  N   N24       1.0  0.39469837863597235  0.23671658461407935  0.5719023150137801  1.0000
  N   N25       1.0  0.766170949400312  0.23313186647170883  0.5108327436079705  1.0000
  N   N26       1.0  0.7337395665888948  0.7224261803225858  0.4892371831885713  1.0000
  N   N27       1.0  0.23382862173984617  0.7668680358919389  0.48916630084926993  1.0000
  N   N28       1.0  0.2662610826139868  0.2775725927293636  0.5107624881426815  1.0000
  N   N29       1.0  0.7629991977519098  0.1508414301399128  0.5760875896696974  1.0000
  N   N30       1.0  0.7368663485311658  0.5748404316718094  0.4239313466686455  1.0000
  N   N31       1.0  0.2369992826157485  0.8491595712743846  0.4239133031399548  1.0000
  N   N32       1.0  0.26313307766451294  0.4251583437667463  0.576068116463965  1.0000
  N   N33       1.0  0.1327745931943909  0.16801742393563757  0.8220002266172485  1.0000
  N   N34       1.0  0.3672423901570809  0.3459671807210469  0.1779774243833998  1.0000
  N   N35       1.0  0.8672248330012877  0.8319813515029182  0.17799923651536187  1.0000
  N   N36       1.0  0.632757321690967  0.6540338384806715  0.8220220264739454  1.0000
