data_image0
_chemical_formula_structural       Al6H36C78O32
_chemical_formula_sum              "Al6 H36 C78 O32"
_cell_length_a       12.291769905030986
_cell_length_b       12.46633845334003
_cell_length_c       26.932812325529145
_cell_angle_alpha    82.33975382423883
_cell_angle_beta     82.1767902079648
_cell_angle_gamma    64.316610543036

_space_group_name_H-M_alt    "P 1"
_space_group_IT_number       1

loop_
  _space_group_symop_operation_xyz
  'x, y, z'

loop_
  _atom_site_type_symbol
  _atom_site_label
  _atom_site_symmetry_multiplicity
  _atom_site_fract_x
  _atom_site_fract_y
  _atom_site_fract_z
  _atom_site_occupancy
  Al  Al1       1.0  0.603432231200756  0.5944563809650204  0.48884717758667046  1.0000
  Al  Al2       1.0  0.5914337771934939  0.33956733602675365  0.5000141675672792  1.0000
  Al  Al3       1.0  0.3566745872721171  0.5609242933399871  0.5030264314122092  1.0000
  Al  Al4       1.0  0.08231533458758382  0.0631967928213371  0.0204171396380204  1.0000
  Al  Al5       1.0  0.33829719630132626  0.07854457047748302  0.0035277525981456054  1.0000
  Al  Al6       1.0  0.1128279594973236  0.3094230704686752  0.0023004766392417924  1.0000
  H   H1        1.0  0.10488783347833655  0.9512851782535351  0.7811308018077836  1.0000
  H   H2        1.0  0.6663237003334788  0.3555855294885291  0.742052267114424  1.0000
  H   H3        1.0  0.7499347958812382  0.15052603049197438  0.8330484885986917  1.0000
  H   H4        1.0  0.17992057477256657  0.2535846521781195  0.7147594712284472  1.0000
  H   H5        1.0  0.02996077962417585  0.4762265711542498  0.2701636378969994  1.0000
  H   H6        1.0  0.5873819766118088  0.42161997535901463  0.1958870864864934  1.0000
  H   H7        1.0  0.4460136071113184  0.5481590356945601  0.1918360831651995  1.0000
  H   H8        1.0  0.5626906176959922  0.5546522597182674  0.22167925556887266  1.0000
  H   H9        1.0  0.4101610856830433  0.5307256500513304  0.2876328217470814  1.0000
  H   H10       1.0  0.547081887848421  0.40093630098877503  0.2905037485276409  1.0000
  H   H11       1.0  0.6880413866840628  0.22217594664498108  0.2584240178300945  1.0000
  H   H12       1.0  0.005632552136681612  0.10855087174816448  0.7117875254754225  1.0000
  H   H13       1.0  0.6758433291524568  0.0847494609606585  0.2732468005434754  1.0000
  H   H14       1.0  0.7700804460537756  0.1027794458753135  0.219857039410492  1.0000
  H   H15       1.0  0.5771250454357287  0.11698772837510767  0.19241496527798316  1.0000
  H   H16       1.0  0.5912338743833487  0.2514557037641722  0.1767180300776587  1.0000
  H   H17       1.0  0.4115540847238037  0.9881199667001609  0.25803593437447586  1.0000
  H   H18       1.0  0.5617128337905016  0.9761116497953566  0.2522517691701935  1.0000
  H   H19       1.0  0.5128510909197959  0.8974554793289112  0.3033735219485009  1.0000
  H   H20       1.0  0.5172614889878063  0.0820752827143139  0.3311855512882147  1.0000
  H   H21       1.0  0.37201995788279163  0.084887719434974  0.3407826076408326  1.0000
  H   H22       1.0  0.2851071311150052  0.680375773739172  0.8771169587271217  1.0000
  H   H23       1.0  0.24413596413521785  0.518556144516154  0.2137611326205544  1.0000
  H   H24       1.0  0.2544899191421591  0.5995969837888426  0.8354604467714778  1.0000
  H   H25       1.0  0.369577094101075  0.5234804939666445  0.8771548722252333  1.0000
  H   H26       1.0  0.46227624909630555  0.5481421738957265  0.7893993220565391  1.0000
  H   H27       1.0  0.49487891153975744  0.6248198215199494  0.8318607035993395  1.0000
  H   H28       1.0  0.6957403557922675  0.599886318257056  0.7546717348280936  1.0000
  H   H29       1.0  0.2185336227673034  0.2096313432837391  0.2496688098639979  1.0000
  H   H30       1.0  0.23102372046419364  0.0275037767996835  0.696684371710198  1.0000
  H   H31       1.0  0.20668629840986338  0.7216099478923397  0.7464990629721271  1.0000
  H   H32       1.0  0.531034470109745  0.7313948862890811  0.7200171381802747  1.0000
  H   H33       1.0  0.4283804311166152  0.9635499056537142  0.7549690565506992  1.0000
  H   H34       1.0  0.9346958828886047  0.4558640917877241  0.6972616007830011  1.0000
  H   H35       1.0  0.7367438753681983  0.676150315445753  0.4510810483651966  1.0000
  H   H36       1.0  0.9738467561708717  0.9639356821207697  0.06770228769781281  1.0000
  C   C1        1.0  0.7352731804876241  0.37844726374844845  0.5590590395330253  1.0000
  C   C2        1.0  0.3103852826887918  0.868208565486448  0.7994769548759421  1.0000
  C   C3        1.0  0.4365722807258265  0.7807775554978563  0.7343464937275996  1.0000
  C   C4        1.0  0.4114676906301469  0.3736512055277644  0.5831135991270457  1.0000
  C   C5        1.0  0.32604179498775926  0.8162227069703077  0.7019117003835333  1.0000
  C   C6        1.0  0.36792930657391304  0.7370173743323962  0.7799479791160094  1.0000
  C   C7        1.0  0.2562253388797302  0.7752827569472557  0.748734257971293  1.0000
  C   C8        1.0  0.30553985585425614  0.8912991859280127  0.8497912766277835  1.0000
  C   C9        1.0  0.33710973607793476  0.7894862729501354  0.6516322087903318  1.0000
  C   C10       1.0  0.9111449478506017  0.38718961985768624  0.7190791734597326  1.0000
  C   C11       1.0  0.8146891967602059  0.40902626791295643  0.7657007068652817  1.0000
  C   C12       1.0  0.375376446111318  0.3290572492148343  0.7328851823048977  1.0000
  C   C13       1.0  0.9399359690584961  0.2810518109079751  0.8913039233832903  1.0000
  C   C14       1.0  0.79465864663014  0.3411281267197026  0.6049514480785801  1.0000
  C   C15       1.0  0.0004076282486807108  0.2736631372816731  0.7493714891392429  1.0000
  C   C16       1.0  0.3862485602568954  0.7097368079458376  0.5614734451710531  1.0000
  C   C17       1.0  0.9028776585929138  0.2945226840473509  0.7963427712546362  1.0000
  C   C18       1.0  0.9496830405412101  0.1948137051749228  0.7268111475721781  1.0000
  C   C19       1.0  0.8597290224760529  0.3095000657906937  0.6967899014113285  1.0000
  C   C20       1.0  0.8531232164310367  0.21469810551761986  0.7724105505066702  1.0000
  C   C21       1.0  0.7626323278852427  0.33112045203454704  0.7438966194902503  1.0000
  C   C22       1.0  0.9237140382558736  0.28703378092710347  0.8472683071762006  1.0000
  C   C23       1.0  0.38309367160735514  0.3387455630161326  0.6824949985856605  1.0000
  C   C24       1.0  0.828910525398243  0.3219424487490627  0.6469284847512569  1.0000
  C   C25       1.0  0.2241725511079481  0.3785632565878529  0.2788089269952038  1.0000
  C   C26       1.0  0.2869140967887773  0.4293177040726306  0.2330842211466475  1.0000
  C   C27       1.0  0.3229151063968629  0.28576197432671796  0.1127136021235557  1.0000
  C   C28       1.0  0.7268161107428953  0.3943746570376235  0.41837868131016615  1.0000
  C   C29       1.0  0.3680089152391589  0.3440242733392793  0.40115545797875996  1.0000
  C   C30       1.0  0.27344234736049333  0.2572607121213508  0.2532063608852084  1.0000
  C   C31       1.0  0.3353916438030637  0.30936833038975914  0.207190044330261  1.0000
  C   C32       1.0  0.3910947844356869  0.2069409703504164  0.28147899040920515  1.0000
  C   C33       1.0  0.3417071737552746  0.32823350697940157  0.30749623452057756  1.0000
  C   C34       1.0  0.3911169893593113  0.3482097230854961  0.63632780964398  1.0000
  C   C35       1.0  0.45516940061845185  0.25834265329886114  0.23578629186642525  1.0000
  C   C36       1.0  0.40513881458664247  0.38067147662629713  0.2608793505730702  1.0000
  C   C37       1.0  0.3293757860360814  0.2974320486960096  0.1563598733397811  1.0000
  C   C38       1.0  0.35159758121449164  0.33769457369166384  0.3581258251702835  1.0000
  C   C39       1.0  0.32855593255998616  0.8748177034430996  0.1329807507870626  1.0000
  C   C40       1.0  0.39554131811180343  0.3696969535024407  0.44658056835186233  1.0000
  C   C41       1.0  0.3402619693415829  0.8405492949640205  0.1776279537073293  1.0000
  C   C42       1.0  0.3500797081242197  0.808154041179378  0.22685344967879928  1.0000
  C   C43       1.0  0.3567621343801619  0.7842710085731923  0.2726065114468383  1.0000
  C   C44       1.0  0.3664955648764163  0.7600394575907149  0.3221933756106026  1.0000
  C   C45       1.0  0.26906904413188903  0.9456300854284835  0.7215203531317229  1.0000
  C   C46       1.0  0.37669570120387874  0.7384452109002594  0.36754712218944247  1.0000
  C   C47       1.0  0.9077802606755581  0.3156827890679068  0.1325349263288231  1.0000
  C   C48       1.0  0.8793422535602103  0.3330891353479259  0.17720678854775682  1.0000
  C   C49       1.0  0.8514586563005154  0.34897324711171523  0.22634264530947226  1.0000
  C   C50       1.0  0.8288678444321536  0.3591942349131614  0.2720009874179681  1.0000
  C   C51       1.0  0.8018019786501612  0.3686457854592078  0.32158390300686784  1.0000
  C   C52       1.0  0.4009752762666212  0.696680718551363  0.4190570002780802  1.0000
  C   C53       1.0  0.7753971992440327  0.37626693186008  0.3669583700407841  1.0000
  C   C54       1.0  0.2861692272563019  0.9491795189714267  0.9424564541640591  1.0000
  C   C55       1.0  0.3099713994641533  0.2708360953809503  0.9277216376089256  1.0000
  C   C56       1.0  0.19973135213933788  0.9033251337417101  0.7672016983639978  1.0000
  C   C57       1.0  0.9777390859885673  0.2621881977740088  0.9410936412002754  1.0000
  C   C58       1.0  0.2952408250399755  0.9354887540711021  0.0843234102853927  1.0000
  C   C59       1.0  0.2999314271845606  0.2615397925640651  0.06576100888171509  1.0000
  C   C60       1.0  0.9624549635103963  0.27982636646145664  0.08319693910169688  1.0000
  C   C61       1.0  0.34210961851816535  0.2974198735742988  0.8757617701148632  1.0000
  C   C62       1.0  0.35558557884369435  0.3088031046759667  0.8296845717138979  1.0000
  C   C63       1.0  0.3675306944955494  0.3203382305995746  0.7793058236828683  1.0000
  C   C64       1.0  0.8248816426213496  0.11988158904368623  0.8024364451967045  1.0000
  C   C65       1.0  0.13168612697464252  0.23693546744569013  0.7513149186958614  1.0000
  C   C66       1.0  0.09676395918210554  0.43977025328951663  0.2994416885320632  1.0000
  C   C67       1.0  0.3036300833916244  0.9093211722356784  0.8933893959698054  1.0000
  C   C68       1.0  0.4721491776718807  0.4535139076061228  0.26670116500751107  1.0000
  C   C69       1.0  0.5197317354616829  0.4966580105028768  0.21620955060607366  1.0000
  C   C70       1.0  0.5780135295256911  0.19273431025582974  0.20905735306186554  1.0000
  C   C71       1.0  0.683541040828267  0.1482608255879185  0.2420899213024725  1.0000
  C   C72       1.0  0.4423561401032288  0.08771858012568153  0.3110954488332211  1.0000
  C   C73       1.0  0.48457228560723553  0.9816273101529801  0.2793617354832704  1.0000
  C   C74       1.0  0.42073134134894735  0.6239558155909394  0.8133452717109506  1.0000
  C   C75       1.0  0.32701144033187296  0.6059734309022531  0.8529316727350887  1.0000
  C   C76       1.0  0.7378528204942827  0.5273405571212706  0.7847888011017901  1.0000
  C   C77       1.0  0.35214682558692106  0.7625553767434781  0.6084944853053145  1.0000
  C   C78       1.0  0.3800059054779013  0.908964975366871  0.7526142365551607  1.0000
  O   O1        1.0  0.49080405958596146  0.690157392472621  0.5404872644672452  1.0000
  O   O2        1.0  0.20905917842704005  0.3455619548203757  0.9471092225780638  1.0000
  O   O3        1.0  0.003999599651223227  0.34310844950582003  0.9545707805972723  1.0000
  O   O4        1.0  0.7000526424432536  0.4870651085556119  0.5434647440221596  1.0000
  O   O5        1.0  0.9847901700161118  0.17519867158879524  0.07439711172208521  1.0000
  O   O6        1.0  0.18649380121173947  0.9677703194538622  0.0758973622578623  1.0000
  O   O7        1.0  0.3773766445179163  0.9554502124784818  0.05480838342813137  1.0000
  O   O8        1.0  0.3733443228023604  0.1622321382949465  0.048112234441269705  1.0000
  O   O9        1.0  0.2042673117892092  0.33817301140679484  0.04586041465064741  1.0000
  O   O10       1.0  0.9883138735188056  0.357089475445413  0.05330032630865131  1.0000
  O   O11       1.0  0.17847282906452477  0.151911247672686  0.0088959686176722  1.0000
  O   O12       1.0  0.49701112111013407  0.29841549288403973  0.463987299418278  1.0000
  O   O13       1.0  0.7190548564203354  0.2983762106190895  0.5390615382022403  1.0000
  O   O14       1.0  0.5106687026807961  0.3020992586041231  0.5613020710432153  1.0000
  O   O15       1.0  0.33160081551532994  0.4688527480644069  0.5631415701478559  1.0000
  O   O16       1.0  0.30846180677882984  0.681696805372134  0.5449950484457062  1.0000
  O   O17       1.0  0.5002029365814809  0.6856503987451816  0.4322090555556102  1.0000
  O   O18       1.0  0.7125662331281076  0.4895554521505828  0.4353684169255344  1.0000
  O   O19       1.0  0.6975256188344688  0.3122211484812212  0.4417305996735976  1.0000
  O   O20       1.0  0.8811346076532374  0.014106901815203791  0.7952843521338265  1.0000
  O   O21       1.0  0.1861125805879665  0.19006415502435203  0.7887128607021126  1.0000
  O   O22       1.0  0.06315285674822495  0.44993507007171024  0.3440806879456345  1.0000
  O   O23       1.0  0.3198243547729832  0.466043044622843  0.4660421119777212  1.0000
  O   O24       1.0  0.7184293641242692  0.547011351663443  0.8290260345665956  1.0000
  O   O25       1.0  0.32012433153042946  0.6701284482446539  0.4463274207510821  1.0000
  O   O26       1.0  0.5167168057171382  0.49700316705695974  0.4968711003312619  1.0000
  O   O27       1.0  0.9865003289354064  0.16677885490162941  0.9666990794885207  1.0000
  O   O28       1.0  0.18890066135926292  0.9616468891889481  0.9690634015173599  1.0000
  O   O29       1.0  0.3702438677010775  0.9735309670157619  0.9553793548012093  1.0000
  O   O30       1.0  0.3812719646702832  0.17217092023864916  0.9490548174137742  1.0000
  O   O31       1.0  0.6827539698820431  0.6832345022317057  0.481366878211979  1.0000
  O   O32       1.0  0.9921380360255226  0.9847138513587977  0.03270974157297963  1.0000
