data_image0
_chemical_formula_structural       Hg4H24C20S20Br8
_chemical_formula_sum              "Hg4 H24 C20 S20 Br8"
_cell_length_a       4.06777795787047
_cell_length_b       13.22329134332202
_cell_length_c       24.698709728410073
_cell_angle_alpha    75.56280879407579
_cell_angle_beta     85.25183230289767
_cell_angle_gamma    81.04678440850877

_space_group_name_H-M_alt    "P 1"
_space_group_IT_number       1

loop_
  _space_group_symop_operation_xyz
  'x, y, z'

loop_
  _atom_site_type_symbol
  _atom_site_label
  _atom_site_symmetry_multiplicity
  _atom_site_fract_x
  _atom_site_fract_y
  _atom_site_fract_z
  _atom_site_occupancy
  Hg  Hg1       1.0  0.9909052350120509  0.6659511371026878  0.08943402705044434  1.0000
  Hg  Hg2       1.0  0.7421629774074322  0.8344585474919554  0.4103989174614426  1.0000
  Hg  Hg3       1.0  0.009025080860176664  0.33404764826889277  0.9105694259503565  1.0000
  Hg  Hg4       1.0  0.2580134974569576  0.16556697236811152  0.5896022544685451  1.0000
  H   H1        1.0  0.6213838591500791  0.6336775191745686  0.8388236938731879  1.0000
  H   H2        1.0  0.09301848251786993  0.8665249107879659  0.6611930956319299  1.0000
  H   H3        1.0  0.3785954413192557  0.3663307364904043  0.16117231669609566  1.0000
  H   H4        1.0  0.9070196030333552  0.133466766978465  0.3388053144590231  1.0000
  H   H5        1.0  0.010869093443275794  0.5791727901050336  0.8723998193087894  1.0000
  H   H6        1.0  0.46128552735464057  0.9209679726486756  0.6277294529282145  1.0000
  H   H7        1.0  0.9890911190778772  0.42081890563920876  0.12759997510058696  1.0000
  H   H8        1.0  0.5387351329775785  0.07903474910717988  0.3722677961615233  1.0000
  H   H9        1.0  0.9741843528898856  0.5826935730213306  0.8001925179169119  1.0000
  H   H10       1.0  0.3553752408701673  0.9171929678537794  0.69994789267475  1.0000
  H   H11       1.0  0.025778240528261276  0.4173028516563874  0.1998071501573619  1.0000
  H   H12       1.0  0.6446474389973037  0.08280423202362637  0.3000504601329155  1.0000
  H   H13       1.0  0.1411982992653479  0.0722328719580787  0.8467231204954827  1.0000
  H   H14       1.0  0.062371745295230624  0.4277508344755034  0.6530882448635182  1.0000
  H   H15       1.0  0.8587832349260159  0.9277619648063221  0.15327823226076728  1.0000
  H   H16       1.0  0.9375921988661491  0.5722637158484716  0.3469121315963406  1.0000
  H   H17       1.0  0.21192815482299224  0.137275559751707  0.7751164452412667  1.0000
  H   H18       1.0  0.126876565563357  0.3626668705016983  0.7246897330107133  1.0000
  H   H19       1.0  0.7880987909453271  0.8627082277871096  0.22488522452466242  1.0000
  H   H20       1.0  0.8730805898715633  0.6373382241016541  0.2753104573330845  1.0000
  H   H21       1.0  0.49904989087372126  0.14091283036248103  0.825363970491331  1.0000
  H   H22       1.0  0.46816635840963966  0.35895305147325013  0.6744332818351495  1.0000
  H   H23       1.0  0.5009433386082803  0.8590812022467915  0.17464092488425106  1.0000
  H   H24       1.0  0.5317818838210615  0.6410575688227877  0.32556529852343635  1.0000
  C   C1        1.0  0.9104163041991961  0.8552123137554303  0.9619733544938569  1.0000
  C   C2        1.0  0.727463236585756  0.6448525555501592  0.5379141189144647  1.0000
  C   C3        1.0  0.08955356713200052  0.14476754922412033  0.0380284095969685  1.0000
  C   C4        1.0  0.27253083105489423  0.3551525365648018  0.46208370847639196  1.0000
  C   C5        1.0  0.916649449670459  0.8086445370322151  0.8656498733175654  1.0000
  C   C6        1.0  0.5906885827571317  0.6912541884500102  0.6343338898838695  1.0000
  C   C7        1.0  0.08332500600018726  0.19134792494401154  0.13435495175451  1.0000
  C   C8        1.0  0.40936782200021343  0.308754810452072  0.3656684336472864  1.0000
  C   C9        1.0  0.7278210832871536  0.9066581215692936  0.8589241591344532  1.0000
  C   C10       1.0  0.49393430728797955  0.5932608066769518  0.6410110027444063  1.0000
  C   C11       1.0  0.27218996305516896  0.09331382889873652  0.1410828220599356  1.0000
  C   C12       1.0  0.5060966849480765  0.4067174568370717  0.3589922095257023  1.0000
  C   C13       1.0  0.8936940957521748  0.6237622024188311  0.8335312915710701  1.0000
  C   C14       1.0  0.35003674908832516  0.8762822314870673  0.66653327167257  1.0000
  C   C15       1.0  0.10628790998976012  0.3762334343309917  0.1664666872684393  1.0000
  C   C16       1.0  0.6500056896702306  0.12371339181014207  0.3334634917106314  1.0000
  C   C17       1.0  0.33344628778153396  0.09260929182038069  0.8135992859037486  1.0000
  C   C18       1.0  0.24203255218116504  0.4073258743224955  0.686212853461015  1.0000
  C   C19       1.0  0.6665472935140928  0.9073839608449318  0.1864032452671935  1.0000
  C   C20       1.0  0.7579331300630013  0.5926847414483447  0.31378555803544833  1.0000
  S   S1        1.0  0.9634459564490147  0.8618184116138107  0.027678478329178826  1.0000
  S   S2        1.0  0.8526881680950712  0.638469863073432  0.4721729449337034  1.0000
  S   S3        1.0  0.03654575532788594  0.13816065389558216  0.9723240942823566  1.0000
  S   S4        1.0  0.14726200137194922  0.3615502233194333  0.5278232900449497  1.0000
  S   S5        1.0  0.07687549497962502  0.7549126738469097  0.931530997645943  1.0000
  S   S6        1.0  0.762634028871233  0.744996187152566  0.5684498116780006  1.0000
  S   S7        1.0  0.9231229959756183  0.24506481662719887  0.0684706269300293  1.0000
  S   S8        1.0  0.23739003201905728  0.2549978494073386  0.4315514043858713  1.0000
  S   S9        1.0  0.6795915967533195  0.9588580780959362  0.9175650708844783  1.0000
  S   S10       1.0  0.5567549636247838  0.5411946878465201  0.582316766389539  1.0000
  S   S11       1.0  0.32037617203791774  0.04112097094027689  0.08244415132101321  1.0000
  S   S12       1.0  0.44325787043000303  0.4588064551693805  0.4176817962364936  1.0000
  S   S13       1.0  0.03583585634245172  0.7513297340151721  0.8095672987047352  1.0000
  S   S14       1.0  0.596652745567724  0.7485565220083997  0.690373225681931  1.0000
  S   S15       1.0  0.9641895309485168  0.24866035797086283  0.190434821456428  1.0000
  S   S16       1.0  0.4034092820246047  0.25144618557044396  0.30962459699659206  1.0000
  S   S17       1.0  0.5630784163280325  0.9764932793902545  0.7956686177903406  1.0000
  S   S18       1.0  0.33630358884579464  0.5233321095619132  0.7042213887458715  1.0000
  S   S19       1.0  0.43691208568968426  0.023496812937835898  0.2043363041100292  1.0000
  S   S20       1.0  0.6636908327593646  0.476677713632867  0.295775873523624  1.0000
  Br  Br1       1.0  0.2804459988605857  0.6703511860769423  0.17646618720320356  1.0000
  Br  Br2       1.0  0.12522209836122053  0.8301208194553169  0.323488813891032  1.0000
  Br  Br3       1.0  0.719423660775789  0.32970437126871127  0.8235361553007577  1.0000
  Br  Br4       1.0  0.8748496746569572  0.1699307811204207  0.6765012002056424  1.0000
  Br  Br5       1.0  0.6452834423160144  0.5689579546682848  0.04187397832094323  1.0000
  Br  Br6       1.0  0.2494005657939267  0.9304271639706768  0.45824498433815114  1.0000
  Br  Br7       1.0  0.35466350594447954  0.43104083226163686  0.9581276518942516  1.0000
  Br  Br8       1.0  0.750709075865359  0.0695881946357204  0.541737604622746  1.0000
