data_image0
_chemical_formula_structural       Ag8H8C8N32
_chemical_formula_sum              "Ag8 H8 C8 N32"
_cell_length_a       5.772348537617212
_cell_length_b       8.247216996497587
_cell_length_c       14.744463748079939
_cell_angle_alpha    90.00035371382593
_cell_angle_beta     89.99984177825411
_cell_angle_gamma    94.24575577141763

_space_group_name_H-M_alt    "P 1"
_space_group_IT_number       1

loop_
  _space_group_symop_operation_xyz
  'x, y, z'

loop_
  _atom_site_type_symbol
  _atom_site_label
  _atom_site_symmetry_multiplicity
  _atom_site_fract_x
  _atom_site_fract_y
  _atom_site_fract_z
  _atom_site_occupancy
  Ag  Ag1       1.0  0.9067287853407251  0.36238051613780436  0.6097239041127906  1.0000
  Ag  Ag2       1.0  0.4067344326768421  0.8623806150502062  0.8902764422828254  1.0000
  Ag  Ag3       1.0  0.09326617251590359  0.6376196432796204  0.39027906344473  1.0000
  Ag  Ag4       1.0  0.5932637307222633  0.13761711128218218  0.109723134165435  1.0000
  Ag  Ag5       1.0  0.23953734258456189  0.956958962373811  0.5867464982372468  1.0000
  Ag  Ag6       1.0  0.7395319397554514  0.4569487416134734  0.9132543559364237  1.0000
  Ag  Ag7       1.0  0.76046294180923  0.043042410914146984  0.4132571475401576  1.0000
  Ag  Ag8       1.0  0.2604767471638709  0.5430501965822784  0.08674454228757608  1.0000
  H   H1        1.0  0.8986350311801132  0.7696435131252812  0.7513445474480419  1.0000
  H   H2        1.0  0.3986329002692982  0.26964062874773026  0.7486541307442207  1.0000
  H   H3        1.0  0.1013588421588096  0.23036272627820858  0.2486557072379156  1.0000
  H   H4        1.0  0.6013709783453365  0.7303619590592092  0.2513468021506782  1.0000
  H   H5        1.0  0.5758620089939724  0.4092462737065715  0.3479811759610313  1.0000
  H   H6        1.0  0.07585893047627218  0.9092462540892255  0.1520179099610814  1.0000
  H   H7        1.0  0.4241412218200366  0.5907502347663964  0.6520197569237141  1.0000
  H   H8        1.0  0.9241426975815442  0.09075147089899359  0.847979631823307  1.0000
  C   C1        1.0  0.8273573839087262  0.881887771888067  0.7293053212687466  1.0000
  C   C2        1.0  0.3273553817815724  0.38188755552354087  0.7706945002135085  1.0000
  C   C3        1.0  0.17264168641124664  0.11811846551189119  0.2706942551937246  1.0000
  C   C4        1.0  0.6726487559573258  0.618117464009714  0.229305076244124  1.0000
  C   C5        1.0  0.46807103628005814  0.3572930158354453  0.40206856426551946  1.0000
  C   C6        1.0  0.9680691365804819  0.8572966892499422  0.09792923949696329  1.0000
  C   C7        1.0  0.5319305917657217  0.6427047091745873  0.5979330468428543  1.0000
  C   C8        1.0  0.03193288016171889  0.14270468333138805  0.9020669458521907  1.0000
  N   N1        1.0  0.9274713394309088  0.9824769571037422  0.6667741738934083  1.0000
  N   N2        1.0  0.4274669760664551  0.48247498004377576  0.8332258869180577  1.0000
  N   N3        1.0  0.07252721264455178  0.017524416836309297  0.3332267590022724  1.0000
  N   N4        1.0  0.5725327900948541  0.5175215297624618  0.16677504596856346  1.0000
  N   N5        1.0  0.7881236460871079  0.10693923525258948  0.6598155486847759  1.0000
  N   N6        1.0  0.2881209280183015  0.6069388004862191  0.8401847214104592  1.0000
  N   N7        1.0  0.2118783706470637  0.8930621373432855  0.3401833495470399  1.0000
  N   N8        1.0  0.7118825619159564  0.39306013972034026  0.1598162114783435  1.0000
  N   N9        1.0  0.6115767184541027  0.08190365978224183  0.715965489744562  1.0000
  N   N10       1.0  0.11157632388708548  0.5819050541197585  0.7840342066332865  1.0000
  N   N11       1.0  0.38842170406925897  0.9180964982764691  0.2840327302664321  1.0000
  N   N12       1.0  0.8884272956093043  0.41809510194995875  0.2159660480368828  1.0000
  N   N13       1.0  0.632814247903802  0.9411475486943742  0.7609641913224721  1.0000
  N   N14       1.0  0.1328107006699  0.4411469935972292  0.7390360454765599  1.0000
  N   N15       1.0  0.3671825718473158  0.05885382590867749  0.23903606335348823  1.0000
  N   N16       1.0  0.867189324613669  0.5588519479389618  0.2609642091934532  1.0000
  N   N17       1.0  0.5062882180425134  0.21902638544215589  0.4452655352095576  1.0000
  N   N18       1.0  0.006289438609286409  0.7190277532771603  0.05473296855341659  1.0000
  N   N19       1.0  0.4937134100032664  0.7809713395678769  0.5547360758988162  1.0000
  N   N20       1.0  0.993712319006647  0.28097118758148554  0.9452652514536694  1.0000
  N   N21       1.0  0.3371047185594164  0.19911918046012284  0.5080979893547237  1.0000
  N   N22       1.0  0.8371079846274797  0.6991161313374901  0.9919005116650935  1.0000
  N   N23       1.0  0.6628953067221417  0.800879761079706  0.4919029435359619  1.0000
  N   N24       1.0  0.1628935138662015  0.3008803777912091  0.0080983865585935  1.0000
  N   N25       1.0  0.20285449591879254  0.3210542987035225  0.5026630122983278  1.0000
  N   N26       1.0  0.7028540060734513  0.8210488774460882  0.9973353771956397  1.0000
  N   N27       1.0  0.7971455293627656  0.6789446428362993  0.4973379205923507  1.0000
  N   N28       1.0  0.2971455009756312  0.17894520061201996  0.0026628428042627995  1.0000
  N   N29       1.0  0.28171435426857977  0.42303170694759723  0.4361432630932285  1.0000
  N   N30       1.0  0.7817106646304454  0.9230325839932262  0.0638542912957405  1.0000
  N   N31       1.0  0.7182872737792039  0.5769660180588048  0.5638576697944868  1.0000
  N   N32       1.0  0.21828762833880686  0.07696635818778219  0.9361418940512252  1.0000
