data_image0
_chemical_formula_structural       Cu2H8C12N4Cl2
_chemical_formula_sum              "Cu2 H8 C12 N4 Cl2"
_cell_length_a       7.3183264313385825
_cell_length_b       7.325024815511993
_cell_length_c       8.195641173998794
_cell_angle_alpha    102.98359940303696
_cell_angle_beta     111.06114785593591
_cell_angle_gamma    110.16328889678147

_space_group_name_H-M_alt    "P 1"
_space_group_IT_number       1

loop_
  _space_group_symop_operation_xyz
  'x, y, z'

loop_
  _atom_site_type_symbol
  _atom_site_label
  _atom_site_symmetry_multiplicity
  _atom_site_fract_x
  _atom_site_fract_y
  _atom_site_fract_z
  _atom_site_occupancy
  Cu  Cu1       1.0  0.15315542515602223  0.0158269322795022  0.42913414842485736  1.0000
  Cu  Cu2       1.0  0.9131464814565504  0.2759073765378375  0.929172930222826  1.0000
  H   H1        1.0  0.6199628025277518  0.46988690863538807  0.5625604918055485  1.0000
  H   H2        1.0  0.5920522486412878  0.9416730000070218  0.06190563689886368  1.0000
  H   H3        1.0  0.40998509169029507  0.19623671843501  0.23011196346147492  1.0000
  H   H4        1.0  0.534261385646765  0.8195586622942344  0.7295490090780415  1.0000
  H   H5        1.0  0.5141204381316271  0.2842521617275367  0.9833878114125691  1.0000
  H   H6        1.0  0.2000825288376049  0.46931235910669505  0.4829967643952741  1.0000
  H   H7        1.0  0.8235653928218553  0.6402518681862475  0.08533918492494762  1.0000
  H   H8        1.0  0.9456557947676885  0.2618296771760313  0.5850612964911546  1.0000
  C   C1        1.0  0.44067834367517367  0.12704874988548204  0.6169101360053941  1.0000
  C   C2        1.0  0.9895797341367538  0.1768085224081375  0.11761955404674737  1.0000
  C   C3        1.0  0.8296721424255651  0.6950747891716276  0.49444672758428226  1.0000
  C   C4        1.0  0.29892192937720097  0.6642498589292956  0.9940383920675013  1.0000
  C   C5        1.0  0.6595954066811629  0.50119664222035  0.4526417038400011  1.0000
  C   C6        1.0  0.4511785750079582  0.7923412842070335  0.9521186441904702  1.0000
  C   C7        1.0  0.5443577039353755  0.34888598427379963  0.2669899503815572  1.0000
  C   C8        1.0  0.4184722722228356  0.722017329888132  0.7665620346853073  1.0000
  C   C9        1.0  0.6010684259900428  0.39677194290073464  0.13086046058186432  1.0000
  C   C10       1.0  0.23477470885294585  0.5295982891399191  0.6305537355043922  1.0000
  C   C11       1.0  0.7736456091991925  0.5943814881313969  0.1863547395114224  1.0000
  C   C12       1.0  0.09242061655583454  0.4125768594803034  0.6861233027950531  1.0000
  N   N1        1.0  0.6267024248983404  0.19935701312849838  0.734117891998174  1.0000
  N   N2        1.0  0.034525969597496  0.10792711624737453  0.234802034549311  1.0000
  N   N3        1.0  0.8897193904740701  0.7433064771519824  0.36699797464007833  1.0000
  N   N4        1.0  0.12356748827104266  0.47695224456016666  0.8666870869519198  1.0000
  Cl  Cl1       1.0  0.9728382257077611  0.8893449009422056  0.7231300501179374  1.0000
  Cl  Cl2       1.0  0.3328479845943093  0.7497165013053079  0.2226823834930514  1.0000
