data_image0
_chemical_formula_structural       Ba2H12C12N2Cl2O8
_chemical_formula_sum              "Ba2 H12 C12 N2 Cl2 O8"
_cell_length_a       5.769527704747636
_cell_length_b       6.8110337519291795
_cell_length_c       11.498499682942088
_cell_angle_alpha    105.27245681731708
_cell_angle_beta     100.24803885405099
_cell_angle_gamma    94.62713330046181

_space_group_name_H-M_alt    "P 1"
_space_group_IT_number       1

loop_
  _space_group_symop_operation_xyz
  'x, y, z'

loop_
  _atom_site_type_symbol
  _atom_site_label
  _atom_site_symmetry_multiplicity
  _atom_site_fract_x
  _atom_site_fract_y
  _atom_site_fract_z
  _atom_site_occupancy
  Ba  Ba1       1.0  0.7824357969122174  0.8172108684385219  0.09125122055154108  1.0000
  Ba  Ba2       1.0  0.21757398311184054  0.18278439416756945  0.9087483586554369  1.0000
  H   H1        1.0  0.5126099469080572  0.297511549777937  0.6852391765344308  1.0000
  H   H2        1.0  0.4873791197301571  0.7024866530043  0.31475642278913796  1.0000
  H   H3        1.0  0.8379144426293548  0.3915489134081653  0.5835229450492105  1.0000
  H   H4        1.0  0.1620750647635204  0.6084522680927051  0.4164801287636947  1.0000
  H   H5        1.0  0.7452038241887777  0.3132568439528923  0.35181853895041826  1.0000
  H   H6        1.0  0.2548053056736066  0.6867460604601945  0.6481839472574505  1.0000
  H   H7        1.0  0.152491105663394  0.1173002418733944  0.5644772376320546  1.0000
  H   H8        1.0  0.847493559163041  0.8827040044373501  0.43552328783579236  1.0000
  H   H9        1.0  0.7355342956338689  0.38355630435400184  0.18550080896348217  1.0000
  H   H10       1.0  0.26445784635439645  0.616438750150628  0.8145023863662145  1.0000
  H   H11       1.0  0.9939819592320306  0.4755989914303314  0.18967632017336197  1.0000
  H   H12       1.0  0.006012393255303962  0.5243991716736857  0.8103258308373569  1.0000
  C   C1        1.0  0.38922896012905994  0.17522862487707866  0.32950580719804623  1.0000
  C   C2        1.0  0.6107792991943198  0.8247804319836973  0.6704958487660377  1.0000
  C   C3        1.0  0.21082090391667657  0.10926472325316888  0.3899437853647072  1.0000
  C   C4        1.0  0.7891688270135474  0.8907380056232983  0.6100586867587977  1.0000
  C   C5        1.0  0.4882454019008975  0.26489189754880016  0.5854049376409449  1.0000
  C   C6        1.0  0.5117284352315536  0.7350983763471245  0.41459847215877227  1.0000
  C   C7        1.0  0.6648074913967861  0.3161705516604697  0.5283818817344396  1.0000
  C   C8        1.0  0.33521420723759837  0.6838340202720731  0.47161938062912867  1.0000
  C   C9        1.0  0.61128478061012  0.2703562376474834  0.3996919997645491  1.0000
  C   C10       1.0  0.3887113390936036  0.7296420089242587  0.6003051035851001  1.0000
  C   C11       1.0  0.3422860155498952  0.15114992647196598  0.1939178904175449  1.0000
  C   C12       1.0  0.657762134450152  0.8488548531834539  0.8060857578432772  1.0000
  N   N1        1.0  0.27394611666764485  0.16782143403473526  0.5180374505787384  1.0000
  N   N2        1.0  0.7260619248064231  0.8321861798797413  0.4819569969934249  1.0000
  Cl  Cl1       1.0  0.2801941498874854  0.6312105642138023  0.1029133660779564  1.0000
  Cl  Cl2       1.0  0.7198068334650429  0.3687969130851201  0.897086519762638  1.0000
  O   O1        1.0  0.5209768410030121  0.15574529716270288  0.14165921353576036  1.0000
  O   O2        1.0  0.47901398021154046  0.8442527570221401  0.8583486938630144  1.0000
  O   O3        1.0  0.1294365511047531  0.13600981122030475  0.1353967699660856  1.0000
  O   O4        1.0  0.8705487491210278  0.863974613778943  0.8645919364868603  1.0000
  O   O5        1.0  0.0112602117768148  0.0007416585895044008  0.3397865104166655  1.0000
  O   O6        1.0  0.988742313358756  0.9992643199917804  0.6602115328127026  1.0000
  O   O7        1.0  0.8496219519137823  0.511468096691594  0.2196964426393818  1.0000
  O   O8        1.0  0.15038365109984397  0.4885347800251125  0.780305725448855  1.0000
