data_image0
_chemical_formula_structural       Cu4H32C24N32O4
_chemical_formula_sum              "Cu4 H32 C24 N32 O4"
_cell_length_a       7.850940979186402
_cell_length_b       12.38452744360879
_cell_length_c       12.382192209882652
_cell_angle_alpha    90.00113318654785
_cell_angle_beta     89.99922427475191
_cell_angle_gamma    90.0000858513613

_space_group_name_H-M_alt    "P 1"
_space_group_IT_number       1

loop_
  _space_group_symop_operation_xyz
  'x, y, z'

loop_
  _atom_site_type_symbol
  _atom_site_label
  _atom_site_symmetry_multiplicity
  _atom_site_fract_x
  _atom_site_fract_y
  _atom_site_fract_z
  _atom_site_occupancy
  Cu  Cu1       1.0  0.030224932342648  0.6767639277507344  0.9901696761235994  1.0000
  Cu  Cu2       1.0  0.780150308026478  0.010103538124219802  0.6768542393062871  1.0000
  Cu  Cu3       1.0  0.5302297074962752  0.3232415922718631  0.0098335634505631  1.0000
  Cu  Cu4       1.0  0.2801399579789389  0.9898933407979769  0.32314521441001176  1.0000
  H   H1        1.0  0.18839444147156567  0.9070456282453278  0.9011191843724827  1.0000
  H   H2        1.0  0.936922820522625  0.09873018357816932  0.9070269240125979  1.0000
  H   H3        1.0  0.6883955276361249  0.09296165925386647  0.09888833480459165  1.0000
  H   H4        1.0  0.4369298587330518  0.9012684614838162  0.0929768213480529  1.0000
  H   H5        1.0  0.1435515793800874  0.9530807796181474  0.769346722442293  1.0000
  H   H6        1.0  0.8919317024807399  0.23046111800169913  0.9530921555095588  1.0000
  H   H7        1.0  0.6435548726095632  0.04692081238346899  0.2306563404629216  1.0000
  H   H8        1.0  0.3919343113244266  0.7695390985169794  0.0469039045217983  1.0000
  H   H9        1.0  0.1913145457219656  0.7650543476025858  0.6975471914415293  1.0000
  H   H10       1.0  0.9402782921518947  0.302386936998488  0.7651970112163652  1.0000
  H   H11       1.0  0.6913384148344194  0.23494809798417288  0.30246191745033  1.0000
  H   H12       1.0  0.4402703998178126  0.6976052515385331  0.23479862888848393  1.0000
  H   H13       1.0  0.3745085015144909  0.821779915161635  0.7649518223837931  1.0000
  H   H14       1.0  0.12325962666533738  0.2347971215204794  0.8219814353619198  1.0000
  H   H15       1.0  0.8745247450570943  0.17822674420573748  0.23504115852777113  1.0000
  H   H16       1.0  0.6232555127143726  0.7651955687978927  0.1780153428326443  1.0000
  H   H17       1.0  0.48788119520023787  0.6372843433873853  0.8372315363528173  1.0000
  H   H18       1.0  0.2371599350753043  0.16266099200515782  0.637791518140645  1.0000
  H   H19       1.0  0.9878841087123788  0.36271677304744526  0.16275803707961242  1.0000
  H   H20       1.0  0.7371508283806419  0.8373334230736802  0.3622066936966987  1.0000
  H   H21       1.0  0.3480048257657414  0.6081153373876448  0.7268265266645526  1.0000
  H   H22       1.0  0.09753634798462227  0.2730806710291843  0.6082209086236218  1.0000
  H   H23       1.0  0.8480156671443737  0.3918864516758518  0.27316749201956714  1.0000
  H   H24       1.0  0.5975327288812693  0.7269144169128765  0.3917809386691573  1.0000
  H   H25       1.0  0.17112535885768657  0.4904638975614971  0.8376465721302679  1.0000
  H   H26       1.0  0.9212170731184202  0.16215035622916218  0.490254085879222  1.0000
  H   H27       1.0  0.6711273490731955  0.509536106035455  0.1623489827822411  1.0000
  H   H28       1.0  0.4212062525598269  0.8378482736730389  0.5097489883526549  1.0000
  H   H29       1.0  0.3867121905429656  0.4466504734983446  0.8389535331564275  1.0000
  H   H30       1.0  0.13703636952705978  0.1608083597977981  0.4468984352901301  1.0000
  H   H31       1.0  0.8867130365323419  0.5533513529531361  0.1610474178988426  1.0000
  H   H32       1.0  0.6370257862377144  0.8391891885875891  0.5531014537745591  1.0000
  C   C1        1.0  0.9520525551977811  0.8532233701880471  0.837491707144629  1.0000
  C   C2        1.0  0.7006396856755686  0.1623387452026819  0.8530324863187387  1.0000
  C   C3        1.0  0.45205127485854746  0.14678336412112  0.1625191754325002  1.0000
  C   C4        1.0  0.20063906780326585  0.8376612868741518  0.1469652351061725  1.0000
  C   C5        1.0  0.1345609290067387  0.882530367224831  0.8227138348955377  1.0000
  C   C6        1.0  0.88312070258209  0.17711562705682132  0.8825056192962036  1.0000
  C   C7        1.0  0.6345680600624064  0.1174712161499372  0.1772933441343696  1.0000
  C   C8        1.0  0.38312194598149313  0.8228821586282677  0.1174945552982152  1.0000
  C   C9        1.0  0.2434030488965391  0.7919273868864066  0.775789434304528  1.0000
  C   C10       1.0  0.9921863453745272  0.22409921798703183  0.792026478601251  1.0000
  C   C11       1.0  0.7434144955945072  0.2080751088532651  0.2242127613588707  1.0000
  C   C12       1.0  0.4921830225835038  0.7758946355751918  0.2079743639560476  1.0000
  C   C13       1.0  0.35576857629073527  0.6167641038041579  0.8153351383180336  1.0000
  C   C14       1.0  0.1051810964541176  0.18458566050131253  0.6169413961015877  1.0000
  C   C15       1.0  0.8557748966391614  0.38323930766910763  0.1846596205846112  1.0000
  C   C16       1.0  0.60517404621023  0.8154070123846608  0.3830555391185513  1.0000
  C   C17       1.0  0.29981155976823004  0.5103883022641256  0.8667864460989135  1.0000
  C   C18       1.0  0.049796442112402396  0.1330283144272641  0.510484210388789  1.0000
  C   C19       1.0  0.7998153922495347  0.4896134403608555  0.1332112216220125  1.0000
  C   C20       1.0  0.5497885390780227  0.8669651125085879  0.48951239824975795  1.0000
  C   C21       1.0  0.2983939023401376  0.5122070811838738  0.9870381974703193  1.0000
  C   C22       1.0  0.0483620585441287  0.012792013467681301  0.5124414852348806  1.0000
  C   C23       1.0  0.798404089418838  0.48779950484017576  0.0129602901947692  1.0000
  C   C24       1.0  0.5483557503753289  0.9872006046587245  0.4875583662921769  1.0000
  N   N1        1.0  0.8932919444495935  0.7747825563055811  0.9023189639326361  1.0000
  N   N2        1.0  0.6419735817487008  0.09709766688928309  0.7748472329799441  1.0000
  N   N3        1.0  0.3933011307773455  0.22522573633489884  0.09769888984495619  1.0000
  N   N4        1.0  0.14196637085643718  0.9028990787989531  0.2251526131822104  1.0000
  N   N5        1.0  0.7215469974761675  0.7739014680172358  0.8954873082983356  1.0000
  N   N6        1.0  0.4705673984180621  0.10431383410102768  0.7735760606742943  1.0000
  N   N7        1.0  0.22155476801088267  0.22610181420243688  0.1045247685469803  1.0000
  N   N8        1.0  0.9705612929594095  0.8956824209607605  0.2264217392348087  1.0000
  N   N9        1.0  0.6750399898062794  0.849722006540908  0.8286713357631041  1.0000
  N   N10       1.0  0.4239391491804553  0.17175758302253993  0.849011876109401  1.0000
  N   N11       1.0  0.1750436264849569  0.15027234868907868  0.17133145359052548  1.0000
  N   N12       1.0  0.9239382998679132  0.8282410494291806  0.15098309832349338  1.0000
  N   N13       1.0  0.8168552956849736  0.9001305678712156  0.790816855343465  1.0000
  N   N14       1.0  0.5654121486020998  0.2095730767213055  0.8994348555972279  1.0000
  N   N15       1.0  0.316861837449231  0.09986715390056841  0.20918147191160588  1.0000
  N   N16       1.0  0.0654149474975725  0.7904276323924648  0.10056000222075309  1.0000
  N   N17       1.0  0.20342291168849158  0.5782220738920641  0.04840498832306389  1.0000
  N   N18       1.0  0.9531724664222522  0.9515491472728356  0.5784496921768323  1.0000
  N   N19       1.0  0.7034335171705023  0.42178603544923726  0.9515910937376686  1.0000
  N   N20       1.0  0.4531527534215697  0.0484478985734853  0.42155875782373187  1.0000
  N   N21       1.0  0.23622166712906528  0.5547446375783238  0.15333675965270288  1.0000
  N   N22       1.0  0.9858489288842023  0.8466034661036232  0.5550657385554203  1.0000
  N   N23       1.0  0.7362370890831329  0.4452683481361816  0.8466582299649588  1.0000
  N   N24       1.0  0.4858378828584762  0.1533936112209844  0.4449391971652688  1.0000
  N   N25       1.0  0.34762984418692594  0.47649950862084  0.1565045692987255  1.0000
  N   N26       1.0  0.0974161189073897  0.8433320553119259  0.4769016612063766  1.0000
  N   N27       1.0  0.8476442413502241  0.5235135845508408  0.8434934907956516  1.0000
  N   N28       1.0  0.5974262336552841  0.1566638398761668  0.5230896881302982  1.0000
  N   N29       1.0  0.3885559275715592  0.4488858311088392  0.05368387643642339  1.0000
  N   N30       1.0  0.1385861177033902  0.9460971276081622  0.4492369614806364  1.0000
  N   N31       1.0  0.8885643980061175  0.5511216493141119  0.9463146357944009  1.0000
  N   N32       1.0  0.6386005044033212  0.053897192343086396  0.5507524150354044  1.0000
  O   O1        1.0  0.24407214776020678  0.7021814561197316  0.8497205249025086  1.0000
  O   O2        1.0  0.9929527211336762  0.15031029017947617  0.7021515147503549  1.0000
  O   O3        1.0  0.7440713524459425  0.29782023279203423  0.1502808573834855  1.0000
  O   O4        1.0  0.4929463997379742  0.8496803342995988  0.29785093635488374  1.0000
