data_image0
_chemical_formula_structural       Zn2Cd2H20C28N12
_chemical_formula_sum              "Zn2 Cd2 H20 C28 N12"
_cell_length_a       8.356692327729005
_cell_length_b       8.356749232989996
_cell_length_c       13.920181689064064
_cell_angle_alpha    89.99986258249965
_cell_angle_beta     90.00034795106673
_cell_angle_gamma    110.67705720886408

_space_group_name_H-M_alt    "P 1"
_space_group_IT_number       1

loop_
  _space_group_symop_operation_xyz
  'x, y, z'

loop_
  _atom_site_type_symbol
  _atom_site_label
  _atom_site_symmetry_multiplicity
  _atom_site_fract_x
  _atom_site_fract_y
  _atom_site_fract_z
  _atom_site_occupancy
  Zn  Zn1       1.0  0.5000032259542522  0.4999969271811437  0.7500001020721498  1.0000
  Zn  Zn2       1.0  0.5000047844915941  0.49999830344449947  0.2499994443598865  1.0000
  Cd  Cd1       1.0  0.49999912061289103  0.9999964067435199  0.4999994123649785  1.0000
  Cd  Cd2       1.0  2.0997063928066162e-06  0.4999991797560881  0.9999995178268151  1.0000
  H   H1        1.0  0.8065923488858431  0.1630517807338947  0.6484469145613828  1.0000
  H   H2        1.0  0.193405377878605  0.8369472987876632  0.6484460268013947  1.0000
  H   H3        1.0  0.8369482657088271  0.19341388658329348  0.8515491821771944  1.0000
  H   H4        1.0  0.16304789560453511  0.8065851181741479  0.8515496641292799  1.0000
  H   H5        1.0  0.19340840333133966  0.8369499053399705  0.35155191347131165  1.0000
  H   H6        1.0  0.8065875698071778  0.163049309044446  0.3515535196021417  1.0000
  H   H7        1.0  0.1630453227564601  0.8065878448155743  0.1484482090795254  1.0000
  H   H8        1.0  0.8369484518289454  0.19340762243345463  0.14844557199469213  1.0000
  H   H9        1.0  0.2826155975755428  0.41941377621534315  0.5000001527595259  1.0000
  H   H10       1.0  0.717380196715638  0.5805840955114049  0.5000001120297242  1.0000
  H   H11       1.0  0.5805822418959821  0.7173891339567574  0.9999989844306327  1.0000
  H   H12       1.0  0.41940970003572176  0.2826072718011118  0.9999997222551542  1.0000
  H   H13       1.0  0.12082592722958914  0.3327742973897259  0.655396598427636  1.0000
  H   H14       1.0  0.8791784790837553  0.6672298645950574  0.6553905581429404  1.0000
  H   H15       1.0  0.6672243625154549  0.8791750410280768  0.8446030656775605  1.0000
  H   H16       1.0  0.3327703537871615  0.12082013005168327  0.8446058757183293  1.0000
  H   H17       1.0  0.8791694083497176  0.6672222953351931  0.34459863769170335  1.0000
  H   H18       1.0  0.12082153784861296  0.3327731080366333  0.3446053963617715  1.0000
  H   H19       1.0  0.33277446049511644  0.12082793915600117  0.1554000726392459  1.0000
  H   H20       1.0  0.6672216765426242  0.8791739197734997  0.15539726259251543  1.0000
  C   C1        1.0  0.4696102000231194  0.2954561723336154  0.6683173522914316  1.0000
  C   C2        1.0  0.5303933227362093  0.704551835569475  0.6683157312919548  1.0000
  C   C3        1.0  0.704542962528798  0.5303991832775166  0.8316897609853058  1.0000
  C   C4        1.0  0.29545354790489137  0.46961136469705167  0.831685465869846  1.0000
  C   C5        1.0  0.5303998272736763  0.7045480188673565  0.3316821941378194  1.0000
  C   C6        1.0  0.4696146808451047  0.2954600598664854  0.331682378365187  1.0000
  C   C7        1.0  0.29546210687766467  0.4696011935746256  0.1683184060147838  1.0000
  C   C8        1.0  0.7045392107988137  0.5303980633828544  0.1683097702355241  1.0000
  C   C9        1.0  0.8822998407937348  0.2039026997936801  0.5831008934999601  1.0000
  C   C10       1.0  0.117698431177608  0.7960964035191366  0.5831019433346539  1.0000
  C   C11       1.0  0.7960966382401296  0.1176951045282237  0.9168960104373836  1.0000
  C   C12       1.0  0.20389998974548013  0.8823000243194344  0.9168979690718756  1.0000
  C   C13       1.0  0.11770146459426903  0.7960938551596611  0.41689865291887424  1.0000
  C   C14       1.0  0.8822994744519975  0.203904018659216  0.41689975821946484  1.0000
  C   C15       1.0  0.20390641426902784  0.8822963117508279  0.08310281760692108  1.0000
  C   C16       1.0  0.79609148739209  0.11769915662730308  0.0831001405642624  1.0000
  C   C17       1.0  0.14582384170937956  0.3462992244701296  0.4999992373350893  1.0000
  C   C18       1.0  0.8541745226107126  0.6537024767110894  0.5000031826003735  1.0000
  C   C19       1.0  0.6537069112825761  0.8541672401248943  0.9999990192598744  1.0000
  C   C20       1.0  0.3462898064682706  0.14582913541704556  0.9999975322903722  1.0000
  C   C21       1.0  0.05678058524252091  0.2981835137065048  0.5863090461180605  1.0000
  C   C22       1.0  0.9432232296777913  0.7018142712939124  0.5863096552612461  1.0000
  C   C23       1.0  0.7018147664580923  0.9432091052689628  0.9136955716178007  1.0000
  C   C24       1.0  0.29819248086921146  0.0567923672513118  0.9136933190940723  1.0000
  C   C25       1.0  0.943222831476767  0.7018155916987823  0.413690500302792  1.0000
  C   C26       1.0  0.056778716514678265  0.2981874072249794  0.41369276468076777  1.0000
  C   C27       1.0  0.2981991193089756  0.05679249770881969  0.08630684834607648  1.0000
  C   C28       1.0  0.7018047771163651  0.9432195961706069  0.0863091008319685  1.0000
  N   N1        1.0  0.46082505637638604  0.17821103733942315  0.6201657505050733  1.0000
  N   N2        1.0  0.539180747297749  0.821788002870278  0.6201618372304195  1.0000
  N   N3        1.0  0.8217864547853607  0.5391844982586419  0.8798351736791047  1.0000
  N   N4        1.0  0.17821733319354385  0.4608182921692147  0.8798340549506207  1.0000
  N   N5        1.0  0.5391814835426344  0.8217867663998105  0.3798366694481316  1.0000
  N   N6        1.0  0.4608281805183623  0.17820978576160224  0.37983699082001715  1.0000
  N   N7        1.0  0.178217420645808  0.46081588614847385  0.1201694014116583  1.0000
  N   N8        1.0  0.8217862656361705  0.5391846577989413  0.12016692823064548  1.0000
  N   N9        1.0  0.7965195643813983  0.15777384304736589  0.5000005616900722  1.0000
  N   N10       1.0  0.20347384200556445  0.8422240437870838  0.500001858239095  1.0000
  N   N11       1.0  0.8422261734685109  0.20348464718652076  6.728378280999999e-07  1.0000
  N   N12       1.0  0.1577739318655133  0.7965159695123132  4.316733637000001e-07  1.0000
