data_image0
_chemical_formula_structural       Cu4H24C24O8
_chemical_formula_sum              "Cu4 H24 C24 O8"
_cell_length_a       6.581904793242683
_cell_length_b       9.793721078390845
_cell_length_c       10.847111784544056
_cell_angle_alpha    116.81390027095259
_cell_angle_beta     103.7441034378272
_cell_angle_gamma    90.00085669380123

_space_group_name_H-M_alt    "P 1"
_space_group_IT_number       1

loop_
  _space_group_symop_operation_xyz
  'x, y, z'

loop_
  _atom_site_type_symbol
  _atom_site_label
  _atom_site_symmetry_multiplicity
  _atom_site_fract_x
  _atom_site_fract_y
  _atom_site_fract_z
  _atom_site_occupancy
  Cu  Cu1       1.0  0.749987335557101  0.779202773189098  0.9999713632950812  1.0000
  Cu  Cu2       1.0  0.25000384325810626  0.22079316515888786  1.5181326730743961e-05  1.0000
  Cu  Cu3       1.0  2.4709934656624503e-05  0.9999895308027577  7.377438087936514e-06  1.0000
  Cu  Cu4       1.0  0.4999866646401755  2.5604431073000393e-06  1.5725132839353006e-07  1.0000
  H   H1        1.0  0.6036484590727225  0.7243203801055386  0.6111574215009411  1.0000
  H   H2        1.0  0.8965488349239407  0.1126503338577294  0.38847536371078917  1.0000
  H   H3        1.0  0.3963614826126757  0.2756846416251477  0.38884299526328175  1.0000
  H   H4        1.0  0.10344544190412815  0.8873453389311762  0.6115271892899866  1.0000
  H   H5        1.0  0.6655568477467283  0.7621219444544353  0.4788511906888643  1.0000
  H   H6        1.0  0.8348692870638883  0.2828087835549198  0.5208325215413793  1.0000
  H   H7        1.0  0.33445543273374767  0.23787844771695887  0.5211485490281118  1.0000
  H   H8        1.0  0.16513675545945006  0.7172009000573852  0.4791665173671048  1.0000
  H   H9        1.0  0.491582246007411  0.5970017613743435  0.42659564749182965  1.0000
  H   H10       1.0  0.00862575350581099  0.16980371673901118  0.5730417046263696  1.0000
  H   H11       1.0  0.5084314085464142  0.4030066696262509  0.5734094945750454  1.0000
  H   H12       1.0  0.9913630655409872  0.8301966657088043  0.42695650034083577  1.0000
  H   H13       1.0  0.44384572979505765  0.569842611190303  0.7810515980444205  1.0000
  H   H14       1.0  0.056058449754438265  0.7887851780673286  0.21919618337410893  1.0000
  H   H15       1.0  0.5561649763209572  0.4301485584221182  0.21894405961518965  1.0000
  H   H16       1.0  0.9439374049183938  0.21121061694879728  0.7807992717812056  1.0000
  H   H17       1.0  0.22986998723642668  0.6087610324463243  0.8610080097008035  1.0000
  H   H18       1.0  0.26990160944531977  0.7476649563803759  0.13917609972676792  1.0000
  H   H19       1.0  0.7701395381214977  0.39123235148852586  0.13899393576892283  1.0000
  H   H20       1.0  0.7300915058654665  0.2523422319771456  0.8608320224139729  1.0000
  H   H21       1.0  0.2808222289157171  0.41619663698563863  0.7646588665508317  1.0000
  H   H22       1.0  0.21915624281074023  0.6516455692171873  0.2357391707006896  1.0000
  H   H23       1.0  0.7191837856126708  0.5837945368640405  0.23533611804888466  1.0000
  H   H24       1.0  0.7808445160057856  0.3483697759594834  0.7642679290043829  1.0000
  C   C1        1.0  0.9250916543359647  0.7071965266812156  0.7694797583075182  1.0000
  C   C2        1.0  0.5749529198263585  0.9374317573202544  0.23050716819543723  1.0000
  C   C3        1.0  0.07494169283896916  0.2927988789728174  0.23054213264838805  1.0000
  C   C4        1.0  0.4250404115055416  0.06257675386164147  0.7694913961791838  1.0000
  C   C5        1.0  0.9599962500507574  0.5952685091541242  0.6288981292282685  1.0000
  C   C6        1.0  0.5401037779435283  0.9661828270879339  0.37110376819365587  1.0000
  C   C7        1.0  0.04000742393478158  0.40472727879989623  0.37109844769353356  1.0000
  C   C8        1.0  0.459879201980584  0.03382919880539249  0.6288920106548586  1.0000
  C   C9        1.0  0.8196083178717473  0.5791564130598843  0.5021095390025464  1.0000
  C   C10       1.0  0.6805139692960864  0.0768208829374828  0.49773842514667876  1.0000
  C   C11       1.0  0.1803934108945739  0.4208371788514923  0.4978793861276997  1.0000
  C   C12       1.0  0.31946877709863475  0.923171403098571  0.502257365510118  1.0000
  C   C13       1.0  0.6357265490388994  0.6697007040984317  0.5057806798439299  1.0000
  C   C14       1.0  0.8644975100442875  0.163431862327414  0.4938897424992134  1.0000
  C   C15       1.0  0.36427596692490727  0.3303066303341068  0.49421963566815197  1.0000
  C   C16       1.0  0.13549306441727532  0.8365696251629797  0.506111942902997  1.0000
  C   C17       1.0  0.13909080914823582  0.517613953879575  0.6297452237621923  1.0000
  C   C18       1.0  0.36092178666126523  0.8878936050441198  0.37036968471038983  1.0000
  C   C19       1.0  0.8609114942595041  0.48237382615515395  0.3702441202600254  1.0000
  C   C20       1.0  0.6390631524642811  0.11212074053148767  0.6296264237309186  1.0000
  C   C21       1.0  0.2797559707592541  0.5296034273394524  0.7664976442232925  1.0000
  C   C22       1.0  0.22016808366647914  0.763179971046341  0.23381365330974546  1.0000
  C   C23       1.0  0.7202500385257976  0.4703877001453663  0.23350008620095514  1.0000
  C   C24       1.0  0.7798293453860693  0.236834177770433  0.7661952332560915  1.0000
  O   O1        1.0  0.8065924373494154  0.6601375292158662  0.8239800767315584  1.0000
  O   O2        1.0  0.6933294836982425  0.8358135933927001  0.17597025001843747  1.0000
  O   O3        1.0  0.19339089943197504  0.33985821527981835  0.17601724469675153  1.0000
  O   O4        1.0  0.3066448582404248  0.1641752876107176  0.8240201422758202  1.0000
  O   O5        1.0  0.020364706214088788  0.8435457461808582  0.8260877824894449  1.0000
  O   O6        1.0  0.4799822111169049  0.017347586883445797  0.1739815051085429  1.0000
  O   O7        1.0  0.9796643569465643  0.1564520929898308  0.1739271337221453  1.0000
  O   O8        1.0  0.5200054446495769  0.9826551644363521  0.8260138349203243  1.0000
