data_image0
_chemical_formula_structural       Zn4H40C48N8O16
_chemical_formula_sum              "Zn4 H40 C48 N8 O16"
_cell_length_a       8.824977130006427
_cell_length_b       9.517191076458424
_cell_length_c       15.408247145304482
_cell_angle_alpha    91.70564450986491
_cell_angle_beta     89.99988469848596
_cell_angle_gamma    90.00007983030204

_space_group_name_H-M_alt    "P 1"
_space_group_IT_number       1

loop_
  _space_group_symop_operation_xyz
  'x, y, z'

loop_
  _atom_site_type_symbol
  _atom_site_label
  _atom_site_symmetry_multiplicity
  _atom_site_fract_x
  _atom_site_fract_y
  _atom_site_fract_z
  _atom_site_occupancy
  Zn  Zn1       1.0  0.914532381280402  0.24676761602292177  0.9215754583368463  1.0000
  Zn  Zn2       1.0  0.5854672511115095  0.2467649852300228  0.42157568285642083  1.0000
  Zn  Zn3       1.0  0.08546807220682238  0.753233236377824  0.07842397752930448  1.0000
  Zn  Zn4       1.0  0.4145332023707978  0.7532306103852167  0.5784243028758027  1.0000
  H   H1        1.0  0.7491746053512714  0.09957366442894511  0.7676837663751355  1.0000
  H   H2        1.0  0.7508253464000773  0.09957439166804251  0.2676838635411726  1.0000
  H   H3        1.0  0.250823581839235  0.9004261359674288  0.23231629865595235  1.0000
  H   H4        1.0  0.24917510708486654  0.9004264591180232  0.7323168703010905  1.0000
  H   H5        1.0  0.8087545611387199  0.009841339416816202  0.6165811885556561  1.0000
  H   H6        1.0  0.6912457865834013  0.009840940182435502  0.11658263118853536  1.0000
  H   H7        1.0  0.19124475920148143  0.9901584625949345  0.3834175784986868  1.0000
  H   H8        1.0  0.30875466689889214  0.9901578074050268  0.8834187119929875  1.0000
  H   H9        1.0  0.0746428718696635  0.04667637546686621  0.5593767504859951  1.0000
  H   H10       1.0  0.42535854018336744  0.04667626729862921  0.059376630635220785  1.0000
  H   H11       1.0  0.9253575816164243  0.9533244761265324  0.44062333436820456  1.0000
  H   H12       1.0  0.5746419133019599  0.9533235330991446  0.9406234343945878  1.0000
  H   H13       1.0  0.26270560960194433  0.17078382228616823  0.6538094398380208  1.0000
  H   H14       1.0  0.2372933909951982  0.1707813784009957  0.15381014180722014  1.0000
  H   H15       1.0  0.7372925775919654  0.8292191325044345  0.3461900356781981  1.0000
  H   H16       1.0  0.7627059293412087  0.8292163196048109  0.8461898835744317  1.0000
  H   H17       1.0  0.18535789191096794  0.24723362233370239  0.8051898227292038  1.0000
  H   H18       1.0  0.3146429580572701  0.24723232608374704  0.3051898081437584  1.0000
  H   H19       1.0  0.8146448278684132  0.7527682788420551  0.19481157992422735  1.0000
  H   H20       1.0  0.6853563622795065  0.7527674735059904  0.694810905874746  1.0000
  H   H21       1.0  0.7587431184699724  0.4182094222501932  0.7809078510229097  1.0000
  H   H22       1.0  0.7412583991620493  0.4182069840730592  0.2809078995256867  1.0000
  H   H23       1.0  0.24125733501686844  0.5817924805388374  0.21909225365568818  1.0000
  H   H24       1.0  0.258742054322525  0.5817917651290827  0.7190921456797239  1.0000
  H   H25       1.0  0.5054496731883589  0.5187058989664451  0.7505081980642455  1.0000
  H   H26       1.0  0.9945498361036017  0.5187048259577551  0.2505073312253855  1.0000
  H   H27       1.0  0.49455078029696864  0.48129390143132883  0.24949186696556314  1.0000
  H   H28       1.0  0.005449484236208901  0.4812960264422801  0.7494921046413976  1.0000
  H   H29       1.0  0.2910919561806935  0.47525478683691363  0.8576992523835186  1.0000
  H   H30       1.0  0.20890791906757036  0.4752575654488283  0.3576987875699088  1.0000
  H   H31       1.0  0.708907364158371  0.5247450143674968  0.14230016365887366  1.0000
  H   H32       1.0  0.7910925344204144  0.5247443381475423  0.6423006681206399  1.0000
  H   H33       1.0  0.34397900962390787  0.3230727393470972  0.9836674197955869  1.0000
  H   H34       1.0  0.1560224604387841  0.3230744005685794  0.4836676438982294  1.0000
  H   H35       1.0  0.6560214438614268  0.6769270610506767  0.016332645234221798  1.0000
  H   H36       1.0  0.8439802593421319  0.6769264510262191  0.5163324409546914  1.0000
  H   H37       1.0  0.6091360239955962  0.2324696278064593  0.003989176839333199  1.0000
  H   H38       1.0  0.8908661873027767  0.2324701277534445  0.5039882904231943  1.0000
  H   H39       1.0  0.3908644294893477  0.7675312229796065  0.9960115570029227  1.0000
  H   H40       1.0  0.1091365324788853  0.7675317750369928  0.49601181425412466  1.0000
  C   C1        1.0  0.8616939353728769  0.11195182356245686  0.7398211389648989  1.0000
  C   C2        1.0  0.638306132891067  0.11195030848647751  0.23982197259809365  1.0000
  C   C3        1.0  0.13830538496844716  0.8880511312288494  0.2601783365506875  1.0000
  C   C4        1.0  0.36169318744381934  0.8880484391002884  0.7601793705840618  1.0000
  C   C5        1.0  0.8952159458877348  0.0630125935455723  0.6559133749649744  1.0000
  C   C6        1.0  0.6047820773038167  0.0630099858267883  0.15591422664918744  1.0000
  C   C7        1.0  0.1047822413073121  0.9369903620523701  0.3440854515631883  1.0000
  C   C8        1.0  0.39521724302954914  0.9369866593687135  0.8440870768841787  1.0000
  C   C9        1.0  0.041093691131102617  0.0841613546676427  0.6239728763700538  1.0000
  C   C10       1.0  0.4589052840273878  0.08415603119190251  0.12397326848179084  1.0000
  C   C11       1.0  0.9589033629169064  0.91584370251352  0.37602663879559356  1.0000
  C   C12       1.0  0.5410940363044717  0.9158385116123282  0.8760279954027934  1.0000
  C   C13       1.0  0.14784746744659566  0.15272450617201375  0.6768921045891074  1.0000
  C   C14       1.0  0.3521536911798364  0.15272010190511762  0.17689263713786113  1.0000
  C   C15       1.0  0.8521529860406147  0.8472794982009476  0.3231086887263358  1.0000
  C   C16       1.0  0.647845629153913  0.8472754929020924  0.823107997583058  1.0000
  C   C17       1.0  0.1058438445977927  0.19576357492825033  0.7605237560799905  1.0000
  C   C18       1.0  0.39415595175526624  0.19576132417683575  0.26052492980931413  1.0000
  C   C19       1.0  0.8941554757420248  0.8042372774717921  0.23947567978679968  1.0000
  C   C20       1.0  0.605843368579613  0.8042374234099303  0.7394764133728484  1.0000
  C   C21       1.0  0.6637365504871153  0.4010864577983001  0.8245108255377571  1.0000
  C   C22       1.0  0.8362636550393816  0.4010830858888569  0.32451074687539  1.0000
  C   C23       1.0  0.33626390299897224  0.5989143937951057  0.17548925931644274  1.0000
  C   C24       1.0  0.16373566529739486  0.5989167137008807  0.6754899671431147  1.0000
  C   C25       1.0  0.5214756292224009  0.4578730962461679  0.8086110544492651  1.0000
  C   C26       1.0  0.9785235844295102  0.45787200423048097  0.3086095567291664  1.0000
  C   C27       1.0  0.47852482426178267  0.5421267033442663  0.19138965956859263  1.0000
  C   C28       1.0  0.021475735909916697  0.542129898557853  0.6913905479500781  1.0000
  C   C29       1.0  0.40425480709672007  0.43191643908740945  0.8668005906027783  1.0000
  C   C30       1.0  0.09574497099582399  0.43191697701049486  0.36679891601935555  1.0000
  C   C31       1.0  0.5957456463897512  0.5680833621176973  0.13319882543897416  1.0000
  C   C32       1.0  0.9042543493454999  0.568085977780811  0.633200559496224  1.0000
  C   C33       1.0  0.43343883097833924  0.3486731740071463  0.9380261501508043  1.0000
  C   C34       1.0  0.06656057165854891  0.3486736742328063  0.4380258065167622  1.0000
  C   C35       1.0  0.5665616225077484  0.6513276775862594  0.06197393470339558  1.0000
  C   C36       1.0  0.9334398818271553  0.6513282277488914  0.5619749471498918  1.0000
  C   C37       1.0  0.5791898580130663  0.2965692361724877  0.9492479497268388  1.0000
  C   C38       1.0  0.9208097520475887  0.2965701735769672  0.4492478548388091  1.0000
  C   C39       1.0  0.42081059547112426  0.7034305634179461  0.050752764291018986  1.0000
  C   C40       1.0  0.0791907014381152  0.7034317284047306  0.550752898827845  1.0000
  C   C41       1.0  0.9636356404475279  0.47701738458284393  0.04365873397129859  1.0000
  C   C42       1.0  0.5363724649773829  0.47700903909451153  0.543656142517605  1.0000
  C   C43       1.0  0.03637047877598581  0.5229855685979885  0.9563420395165492  1.0000
  C   C44       1.0  0.4636381868309058  0.5229792013869669  0.45634110848586557  1.0000
  C   C45       1.0  0.9150467307143516  0.9773010828415354  0.0008987726223424029  1.0000
  C   C46       1.0  0.5849486795694929  0.9773012029480347  0.5008995298139495  1.0000
  C   C47       1.0  0.0849491901870181  0.022701873562347402  0.9990994049190502  1.0000
  C   C48       1.0  0.4150461081764902  0.022698595831563802  0.49910183319516915  1.0000
  N   N1        1.0  0.9649326873478117  0.17619600156011475  0.791499149247471  1.0000
  N   N2        1.0  0.5350695622514579  0.1761975124301429  0.291500158995106  1.0000
  N   N3        1.0  0.035071165582039  0.8238038004544351  0.20849961780430695  1.0000
  N   N4        1.0  0.464930891233486  0.8238033383559228  0.708500574847157  1.0000
  N   N5        1.0  0.692680354301274  0.32214127707157303  0.893486871596586  1.0000
  N   N6        1.0  0.8073194901413315  0.3221399717676476  0.3934868652848562  1.0000
  N   N7        1.0  0.3073200991848068  0.6778595745218327  0.10651321325761387  1.0000
  N   N8        1.0  0.19268096334400298  0.6778598286301192  0.6065131997449453  1.0000
  O   O1        1.0  0.8193670391544432  0.06090859241024301  0.9689483791986218  1.0000
  O   O2        1.0  0.6806242152333509  0.06090187368274512  0.4689490658925306  1.0000
  O   O3        1.0  0.18062661545284442  0.9390985671600873  0.03105117561774049  1.0000
  O   O4        1.0  0.3193626404743313  0.9390874139429642  0.5310514498890554  1.0000
  O   O5        1.0  0.9033475717103412  0.3569297677599296  0.045652807602891685  1.0000
  O   O6        1.0  0.5966546803697952  0.35692780075132924  0.5456528629356965  1.0000
  O   O7        1.0  0.09665628121761222  0.6430689822516485  0.9543465886125443  1.0000
  O   O8        1.0  0.40334577311553244  0.6430719996464449  0.45434720209411217  1.0000
  O   O9        1.0  0.9693489247140833  0.5654522456691568  0.10711746846584447  1.0000
  O   O10       1.0  0.5306556912919903  0.5654501954446476  0.6071188963438842  1.0000
  O   O11       1.0  0.030654928215398093  0.43454545476146217  0.8928806099490881  1.0000
  O   O12       1.0  0.46934702848360393  0.4345496017251735  0.39288376463687047  1.0000
  O   O13       1.0  0.8831552839726983  0.861133357294307  0.0342610439273017  1.0000
  O   O14       1.0  0.6168455001115093  0.8611272080455807  0.5342629441136209  1.0000
  O   O15       1.0  0.1168451695205874  0.138872752699271  0.965737193084713  1.0000
  O   O16       1.0  0.383152687067252  0.13886417874904572  0.4657402072625769  1.0000
