data_image0
_chemical_formula_structural       Al2H30C42N12O12
_chemical_formula_sum              "Al2 H30 C42 N12 O12"
_cell_length_a       3.9587710250885677
_cell_length_b       27.901023753913428
_cell_length_c       27.90117661148797
_cell_angle_alpha    119.99929416600303
_cell_angle_beta     89.99922874645078
_cell_angle_gamma    90.0003624376423

_space_group_name_H-M_alt    "P 1"
_space_group_IT_number       1

loop_
  _space_group_symop_operation_xyz
  'x, y, z'

loop_
  _atom_site_type_symbol
  _atom_site_label
  _atom_site_symmetry_multiplicity
  _atom_site_fract_x
  _atom_site_fract_y
  _atom_site_fract_z
  _atom_site_occupancy
  Al  Al1       1.0  0.9598081190690665  0.5000010576849192  0.499998757858677  1.0000
  Al  Al2       1.0  0.9598048037959116  0.16666674544313062  0.8333373029761404  1.0000
  H   H1        1.0  0.15127278632719046  0.1905214228497202  0.7026043467969602  1.0000
  H   H2        1.0  0.1461990899056147  0.24377408699503184  0.6518876142123133  1.0000
  H   H3        1.0  0.7014993187742179  0.3745729963331996  0.78592933226291  1.0000
  H   H4        1.0  0.7014658903948501  0.292092034370917  0.5474007091050552  1.0000
  H   H5        1.0  0.1461285067126354  0.42288499947363783  0.6814387513063167  1.0000
  H   H6        1.0  0.1511993727061309  0.47614258479367083  0.6307256889329765  1.0000
  H   H7        1.0  0.15120551372898208  0.01208006143948385  0.8094785552783392  1.0000
  H   H8        1.0  0.14615620515202468  0.908109775121119  0.7562225751078773  1.0000
  H   H9        1.0  0.7015141720503876  0.9113591546824225  0.6254306499686494  1.0000
  H   H10       1.0  0.701516778261123  0.7553048830711903  0.7079088065278328  1.0000
  H   H11       1.0  0.14615629938969482  0.7585606854338351  0.5771201924833776  1.0000
  H   H12       1.0  0.15122875440205522  0.6545910439830109  0.5238623029398184  1.0000
  H   H13       1.0  0.1511933899880091  0.2973871910948915  0.9879201024336837  1.0000
  H   H14       1.0  0.1461196005791408  0.3480999279714609  0.09188716769090631  1.0000
  H   H15       1.0  0.7015213910697611  0.214066683483793  0.08864715414402718  1.0000
  H   H16       1.0  0.7014587503184727  0.4525997558224262  0.24468759634653744  1.0000
  H   H17       1.0  0.1461092563790771  0.3185605927926716  0.24144889901536712  1.0000
  H   H18       1.0  0.15120298750641586  0.3692724561545191  0.3454171609438533  1.0000
  H   H19       1.0  0.8457510537075736  0.2974034527871652  0.8570315538102733  1.0000
  H   H20       1.0  0.9473497464438053  0.35539271603821015  0.8531867663886672  1.0000
  H   H21       1.0  0.8457531975259089  0.3692627760528566  0.4763027297758953  1.0000
  H   H22       1.0  0.9473311964486159  0.31127493679510815  0.4801487533463202  1.0000
  H   H23       1.0  0.8457530100777505  0.05962793481472776  0.7025983087216829  1.0000
  H   H24       1.0  0.9473465700270225  0.9977952183569416  0.644610917920737  1.0000
  H   H25       1.0  0.8457461890813749  0.6070343921339827  0.6307341422698869  1.0000
  H   H26       1.0  0.947347067499564  0.6688658733970242  0.688725965749967  1.0000
  H   H27       1.0  0.8457460771251563  0.14296656303368155  0.9403796631903846  1.0000
  H   H28       1.0  0.9473477524350785  0.1468116374153539  0.002208679827440105  1.0000
  H   H29       1.0  0.8457505959447359  0.5236955015329201  0.39295376698903783  1.0000
  H   H30       1.0  0.9473152845631747  0.5198508915792387  0.33112087808797247  1.0000
  C   C1        1.0  0.4556069023777098  0.46265262962967296  0.4143175695628258  1.0000
  C   C2        1.0  0.4555982486543826  0.4516660413511175  0.5373465556300516  1.0000
  C   C3        1.0  0.45560835734938376  0.5856830292334223  0.5483337293969939  1.0000
  C   C4        1.0  0.45560828377323764  0.21500043139921127  0.7959882794045328  1.0000
  C   C5        1.0  0.45559817505797895  0.08098267125269146  0.7850011610873012  1.0000
  C   C6        1.0  0.4556072081221103  0.2040113748513049  0.9190168664821954  1.0000
  C   C7        1.0  0.45136909438144096  0.24996807142615307  0.7702692583013403  1.0000
  C   C8        1.0  0.279385876348826  0.23026731393232316  0.719517977030705  1.0000
  C   C9        1.0  0.2747121885252568  0.2593356611522495  0.6914054554943334  1.0000
  C   C10       1.0  0.42989923439947114  0.311847451299748  0.716569335150048  1.0000
  C   C11       1.0  0.5857082560747742  0.33368974536236357  0.7680248397706535  1.0000
  C   C12       1.0  0.6147758887331846  0.30257361440718716  0.7949379663911458  1.0000
  C   C13       1.0  0.5856623510427924  0.3329763715347339  0.5653065018982986  1.0000
  C   C14       1.0  0.4298292008422422  0.3548152883575995  0.6167614005417335  1.0000
  C   C15       1.0  0.2746648795385199  0.4073284308128676  0.6419256778571523  1.0000
  C   C16       1.0  0.27931226630833816  0.4363910282183668  0.6138102948988121  1.0000
  C   C17       1.0  0.4513347993786284  0.4166974374161256  0.563062965267271  1.0000
  C   C18       1.0  0.6147516561647351  0.3640907077054721  0.5383915267331361  1.0000
  C   C19       1.0  0.45135219469627696  0.020300602517117756  0.7500334052560119  1.0000
  C   C20       1.0  0.2793250005682922  0.9892425328340266  0.7697276044824691  1.0000
  C   C21       1.0  0.2746948605489621  0.9320670234155272  0.7406642746129678  1.0000
  C   C22       1.0  0.42987369207602905  0.9047178755893981  0.6881543207701882  1.0000
  C   C23       1.0  0.5857015486673519  0.9343383631707809  0.6663149284141029  1.0000
  C   C24       1.0  0.6147760650969828  0.9923665054414599  0.6974293911156337  1.0000
  C   C25       1.0  0.5857120651701848  0.7323273666822773  0.6670280897308699  1.0000
  C   C26       1.0  0.42988259370967097  0.7619475106285448  0.6451886418718402  1.0000
  C   C27       1.0  0.27470248005160874  0.7346011636155794  0.5926776372069682  1.0000
  C   C28       1.0  0.27933278989538474  0.6774243864944793  0.5636105479447552  1.0000
  C   C29       1.0  0.4513516988956213  0.6463668904001524  0.5833032855136793  1.0000
  C   C30       1.0  0.6147742784896195  0.6742996652798396  0.6359073924589539  1.0000
  C   C31       1.0  0.4513384197374465  0.22972508735311706  0.9797029390036586  1.0000
  C   C32       1.0  0.2793147856407928  0.2804757975542742  0.010757398890270114  1.0000
  C   C33       1.0  0.2746572101258735  0.3085886840992131  0.06793112427350684  1.0000
  C   C34       1.0  0.4298474327547837  0.28342907900542974  0.0952822883982307  1.0000
  C   C35       1.0  0.5856914945841112  0.2319702880033176  0.06566600986930379  1.0000
  C   C36       1.0  0.6147910672184551  0.20505478452015777  0.00763608930304122  1.0000
  C   C37       1.0  0.5856460500379511  0.434692563342395  0.2676682638191111  1.0000
  C   C38       1.0  0.4298125755472101  0.38323327722978456  0.2380513644755311  1.0000
  C   C39       1.0  0.2746489048797471  0.3580743482030755  0.2654043193018579  1.0000
  C   C40       1.0  0.2793124038856761  0.38618676499473276  0.3225792217383159  1.0000
  C   C41       1.0  0.4513351612514286  0.4369371511924171  0.3536347052748781  1.0000
  C   C42       1.0  0.6147539357688316  0.4616081046373637  0.32570023766134426  1.0000
  N   N1        1.0  0.43560241845251807  0.34632696898179205  0.6928386959466764  1.0000
  N   N2        1.0  0.43557401412317637  0.3203367493265007  0.6404917662420005  1.0000
  N   N3        1.0  0.4356182190380408  0.8465132801672581  0.6536766855815088  1.0000
  N   N4        1.0  0.43561890256381736  0.8201551391104902  0.6796668163617385  1.0000
  N   N5        1.0  0.43558434784534233  0.3071591330395406  0.1534934539009427  1.0000
  N   N6        1.0  0.4355489179815492  0.35950562058548025  0.17984424116893652  1.0000
  N   N7        1.0  0.7779104954155472  0.3250170539885957  0.8450217581215469  1.0000
  N   N8        1.0  0.7778976026596709  0.34164925161795884  0.488309002983577  1.0000
  N   N9        1.0  0.7779141903364888  0.020008207172075774  0.674985565935998  1.0000
  N   N10       1.0  0.7779065376111376  0.6466546766593594  0.6583500505059591  1.0000
  N   N11       1.0  0.7779178528910293  0.15497318331384946  0.9799983312360112  1.0000
  N   N12       1.0  0.7778927710397741  0.5116900738061858  0.35333476151362936  1.0000
  O   O1        1.0  0.6919812316547153  0.5584245111572343  0.556021469453171  1.0000
  O   O2        1.0  0.6919777341206341  0.49759791774361156  0.4415718336888972  1.0000
  O   O3        1.0  0.6919736057572692  0.4439780664654407  0.5024014494485628  1.0000
  O   O4        1.0  0.22478289339773033  0.5623674118923319  0.5116053520152875  1.0000
  O   O5        1.0  0.224769232388887  0.4883959019765101  0.5507586318453122  1.0000
  O   O6        1.0  0.22477121766407043  0.4492421695800815  0.4376358110322371  1.0000
  O   O7        1.0  0.6919739983181756  0.16906293470535885  0.8917602548507233  1.0000
  O   O8        1.0  0.6919730745351058  0.22269047886096885  0.830935848811727  1.0000
  O   O9        1.0  0.6919654487441207  0.10824214611758996  0.7773126991957612  1.0000
  O   O10       1.0  0.22476931051809856  0.21742163496943331  0.8957021627492452  1.0000
  O   O11       1.0  0.22478036941701163  0.10429924909570332  0.8217276149176769  1.0000
  O   O12       1.0  0.22477887410855865  0.1782747014742513  0.7825782775499874  1.0000
