data_image0
_chemical_formula_structural       Mn2H16C28N16
_chemical_formula_sum              "Mn2 H16 C28 N16"
_cell_length_a       6.470180846992062
_cell_length_b       9.21815663571405
_cell_length_c       12.706041464966471
_cell_angle_alpha    89.38792313776989
_cell_angle_beta     87.96010792619177
_cell_angle_gamma    69.49007776920634

_space_group_name_H-M_alt    "P 1"
_space_group_IT_number       1

loop_
  _space_group_symop_operation_xyz
  'x, y, z'

loop_
  _atom_site_type_symbol
  _atom_site_label
  _atom_site_symmetry_multiplicity
  _atom_site_fract_x
  _atom_site_fract_y
  _atom_site_fract_z
  _atom_site_occupancy
  Mn  Mn1       1.0  0.6081109319364515  0.7794516523827613  0.7492830095546383  1.0000
  Mn  Mn2       1.0  0.39180006439032417  0.21701007377171072  0.24999638468779756  1.0000
  H   H1        1.0  0.0301245710722213  0.18730165614305613  0.7999012134517473  1.0000
  H   H2        1.0  0.2156767511052278  0.8174551276852359  0.2976280483604868  1.0000
  H   H3        1.0  0.9669173707279058  0.8171484900106807  0.20246496295738586  1.0000
  H   H4        1.0  0.782825498985055  0.18824194349110002  0.7000438538763663  1.0000
  H   H5        1.0  0.32654096396435517  0.20655392631464056  0.9092678973856324  1.0000
  H   H6        1.0  0.5319493624805034  0.8009049257060781  0.40487929242166126  1.0000
  H   H7        1.0  0.6671291261088117  0.7996690504949697  0.0956111604887369  1.0000
  H   H8        1.0  0.46713901397272667  0.20711749437376176  0.5906373477083093  1.0000
  H   H9        1.0  0.3408718215087134  0.4709865536110912  0.9489740647729976  1.0000
  H   H10       1.0  0.8140531575923268  0.5376669464471817  0.4441256719473899  1.0000
  H   H11       1.0  0.6484416630606589  0.5361106959983176  0.056397812296744114  1.0000
  H   H12       1.0  0.1891134914218782  0.4718683659560412  0.5515853962558667  1.0000
  H   H13       1.0  0.048144689952025095  0.7036756972916222  0.8766334412248755  1.0000
  H   H14       1.0  0.7516031646524797  0.30333594418669213  0.3745401207286889  1.0000
  H   H15       1.0  0.9456204787534123  0.3022943060518983  0.1255079500316256  1.0000
  H   H16       1.0  0.24944424447539856  0.7041863979097442  0.6241111213519873  1.0000
  C   C1        1.0  0.875633040272895  0.4355653871148137  0.781770223231739  1.0000
  C   C2        1.0  0.3100836478894707  0.5681705110181666  0.28151221577807933  1.0000
  C   C3        1.0  0.12203469364214213  0.5679249330717226  0.21840497978413967  1.0000
  C   C4        1.0  0.6898286086256962  0.43626420050390646  0.7185263486115618  1.0000
  C   C5        1.0  0.036925379770053654  0.30040195023710237  0.8177714855759108  1.0000
  C   C6        1.0  0.3347844746002835  0.7045973636659114  0.3161465236444983  1.0000
  C   C7        1.0  0.9608125771855214  0.7040809965147333  0.1839337285339866  1.0000
  C   C8        1.0  0.6629666491428242  0.30129054161921687  0.6822434658232199  1.0000
  C   C9        1.0  0.20453316631589774  0.3113712294979649  0.879002668809207  1.0000
  C   C10       1.0  0.5145071405326507  0.6950751616011316  0.37627885509648007  1.0000
  C   C11       1.0  0.7905078529211382  0.6940767664715182  0.1240271262536723  1.0000
  C   C12       1.0  0.48453053531586937  0.3119710262322499  0.6210419930975706  1.0000
  C   C13       1.0  0.21249246364204313  0.4573015302150765  0.9011842324493958  1.0000
  C   C14       1.0  0.6696053945858227  0.550345681142396  0.3984200652174793  1.0000
  C   C15       1.0  0.7803031146482623  0.5491549278061499  0.10187440368438422  1.0000
  C   C16       1.0  0.33127156665688073  0.45798840973999694  0.5992693518515325  1.0000
  C   C17       1.0  0.04942471575644454  0.5872137045591685  0.8622118292493824  1.0000
  C   C18       1.0  0.6353081871641707  0.4196191381205949  0.36048638668712146  1.0000
  C   C19       1.0  0.94553505079724  0.4187051097196176  0.13958503954371795  1.0000
  C   C20       1.0  0.36474171247915155  0.587892946471115  0.6384410139745995  1.0000
  C   C21       1.0  0.740517755945085  0.009509942776070097  0.8817266715539986  1.0000
  C   C22       1.0  0.7743955322351751  0.9697110906351726  0.3849705209330169  1.0000
  C   C23       1.0  0.255770017879314  0.9694756425011661  0.11503085174103231  1.0000
  C   C24       1.0  0.24849610818822043  0.009571278364035202  0.6173374646883758  1.0000
  C   C25       1.0  0.6774467940316669  0.161819396731488  0.028110637908682203  1.0000
  C   C26       1.0  0.8272361787165748  0.8300761145191516  0.5376002557355549  1.0000
  C   C27       1.0  0.3410838672019665  0.8301237077427219  0.9618782247316205  1.0000
  C   C28       1.0  0.16054583406452855  0.1627390413910064  0.47163900082796334  1.0000
  N   N1        1.0  0.8835685189705913  0.5772788458710565  0.8052983094074692  1.0000
  N   N2        1.0  0.45932784565150797  0.4280217060178159  0.30492883769952084  1.0000
  N   N3        1.0  0.11315557328822487  0.4275330343235098  0.1949321034097125  1.0000
  N   N4        1.0  0.5406937824068195  0.5786954093347988  0.6953823654418303  1.0000
  N   N5        1.0  0.7057959001518199  0.9296950732746725  0.8177238607408557  1.0000
  N   N6        1.0  0.678430352452715  0.06209433014280562  0.32208850223558744  1.0000
  N   N7        1.0  0.25967775742019944  0.06190131678652482  0.1780994018612745  1.0000
  N   N8        1.0  0.3618488391790463  0.9287978524962386  0.6810978798451688  1.0000
  N   N9        1.0  0.5792475255874194  0.22816550122595203  0.1036912883447343  1.0000
  N   N10       1.0  0.7818200395633995  0.7889021573948868  0.6205823495052982  1.0000
  N   N11       1.0  0.42637604021390274  0.7892092866090792  0.8785178857009157  1.0000
  N   N12       1.0  0.19282932430559188  0.22918046072466325  0.3963672633716229  1.0000
  N   N13       1.0  0.7967057360471443  0.09574044221004392  0.9461371207080591  1.0000
  N   N14       1.0  0.8939876124249012  0.8627794959288124  0.4459729317322428  1.0000
  N   N15       1.0  0.24287784715472333  0.862410392585872  0.05389950889107102  1.0000
  N   N16       1.0  0.1068108255635281  0.0965844876271831  0.5532761534617452  1.0000
