data_image0
_chemical_formula_structural       Cu2H14C2N18
_chemical_formula_sum              "Cu2 H14 C2 N18"
_cell_length_a       5.66401772680106
_cell_length_b       6.741876473212311
_cell_length_c       10.116698940227025
_cell_angle_alpha    77.53531207928921
_cell_angle_beta     73.75407420286386
_cell_angle_gamma    65.14513382442217

_space_group_name_H-M_alt    "P 1"
_space_group_IT_number       1

loop_
  _space_group_symop_operation_xyz
  'x, y, z'

loop_
  _atom_site_type_symbol
  _atom_site_label
  _atom_site_symmetry_multiplicity
  _atom_site_fract_x
  _atom_site_fract_y
  _atom_site_fract_z
  _atom_site_occupancy
  Cu  Cu1       1.0  2.269638095053164e-06  0.5000186472122152  0.9999923257443156  1.0000
  Cu  Cu2       1.0  0.5000757004478091  0.9999394547447906  0.5000148113585395  1.0000
  H   H1        1.0  0.5540288704036344  0.7462909415937202  0.9170499590439645  1.0000
  H   H2        1.0  0.21754202652473248  0.7537935045773381  0.5828474608192946  1.0000
  H   H3        1.0  0.44595538565255305  0.2537328397292383  0.08294328375944808  1.0000
  H   H4        1.0  0.7825323910332571  0.24616441335896866  0.417158863553091  1.0000
  H   H5        1.0  0.6709961996821153  0.49764856337916535  0.8738309542349825  1.0000
  H   H6        1.0  0.042536487527904336  0.0024426766196369992  0.6260884765980705  1.0000
  H   H7        1.0  0.32898967813213187  0.5023569586204459  0.12619268664983704  1.0000
  H   H8        1.0  0.9575364801621838  0.9975334807637636  0.37389098849655505  1.0000
  H   H9        1.0  0.8018650082197427  0.6705562766111726  0.7790583720340647  1.0000
  H   H10       1.0  0.2516227030049407  0.8294827315630612  0.7208822790055861  1.0000
  H   H11       1.0  0.19809498693465596  0.3294461577799694  0.2209300827483673  1.0000
  H   H12       1.0  0.7483770958493565  0.1705030953738813  0.27913423320266156  1.0000
  H   H13       1.0  0.03901853252114064  0.250227010843318  0.7500816708353496  1.0000
  H   H14       1.0  0.9609867139033882  0.7498348327791433  0.24986809659935005  1.0000
  C   C1        1.0  0.22988968235321774  0.25021200426436246  0.7500440710754432  1.0000
  C   C2        1.0  0.770122094399582  0.7498085676836296  0.24993427787414635  1.0000
  N   N1        1.0  0.27410524829462457  0.3445128925409264  0.8391166581235369  1.0000
  N   N2        1.0  0.4574094096016951  0.1557953374311438  0.6609255385182349  1.0000
  N   N3        1.0  0.7258962348612105  0.6554944586893896  0.16087362197038854  1.0000
  N   N4        1.0  0.542626217095368  0.8441806867554716  0.3390786612228282  1.0000
  N   N5        1.0  0.5369046075451325  0.3062330782925358  0.8036232727726753  1.0000
  N   N6        1.0  0.6465893078990421  0.19392108559224397  0.6963700426933028  1.0000
  N   N7        1.0  0.463109517001392  0.6937214580009011  0.19640119515645435  1.0000
  N   N8        1.0  0.35344641352439526  0.8060120236586881  0.3036627034011871  1.0000
  N   N9        1.0  0.7284244347022054  0.6212052588428775  0.8801746168532175  1.0000
  N   N10       1.0  0.2299181634953414  0.8788561851982589  0.6197534550972462  1.0000
  N   N11       1.0  0.27156131211404505  0.378813561703275  0.1198234945131702  1.0000
  N   N12       1.0  0.7701411074013081  0.12110667021056538  0.38025251706833524  1.0000
  N   N13       1.0  7.126352132058116e-07  7.91863120499994e-06  0.9999936285895358  1.0000
  N   N14       1.0  0.99988881383608  0.5000517738375406  0.500013469889957  1.0000
  N   N15       1.0  0.12922256558474035  0.8470102959975633  0.935826852731587  1.0000
  N   N16       1.0  0.9121067392186719  0.6530550629382076  0.5641356900522538  1.0000
  N   N17       1.0  0.8707884595862083  0.15299378828373728  0.06415927372163563  1.0000
  N   N18       1.0  0.0876876038824151  0.34702455138521043  0.435876332397889  1.0000
