data_image0
_chemical_formula_structural       Co2H40C52S4N4O8
_chemical_formula_sum              "Co2 H40 C52 S4 N4 O8"
_cell_length_a       11.012466759613405
_cell_length_b       11.102738476522557
_cell_length_c       11.691062849144018
_cell_angle_alpha    62.94134127560015
_cell_angle_beta     79.16939893620103
_cell_angle_gamma    77.39341773884419

_space_group_name_H-M_alt    "P 1"
_space_group_IT_number       1

loop_
  _space_group_symop_operation_xyz
  'x, y, z'

loop_
  _atom_site_type_symbol
  _atom_site_label
  _atom_site_symmetry_multiplicity
  _atom_site_fract_x
  _atom_site_fract_y
  _atom_site_fract_z
  _atom_site_occupancy
  Co  Co1       1.0  0.8088871447283522  0.2187845504753057  0.33831923845184514  1.0000
  Co  Co2       1.0  0.1911176349825681  0.7812177315621652  0.6616748335698192  1.0000
  H   H1        1.0  0.7504031903086668  0.42984590860259414  0.43157577379941625  1.0000
  H   H2        1.0  0.24959797064732922  0.5701482252409773  0.5684275335269149  1.0000
  H   H3        1.0  0.5921024205602237  0.632521021953856  0.4138238023161593  1.0000
  H   H4        1.0  0.4079008161739494  0.3674710200648049  0.5861851798996369  1.0000
  H   H5        1.0  0.4164013165228795  0.5572845005293559  0.15449508814107563  1.0000
  H   H6        1.0  0.583603818344386  0.4427218368432049  0.8455031752877036  1.0000
  H   H7        1.0  0.5807202187000797  0.3572923892021151  0.18632194653310558  1.0000
  H   H8        1.0  0.4192830770260015  0.6427139790737184  0.8136749055120376  1.0000
  H   H9        1.0  0.2242242481033898  0.8812730163803123  0.1383249814398225  1.0000
  H   H10       1.0  0.7757821078707962  0.11872413437039601  0.86167187451899  1.0000
  H   H11       1.0  0.3427478830988234  0.7985581680979761  0.06326436572770432  1.0000
  H   H12       1.0  0.6572584403252576  0.20143896441825146  0.9367367804907476  1.0000
  H   H13       1.0  0.1557959864189726  0.6329389411193203  0.3881165864824754  1.0000
  H   H14       1.0  0.8442038741717396  0.36706543168831013  0.6118808482493279  1.0000
  H   H15       1.0  0.030455227063349383  0.4495557816182084  0.43632681110018723  1.0000
  H   H16       1.0  0.9695486993153111  0.5504454562349039  0.5636755513980063  1.0000
  H   H17       1.0  0.09604486277955705  0.5221501755375185  0.03745357967586222  1.0000
  H   H18       1.0  0.9039573295555029  0.47784290874670166  0.9625534231471348  1.0000
  H   H19       1.0  0.23394483086333642  0.689544058541095  0.9928757925120452  1.0000
  H   H20       1.0  0.7660542347844268  0.3104521561866989  0.007124414080586028  1.0000
  H   H21       1.0  0.5823203787478732  0.0821163704189729  0.47442425088415524  1.0000
  H   H22       1.0  0.4176792519167377  0.9178972136747418  0.5255658584382276  1.0000
  H   H23       1.0  0.5227501879000017  0.8971936798106129  0.6889292045391856  1.0000
  H   H24       1.0  0.4772448123615403  0.10281996330679279  0.31106166658376116  1.0000
  H   H25       1.0  0.8854071419981651  0.8819713827454403  0.7964947928819301  1.0000
  H   H26       1.0  0.1145834447663674  0.1180331008157793  0.20350588155485375  1.0000
  H   H27       1.0  0.9252074209960667  0.067197233102533  0.5816886354237596  1.0000
  H   H28       1.0  0.07479150049399409  0.9328071442160348  0.41831066777201215  1.0000
  H   H29       1.0  0.7669201820573975  0.6042129932739824  0.08650769967449895  1.0000
  H   H30       1.0  0.2330727355142271  0.3957884445863441  0.9134827623142031  1.0000
  H   H31       1.0  0.8707104829882011  0.6872154331148154  0.9527687758378747  1.0000
  H   H32       1.0  0.1292829406083555  0.3127890478542668  0.04722371905122464  1.0000
  H   H33       1.0  0.9788001525901178  0.7832679174677039  0.041197489078221836  1.0000
  H   H34       1.0  0.021194256413629396  0.21672119497864623  0.9588091153743363  1.0000
  H   H35       1.0  0.9806449314541934  0.9360480779520582  0.14401569348478213  1.0000
  H   H36       1.0  0.0193537072261449  0.0639368946072381  0.8559919641235965  1.0000
  H   H37       1.0  0.5788872409594461  0.013814756383361297  0.1770620061865102  1.0000
  H   H38       1.0  0.4211110171270604  0.9861875864058971  0.8229382806675076  1.0000
  H   H39       1.0  0.5765880018792656  0.8612884890069095  0.07573373035354808  1.0000
  H   H40       1.0  0.42340760930393617  0.13871286602954305  0.9242674292298788  1.0000
  C   C1        1.0  0.6740076795649939  0.4616532906106129  0.3719560839284455  1.0000
  C   C2        1.0  0.3259941252644935  0.53834286682158  0.6280488138954184  1.0000
  C   C3        1.0  0.5853091600876184  0.5746745812584988  0.36151689223986255  1.0000
  C   C4        1.0  0.4146898534799844  0.4253216042941189  0.6384901787681941  1.0000
  C   C5        1.0  0.4882982586305572  0.6138931213275568  0.2825585481232977  1.0000
  C   C6        1.0  0.5117023314011673  0.3861050796558415  0.7174491029702497  1.0000
  C   C7        1.0  0.4881075207488904  0.5348795587847803  0.21672250848930477  1.0000
  C   C8        1.0  0.5118954730391394  0.46512168722617286  0.7832808644209309  1.0000
  C   C9        1.0  0.5801242179195539  0.4221640202835244  0.23379317051015402  1.0000
  C   C10       1.0  0.419879583630596  0.577838244383507  0.7662079182870444  1.0000
  C   C11       1.0  0.28267151841470894  0.78201375596295  0.15387894331598775  1.0000
  C   C12       1.0  0.7173330841866769  0.217982376995728  0.8461229232717572  1.0000
  C   C13       1.0  0.2040404887947176  0.6727598985167303  0.18761162126413922  1.0000
  C   C14       1.0  0.795960829740757  0.3272403734649529  0.8123864656518903  1.0000
  C   C15       1.0  0.14523086392861023  0.6056603237035459  0.31221781820318034  1.0000
  C   C16       1.0  0.8547701593797042  0.394341976377703  0.6877837276743578  1.0000
  C   C17       1.0  0.07418748471554437  0.5046341382451017  0.33920824932835103  1.0000
  C   C18       1.0  0.925816191805225  0.495362006518306  0.6607937696195024  1.0000
  C   C19       1.0  0.05632117794900889  0.473069312727027  0.2408819792224578  1.0000
  C   C20       1.0  0.9436836677993838  0.526924762956902  0.7591232928192043  1.0000
  C   C21       1.0  0.11319873675289933  0.5415181759569876  0.11584185553063979  1.0000
  C   C22       1.0  0.8868062598640873  0.45847488750060705  0.8841612580043047  1.0000
  C   C23       1.0  0.1885379189635685  0.6382945246763538  0.09036467552407869  1.0000
  C   C24       1.0  0.8114668019563068  0.36170057782150156  0.9096393228165882  1.0000
  C   C25       1.0  0.9723269983310627  0.37332311767173104  0.2667567889459264  1.0000
  C   C26       1.0  0.02767863564938718  0.6266719657275955  0.7332487731384846  1.0000
  C   C27       1.0  0.6458104657667647  0.03381961285170829  0.5494975043920363  1.0000
  C   C28       1.0  0.3541888889998788  0.966188863564717  0.45049569358771907  1.0000
  C   C29       1.0  0.6140406533413554  0.930333479638129  0.6681956849567927  1.0000
  C   C30       1.0  0.3859573943491128  0.06967808537790177  0.3317947023320116  1.0000
  C   C31       1.0  0.6996854353343237  0.8707603802111662  0.7620441997955893  1.0000
  C   C32       1.0  0.300306891983837  0.12925226056583478  0.23795097626446451  1.0000
  C   C33       1.0  0.8134974122904308  0.9218769380609472  0.7305940735788072  1.0000
  C   C34       1.0  0.18649767373950246  0.0781356563611553  0.2694032195566933  1.0000
  C   C35       1.0  0.8374200892137152  0.025921172707775487  0.6086719979624887  1.0000
  C   C36       1.0  0.1625756730389439  0.9740863168198787  0.39132479926256275  1.0000
  C   C37       1.0  0.7797289853801529  0.7041914119042686  0.005305943241452788  1.0000
  C   C38       1.0  0.22026376830283564  0.2958110308885935  0.9946883933578121  1.0000
  C   C39       1.0  0.7775532331184961  0.8085215292187015  0.05500360529846673  1.0000
  C   C40       1.0  0.22244120212619825  0.19147474453278326  0.9449973630947285  1.0000
  C   C41       1.0  0.891042677140305  0.8328882009120804  0.07209007267133663  1.0000
  C   C42       1.0  0.10895239526699638  0.16710294606358633  0.927915548122975  1.0000
  C   C43       1.0  0.8924801409221174  0.9180646581240949  0.1297393842894223  1.0000
  C   C44       1.0  0.10751529946070092  0.08192340476290377  0.8702709156598019  1.0000
  C   C45       1.0  0.7801007609274748  0.9828084365397483  0.1693453830885475  1.0000
  C   C46       1.0  0.21989812110073356  0.0171816254623494  0.8306634761220978  1.0000
  C   C47       1.0  0.6664918226493128  0.9618913642466042  0.1485709046404295  1.0000
  C   C48       1.0  0.3335062973877783  0.0381048513452384  0.8514320284681034  1.0000
  C   C49       1.0  0.6654396597322859  0.8761362098020482  0.09173936627448846  1.0000
  C   C50       1.0  0.3345559514509091  0.12386514523439726  0.908261793308931  1.0000
  C   C51       1.0  0.7802140834815247  0.07497406470376687  0.22985851347173278  1.0000
  C   C52       1.0  0.21978563905977197  0.9250241809064407  0.7701415675145852  1.0000
  S   S1        1.0  0.37871812729602533  0.7555488112569931  0.2755144483360397  1.0000
  S   S2        1.0  0.6212832900278826  0.24445041932317918  0.7244883444886979  1.0000
  S   S3        1.0  0.655811887400489  0.7377251203063646  0.9078784119642977  1.0000
  S   S4        1.0  0.34418047246776945  0.2622875387051238  0.09211247383612425  1.0000
  N   N1        1.0  0.6725610974425177  0.3844578417160562  0.30996219377993833  1.0000
  N   N2        1.0  0.32744285497622627  0.6155434107246406  0.6900367365105425  1.0000
  N   N3        1.0  0.7563608510956925  0.08119146078256277  0.5180072432825114  1.0000
  N   N4        1.0  0.2436382344838676  0.9188190583210131  0.48198598145103233  1.0000
  O   O1        1.0  0.938930115937346  0.2920721827292212  0.38478150182822196  1.0000
  O   O2        1.0  0.06107593158876771  0.7079198421097173  0.6152227330476024  1.0000
  O   O3        1.0  0.9298971173083572  0.37128990206797835  0.1740852572055331  1.0000
  O   O4        1.0  0.0701048253696825  0.6287052358440873  0.8259191982154734  1.0000
  O   O5        1.0  0.8841613478386918  0.08902771028971299  0.2541781849038074  1.0000
  O   O6        1.0  0.11583916293466248  0.9109715430358847  0.7458221861252596  1.0000
  O   O7        1.0  0.6779718355138867  0.14138970672271972  0.2566747660989463  1.0000
  O   O8        1.0  0.32203056668167557  0.8586166915923384  0.7433179480466734  1.0000
