data_image0
_chemical_formula_structural       Sm2H20C18S6N6O16
_chemical_formula_sum              "Sm2 H20 C18 S6 N6 O16"
_cell_length_a       8.589980952817037
_cell_length_b       8.737703901883267
_cell_length_c       11.395312910015607
_cell_angle_alpha    105.44381664394577
_cell_angle_beta     96.91655519272399
_cell_angle_gamma    94.49357470317753

_space_group_name_H-M_alt    "P 1"
_space_group_IT_number       1

loop_
  _space_group_symop_operation_xyz
  'x, y, z'

loop_
  _atom_site_type_symbol
  _atom_site_label
  _atom_site_symmetry_multiplicity
  _atom_site_fract_x
  _atom_site_fract_y
  _atom_site_fract_z
  _atom_site_occupancy
  Sm  Sm1       1.0  0.5466615824468092  0.1639518147666834  0.41294941462153634  1.0000
  Sm  Sm2       1.0  0.4533381185071264  0.8360394469597097  0.5870485456207177  1.0000
  H   H1        1.0  0.022433584717141672  0.916120573565493  0.2193649914452038  1.0000
  H   H2        1.0  0.9775780874357948  0.08389095286067769  0.7806393387609132  1.0000
  H   H3        1.0  0.9474313830906667  0.012225273229290708  0.3538772017697482  1.0000
  H   H4        1.0  0.052565803301135375  0.9877810350105914  0.6461150699674788  1.0000
  H   H5        1.0  0.5670414872458025  0.737208446753918  0.15705721384725993  1.0000
  H   H6        1.0  0.4329634105509896  0.26277806879510723  0.8429422682057464  1.0000
  H   H7        1.0  0.3718669470070921  0.7908563966376787  0.16548182914853268  1.0000
  H   H8        1.0  0.6281366426755143  0.20912081199880106  0.8345194922316564  1.0000
  H   H9        1.0  0.6387355681784754  0.27299637473703336  0.060596020977485  1.0000
  H   H10       1.0  0.36127627624010467  0.727035965182182  0.9394187978116832  1.0000
  H   H11       1.0  0.6013238512729088  0.0652750853525319  0.9814759372295111  1.0000
  H   H12       1.0  0.3986582179759778  0.9347669235292242  0.018514486948454614  1.0000
  H   H13       1.0  0.7668170138195975  0.4172704652020442  0.33755789579425505  1.0000
  H   H14       1.0  0.2331933191380458  0.582723804173675  0.6624531086126452  1.0000
  H   H15       1.0  0.7045103351282335  0.5127121333445217  0.4616358600561624  1.0000
  H   H16       1.0  0.29549886132394937  0.48727396220346714  0.5383763101858888  1.0000
  H   H17       1.0  0.25964669981372873  0.2764260141035563  0.336536752844104  1.0000
  H   H18       1.0  0.7403432848409466  0.7235586570089367  0.6634828218813523  1.0000
  H   H19       1.0  0.37081931397304396  0.44328879066807036  0.35797481763318467  1.0000
  H   H20       1.0  0.6291676490593191  0.5566976572200985  0.6420350644496509  1.0000
  C   C1        1.0  0.983317004355392  0.5853674111052454  0.22493569073484565  1.0000
  C   C2        1.0  0.016687203116354982  0.41463878586931446  0.7750573035789685  1.0000
  C   C3        1.0  0.188139613887401  0.4916120009838848  0.13362568013870657  1.0000
  C   C4        1.0  0.8118601505254687  0.5083870897633885  0.8663656709254396  1.0000
  C   C5        1.0  0.9662904728319076  0.3255142312828241  0.11538607073134698  1.0000
  C   C6        1.0  0.033704599844668295  0.6744912662263259  0.8845935400154729  1.0000
  C   C7        1.0  0.014499022618949184  0.9135978302639953  0.31419308523521033  1.0000
  C   C8        1.0  0.9855042445678917  0.08641107533399149  0.6858046517309047  1.0000
  C   C9        1.0  0.1801177395542695  0.942988019327913  0.3870097788746988  1.0000
  C   C10       1.0  0.8198724043961008  0.05701218870930799  0.6129948031900411  1.0000
  C   C11       1.0  0.4540230085422862  0.7086576837939944  0.1871974216222725  1.0000
  C   C12       1.0  0.5459905804484251  0.2913240905035081  0.8128048306820401  1.0000
  C   C13       1.0  0.4797583820448209  0.7405822562161501  0.32543252733485417  1.0000
  C   C14       1.0  0.5202551408935391  0.25940783157033553  0.6745702130093747  1.0000
  C   C15       1.0  0.66993147580299  0.15384761364602179  0.06210909241062978  1.0000
  C   C16       1.0  0.330060800630683  0.8461757590997647  0.9378889966022184  1.0000
  C   C17       1.0  0.6256287219838157  0.12172633893008816  0.1784077547407179  1.0000
  C   C18       1.0  0.37435857195296757  0.8782767789676312  0.8215864611893764  1.0000
  S   S1        1.0  0.3821429866899421  0.5062669516367818  0.1022997896102282  1.0000
  S   S2        1.0  0.6178702675062197  0.4937223664159588  0.8977089471395415  1.0000
  S   S3        1.0  0.8895763794164822  0.736758193225995  0.31105764537242203  1.0000
  S   S4        1.0  0.110421608029327  0.26324415218862635  0.688928782900028  1.0000
  S   S5        1.0  0.8700708391348683  0.13719968114593675  0.03735588840456219  1.0000
  S   S6        1.0  0.12992027488481028  0.8628138396606956  0.9626360555651842  1.0000
  N   N1        1.0  0.1269382395356971  0.6196498457801736  0.1968518840735953  1.0000
  N   N2        1.0  0.8730706421867181  0.3803580762459475  0.8031506771407207  1.0000
  N   N3        1.0  0.1131229192491787  0.34385587279361823  0.08703434008364042  1.0000
  N   N4        1.0  0.8868659580132813  0.6561555225219351  0.9129429549309689  1.0000
  N   N5        1.0  0.8990654019252274  0.4383517280877456  0.19186839354513546  1.0000
  N   N6        1.0  0.10093685697073339  0.5616565904693402  0.8081203514690145  1.0000
  O   O1        1.0  0.2711052216956276  0.04823289018470691  0.36151650856593415  1.0000
  O   O2        1.0  0.7288988588582512  0.9517576487480922  0.6384897041040957  1.0000
  O   O3        1.0  0.2155671846795641  0.868690370479726  0.4660249032851522  1.0000
  O   O4        1.0  0.7844159006404609  0.13130379791336108  0.5339928762593471  1.0000
  O   O5        1.0  0.5369383778785703  0.8822210611064846  0.38916576627431  1.0000
  O   O6        1.0  0.4630792526672067  0.11776399625428272  0.610833939689975  1.0000
  O   O7        1.0  0.4431965322753513  0.6361446162648575  0.3787318111724287  1.0000
  O   O8        1.0  0.5568075968452604  0.36384574099241  0.6212717400408464  1.0000
  O   O9        1.0  0.7283834243425246  0.09963846270286329  0.26026290862749585  1.0000
  O   O10       1.0  0.2715934195586982  0.9003367676371139  0.7397176861704509  1.0000
  O   O11       1.0  0.47966904506238006  0.12390840054067812  0.19166544429481996  1.0000
  O   O12       1.0  0.5203207841582297  0.8761136339746828  0.8083295287421705  1.0000
  O   O13       1.0  0.7019785127953924  0.4076356857210968  0.40125486126665066  1.0000
  O   O14       1.0  0.2980235382381409  0.5923572775867922  0.5987515378649775  1.0000
  O   O15       1.0  0.34187092285299764  0.3539058636224226  0.3931988066682094  1.0000
  O   O16       1.0  0.6581271449118233  0.6460853736165999  0.6068156753771915  1.0000
