data_image0
_chemical_formula_structural       Cd2H26C30N6O12
_chemical_formula_sum              "Cd2 H26 C30 N6 O12"
_cell_length_a       8.069993733724631
_cell_length_b       9.160279974990804
_cell_length_c       12.966652447687913
_cell_angle_alpha    110.72930301790853
_cell_angle_beta     107.22375555266578
_cell_angle_gamma    89.96365626645668

_space_group_name_H-M_alt    "P 1"
_space_group_IT_number       1

loop_
  _space_group_symop_operation_xyz
  'x, y, z'

loop_
  _atom_site_type_symbol
  _atom_site_label
  _atom_site_symmetry_multiplicity
  _atom_site_fract_x
  _atom_site_fract_y
  _atom_site_fract_z
  _atom_site_occupancy
  Cd  Cd1       1.0  0.09362236836636127  0.5574463947853798  0.6735426614393062  1.0000
  Cd  Cd2       1.0  0.9065551475311436  0.8837648581191785  0.32642885015430784  1.0000
  H   H1        1.0  0.08595560317989741  0.17151504281167013  0.6076521654078632  1.0000
  H   H2        1.0  0.914685392131119  0.5635660682158629  0.39208191157099037  1.0000
  H   H3        1.0  0.26900572090427477  0.9782508868180739  0.6654529080230915  1.0000
  H   H4        1.0  0.7313061933174579  0.3127829067158671  0.3344078599604146  1.0000
  H   H5        1.0  0.645020712282502  0.3667093462010628  0.9229260426446756  1.0000
  H   H6        1.0  0.3551958539967757  0.44407453328685154  0.07725574123615081  1.0000
  H   H7        1.0  0.4527363704465939  0.5446487568248057  0.8486194027791996  1.0000
  H   H8        1.0  0.5477030997307112  0.6960966558337134  0.15150202386612224  1.0000
  H   H9        1.0  0.5092384760144738  0.9308526749597018  0.7898034048476176  1.0000
  H   H10       1.0  0.49079058918746904  0.14124719611237418  0.21015964814581878  1.0000
  H   H11       1.0  0.7941334345213917  0.07425313857103079  0.15794906085197621  1.0000
  H   H12       1.0  0.2055611417721934  0.9166852277446508  0.8421663118281372  1.0000
  H   H13       1.0  0.8562738117718709  0.6025384446531773  0.08408492082268987  1.0000
  H   H14       1.0  0.14346067559153403  0.5186661671759154  0.9156245402589036  1.0000
  H   H15       1.0  0.7871827328647426  0.5508483044231268  0.8699982507460504  1.0000
  H   H16       1.0  0.2123442063075345  0.6811346513242427  0.1297276072259024  1.0000
  H   H17       1.0  0.7080007964005971  0.7659210416809401  0.8005101770358463  1.0000
  H   H18       1.0  0.2917668586035376  0.9658072499872433  0.19948669851942216  1.0000
  H   H19       1.0  0.5931460312044906  0.6458141634198284  0.5469637138266775  1.0000
  H   H20       1.0  0.407038124562753  0.09932796960733009  0.4531028421853661  1.0000
  H   H21       1.0  0.5047640332960411  0.769753301258177  0.40474179777755376  1.0000
  H   H22       1.0  0.49505307663994097  0.36560733789179517  0.5952031582006683  1.0000
  H   H23       1.0  0.050138963136817004  0.792909971165777  0.567750940335891  1.0000
  H   H24       1.0  0.949924182494932  0.2254696834286349  0.4325157308725095  1.0000
  H   H25       1.0  0.8813361608226628  0.8189785494442177  0.6052527110905572  1.0000
  H   H26       1.0  0.11835568067883165  0.21382102512715304  0.39457552645559696  1.0000
  C   C1        1.0  0.21194905143308057  0.2107977081499541  0.6759742623628497  1.0000
  C   C2        1.0  0.7885831168724663  0.534630160418274  0.3238688001059201  1.0000
  C   C3        1.0  0.31359917891403905  0.10319833635842457  0.7089808602046404  1.0000
  C   C4        1.0  0.6867337413058222  0.39420202983098557  0.2909240071076198  1.0000
  C   C5        1.0  0.471121444335516  0.15712359265391737  0.8012672510476762  1.0000
  C   C6        1.0  0.5291021842969312  0.3560097691690557  0.19874933469345274  1.0000
  C   C7        1.0  0.5240009627470242  0.31972083424281544  0.8519405587101687  1.0000
  C   C8        1.0  0.47627436094709447  0.4679676667380761  0.1481563569909525  1.0000
  C   C9        1.0  0.415053896333518  0.4179800787487338  0.8113152735160795  1.0000
  C   C10       1.0  0.5853657343053341  0.6067000811486949  0.18871842975799066  1.0000
  C   C11       1.0  0.6908081065420432  0.07953185278382338  0.9443678195119176  1.0000
  C   C12       1.0  0.3089443088964926  0.1355718990660435  0.05582570004438029  1.0000
  C   C13       1.0  0.7397589501225637  0.9383027570568031  0.9740615546670527  1.0000
  C   C14       1.0  0.2599736450685198  0.9646150193946564  0.026024571778947188  1.0000
  C   C15       1.0  0.7877036856796806  0.9588581596194319  0.09172261948152995  1.0000
  C   C16       1.0  0.2120645969981609  0.8674623762801233  0.9083203156536188  1.0000
  C   C17       1.0  0.8235293308811578  0.6956928483156586  0.049951850815346976  1.0000
  C   C18       1.0  0.17622632606781957  0.646002312153307  0.949853814554082  1.0000
  C   C19       1.0  0.7835784369778124  0.6666275722935353  0.9320824804981525  1.0000
  C   C20       1.0  0.21611153151530255  0.7348434316818452  0.06775079037382166  1.0000
  C   C21       1.0  0.7399166873795052  0.7891994272139087  0.8929791552090478  1.0000
  C   C22       1.0  0.259791703355063  0.896548817052057  0.10700109301327383  1.0000
  C   C23       1.0  0.34987687247346594  0.6467803143551194  0.5893071458110056  1.0000
  C   C24       1.0  0.6501444199948307  0.057683057303584896  0.4106128587249954  1.0000
  C   C25       1.0  0.4615224512173128  0.6805942480562308  0.5249813609102105  1.0000
  C   C26       1.0  0.5386083252722854  0.15604329672088105  0.47503085298649944  1.0000
  C   C27       1.0  0.4133020481224534  0.7501593119427736  0.44703621280562084  1.0000
  C   C28       1.0  0.5866347971284894  0.30369157947219355  0.5529504267731368  1.0000
  C   C29       1.0  0.23858119379836035  0.8008884374186208  0.4092614867277646  1.0000
  C   C30       1.0  0.7612667755332153  0.3922971198037856  0.59086107463024  1.0000
  N   N1        1.0  0.2599189527472063  0.367344261983483  0.7267961059339284  1.0000
  N   N2        1.0  0.7405967265151715  0.640363487927992  0.27311854034454797  1.0000
  N   N3        1.0  0.5622298996112177  0.046794412155001894  0.8388892152151683  1.0000
  N   N4        1.0  0.43781554411586393  0.20819456161188293  0.16118803473791837  1.0000
  N   N5        1.0  0.8265127730006439  0.8397532466944211  0.12848146958930323  1.0000
  N   N6        1.0  0.1733133246216667  0.7115567883237047  0.8714534548436959  1.0000
  O   O1        1.0  0.7567230364377409  0.21307580626520917  0.013789508045029214  1.0000
  O   O2        1.0  0.2428221894897931  0.19976966533128146  0.9865476054770923  1.0000
  O   O3        1.0  0.23164040146820505  0.5295276232213553  0.5354502074307348  1.0000
  O   O4        1.0  0.7684194467584575  0.9943011811540428  0.4644666184388341  1.0000
  O   O5        1.0  0.38158311323616084  0.7345853183043968  0.6955877890389883  1.0000
  O   O6        1.0  0.6183500812073035  0.0390788526620582  0.3043448005304938  1.0000
  O   O7        1.0  0.19951074906828833  0.8350054836027211  0.31836170897412325  1.0000
  O   O8        1.0  0.8002220877651637  0.5173562359374416  0.6817983401670203  1.0000
  O   O9        1.0  0.13007727948416908  0.8108956990836234  0.46605320153582136  1.0000
  O   O10       1.0  0.8699540232571934  0.34559951753965373  0.53413401187602  1.0000
  O   O11       1.0  0.996408572985402  0.7842989808963947  0.625558338088389  1.0000
  O   O12       1.0  0.003481228382064203  0.15878307159126592  0.3746107044654536  1.0000
