data_image0
_chemical_formula_structural       Ag8H104C112N16O16
_chemical_formula_sum              "Ag8 H104 C112 N16 O16"
_cell_length_a       6.707564283795556
_cell_length_b       22.816209288016424
_cell_length_c       24.047040670443195
_cell_angle_alpha    90.00164419742354
_cell_angle_beta     104.53195375509111
_cell_angle_gamma    90.00176373142912

_space_group_name_H-M_alt    "P 1"
_space_group_IT_number       1

loop_
  _space_group_symop_operation_xyz
  'x, y, z'

loop_
  _atom_site_type_symbol
  _atom_site_label
  _atom_site_symmetry_multiplicity
  _atom_site_fract_x
  _atom_site_fract_y
  _atom_site_fract_z
  _atom_site_occupancy
  Ag  Ag1       1.0  0.0544819788857751  0.4649660042328563  0.241146434421232  1.0000
  Ag  Ag2       1.0  0.9454791040886404  0.964964088858693  0.2588461685427674  1.0000
  Ag  Ag3       1.0  0.9454657961966646  0.5350419983298877  0.758841519135288  1.0000
  Ag  Ag4       1.0  0.05454641510505098  0.03503996984109391  0.7411593135715151  1.0000
  Ag  Ag5       1.0  0.45514061288023555  0.5232215499425265  0.2512207229067513  1.0000
  Ag  Ag6       1.0  0.5448582978922971  0.0232230463653522  0.2487781439409176  1.0000
  Ag  Ag7       1.0  0.5448416727069798  0.4767741807110968  0.7487609738457194  1.0000
  Ag  Ag8       1.0  0.4551944868616359  0.9767726852425795  0.7512378352846056  1.0000
  H   H1        1.0  0.16640747212328927  0.3665596307514036  0.333577064772399  1.0000
  H   H2        1.0  0.8334976936131325  0.8665454795326115  0.1664323992046022  1.0000
  H   H3        1.0  0.8335457697524901  0.633447495685978  0.6664349325856803  1.0000
  H   H4        1.0  0.1665131490197496  0.13346383844804421  0.8335694525879234  1.0000
  H   H5        1.0  0.18830640288096837  0.25730202283378395  0.3411607722463046  1.0000
  H   H6        1.0  0.811596447180868  0.7572891380210723  0.1588457553371612  1.0000
  H   H7        1.0  0.8116650159121265  0.7427046654124186  0.6588512702336827  1.0000
  H   H8        1.0  0.1884038939353658  0.24271974144598835  0.841145993177328  1.0000
  H   H9        1.0  0.9354754452965465  0.25077308737438386  0.1571540404567244  1.0000
  H   H10       1.0  0.06456639015368638  0.7507694559996948  0.34284360758213944  1.0000
  H   H11       1.0  0.06453349417780166  0.7492353541841298  0.8428568972166346  1.0000
  H   H12       1.0  0.9354306341041434  0.24922715145596905  0.6571471459262453  1.0000
  H   H13       1.0  0.9193869592957566  0.3603547747442306  0.15864564528042277  1.0000
  H   H14       1.0  0.0806144292635835  0.8603538858367801  0.34135871904765475  1.0000
  H   H15       1.0  0.08058421373225141  0.639650598631363  0.8413655509297442  1.0000
  H   H16       1.0  0.9193821041854305  0.13964140691302165  0.6586407714916049  1.0000
  H   H17       1.0  0.0946549164608825  0.06360989847621569  0.3433865267423926  1.0000
  H   H18       1.0  0.9053471025205723  0.5636119194789799  0.1565972645134011  1.0000
  H   H19       1.0  0.905401736064924  0.9363827649364185  0.6566167069823193  1.0000
  H   H20       1.0  0.09464378103000118  0.4363982745913759  0.8433827625342402  1.0000
  H   H21       1.0  0.092860716300315  0.17202404299951723  0.3434371166783947  1.0000
  H   H22       1.0  0.907111708393465  0.6720282720099605  0.15655472014216087  1.0000
  H   H23       1.0  0.9071354491831443  0.827969935052373  0.6565715340162583  1.0000
  H   H24       1.0  0.0928967998632046  0.3279858667727424  0.8434286628112844  1.0000
  H   H25       1.0  0.043818619607812095  0.1647919915976388  0.1605596114568471  1.0000
  H   H26       1.0  0.9562012071919808  0.6647899093874657  0.3394314116127006  1.0000
  H   H27       1.0  0.9562422716317085  0.8352164502555935  0.8394530055380898  1.0000
  H   H28       1.0  0.04377217457434309  0.3352176548332082  0.6605456826744387  1.0000
  H   H29       1.0  0.041010247029348086  0.05643975892057542  0.1684301124198626  1.0000
  H   H30       1.0  0.9590332865182204  0.5564396241804488  0.3315534162323104  1.0000
  H   H31       1.0  0.9591048676898166  0.943569997958299  0.8315763673962665  1.0000
  H   H32       1.0  0.04089772345866293  0.4435701312486915  0.6684237138303715  1.0000
  H   H33       1.0  0.24670422235984543  0.46135094861696757  0.053174790997985596  1.0000
  H   H34       1.0  0.753335829812592  0.9613535799687726  0.446814864601734  1.0000
  H   H35       1.0  0.7532811964968714  0.5386522331732025  0.9468229103221333  1.0000
  H   H36       1.0  0.24673451770706112  0.03865354691983211  0.5531886147606357  1.0000
  H   H37       1.0  0.09154286725441808  0.39802600339390193  0.0352056924435828  1.0000
  H   H38       1.0  0.9084983343930019  0.8980343501972071  0.4647807131414581  1.0000
  H   H39       1.0  0.9084760803182731  0.6019701660229516  0.9647927967093254  1.0000
  H   H40       1.0  0.09157839974219677  0.10197365331365661  0.5352239096097406  1.0000
  H   H41       1.0  0.7748971369724202  0.4579867050180227  0.025581251812845093  1.0000
  H   H42       1.0  0.22512728456694478  0.9579940950128575  0.4744184072930224  1.0000
  H   H43       1.0  0.2250807270841761  0.5420120935240932  0.9743956420555974  1.0000
  H   H44       1.0  0.7749362467333751  0.042012593600866004  0.5255876625265259  1.0000
  H   H45       1.0  0.7957159923973476  0.5632448584798766  0.04994579533851609  1.0000
  H   H46       1.0  0.2043987314415645  0.06325116084317271  0.4500718080445409  1.0000
  H   H47       1.0  0.2042930069580818  0.43675394054381667  0.9500497094200212  1.0000
  H   H48       1.0  0.7956786781934964  0.9367599106154287  0.5499299271651239  1.0000
  H   H49       1.0  0.06831146834547748  0.5613251749064646  0.0624895901458729  1.0000
  H   H50       1.0  0.9317837432290189  0.0613384809042827  0.4375136698193316  1.0000
  H   H51       1.0  0.9316950742638427  0.4386648584407384  0.937507881533577  1.0000
  H   H52       1.0  0.06828574433551889  0.9386677693588226  0.5624868476576239  1.0000
  H   H53       1.0  0.6656658410339487  0.4298369644069665  0.3352054572991108  1.0000
  H   H54       1.0  0.3343435460771004  0.9298093244244328  0.1648052616509261  1.0000
  H   H55       1.0  0.3344046906911726  0.5701745452522432  0.6647934420444911  1.0000
  H   H56       1.0  0.6656262757014276  0.07019648714852171  0.8352012801965998  1.0000
  H   H57       1.0  0.6934136244406374  0.3218179564942433  0.3414597735924758  1.0000
  H   H58       1.0  0.30653200300834976  0.8217915690568491  0.1585600865254193  1.0000
  H   H59       1.0  0.3066109130428599  0.6781926765960476  0.6585527531794355  1.0000
  H   H60       1.0  0.6934253518402257  0.17821511872988793  0.8414295820727489  1.0000
  H   H61       1.0  0.4342228188147814  0.31675563641400123  0.1574691717299501  1.0000
  H   H62       1.0  0.565640348174348  0.8167645704018581  0.3425553289320789  1.0000
  H   H63       1.0  0.5656736191798258  0.6832278224813919  0.8425505063884201  1.0000
  H   H64       1.0  0.4343126450526427  0.18321450542467937  0.6574349626338858  1.0000
  H   H65       1.0  0.42812069353711013  0.4250233942378757  0.1588177607412717  1.0000
  H   H66       1.0  0.5718043588920806  0.9250275229076694  0.341196262910934  1.0000
  H   H67       1.0  0.5718062637428076  0.5749622559818165  0.8411871240301991  1.0000
  H   H68       1.0  0.42818713816908616  0.07494936191139354  0.6588067383317764  1.0000
  H   H69       1.0  0.5987487486830574  0.126328392003586  0.34203574955839133  1.0000
  H   H70       1.0  0.4011923600771254  0.6263152244671916  0.1579750839600322  1.0000
  H   H71       1.0  0.40122838181610376  0.8736752285280076  0.6579907533878  1.0000
  H   H72       1.0  0.5987933641497775  0.3736857654667177  0.8419976012624275  1.0000
  H   H73       1.0  0.5981493340690137  0.23472897895425152  0.343422807927233  1.0000
  H   H74       1.0  0.40177298674189643  0.7347127016464653  0.1566020169504583  1.0000
  H   H75       1.0  0.4018046452994  0.7652746414323418  0.6566021576721326  1.0000
  H   H76       1.0  0.5982122466500001  0.2652865352966743  0.8433794052959483  1.0000
  H   H77       1.0  0.5329323523784167  0.23028695784317685  0.1600443149247894  1.0000
  H   H78       1.0  0.4670528721760761  0.7302614842564455  0.3399851073223275  1.0000
  H   H79       1.0  0.46714174271952646  0.7697184164195221  0.8399877140318778  1.0000
  H   H80       1.0  0.5328627227273302  0.2697184677944763  0.6599962826666612  1.0000
  H   H81       1.0  0.5330943087735347  0.12123740508988591  0.1665299758183707  1.0000
  H   H82       1.0  0.46690673950129  0.6212125814845919  0.33348070584935385  1.0000
  H   H83       1.0  0.46702381622866795  0.8787666545512354  0.8335025147826229  1.0000
  H   H84       1.0  0.532983922670553  0.37876649364581283  0.6664877966987319  1.0000
  H   H85       1.0  0.49965715143260064  0.576708391394817  0.4581305737789023  1.0000
  H   H86       1.0  0.5003050462100588  0.07671979579979651  0.04187791183482399  1.0000
  H   H87       1.0  0.5002515656656782  0.4232737519963124  0.5418479803717489  1.0000
  H   H88       1.0  0.49975627522360355  0.9232873313169209  0.9581414008499393  1.0000
  H   H89       1.0  0.23046785154193117  0.5709907622296556  0.4499838861126619  1.0000
  H   H90       1.0  0.7694966725333713  0.07102404780594902  0.050019141194823584  1.0000
  H   H91       1.0  0.769453270152923  0.42899138124252556  0.5499956854144017  1.0000
  H   H92       1.0  0.2305733084756696  0.9289953513973119  0.950003928087547  1.0000
  H   H93       1.0  0.25448244320418917  0.4624193386332962  0.4471386578776233  1.0000
  H   H94       1.0  0.7455522727552476  0.9624490024210247  0.052847847232378294  1.0000
  H   H95       1.0  0.7454347481496199  0.5375628047649031  0.5528378032149135  1.0000
  H   H96       1.0  0.2545379718015184  0.03756294580660581  0.9471616010781929  1.0000
  H   H97       1.0  0.712954694456563  0.48185495482363894  0.45624928579764656  1.0000
  H   H98       1.0  0.28708166876500474  0.9818563857274825  0.04375115085473881  1.0000
  H   H99       1.0  0.28696347959080265  0.5181263120684321  0.5437305602770834  1.0000
  H   H100      1.0  0.7130182794107043  0.018160383901360405  0.9562708652687492  1.0000
  H   H101      1.0  0.5836737546243141  0.4134549435985307  0.4464091513808127  1.0000
  H   H102      1.0  0.4163877761331776  0.9134654882960336  0.0535840600512358  1.0000
  H   H103      1.0  0.4162501917437779  0.5865258850213025  0.5535697224394127  1.0000
  H   H104      1.0  0.5836900646793807  0.08654996631040751  0.9464348004880917  1.0000
  C   C1        1.0  0.11644223995187276  0.3383564044513179  0.29591528901831043  1.0000
  C   C2        1.0  0.8834843627662394  0.8383466985926799  0.20408488801800928  1.0000
  C   C3        1.0  0.8835253713696217  0.6616507220137748  0.7040940661585893  1.0000
  C   C4        1.0  0.11651665428302493  0.16166174272356673  0.795914402449192  1.0000
  C   C5        1.0  0.12745392722243307  0.27765669154470635  0.2993621461491003  1.0000
  C   C6        1.0  0.8724826750233061  0.7776559577033028  0.20063819725273646  1.0000
  C   C7        1.0  0.8725214829333438  0.7223486818344188  0.7006480035320094  1.0000
  C   C8        1.0  0.12752098232254377  0.22235467493754169  0.7993545461014762  1.0000
  C   C9        1.0  0.0632417743671496  0.2435069685662441  0.24942709940616228  1.0000
  C   C10       1.0  0.9367403018709908  0.7435081832171306  0.2505708068624273  1.0000
  C   C11       1.0  0.9367643400409589  0.7564962135711112  0.7505845358700468  1.0000
  C   C12       1.0  0.06326464487654698  0.2565002579924283  0.7494211644895897  1.0000
  C   C13       1.0  0.9914492637818738  0.27408688625958894  0.19759871586918354  1.0000
  C   C14       1.0  0.008555382109754794  0.7740825960582641  0.3024027415893826  1.0000
  C   C15       1.0  0.008554824112692924  0.7259176106914965  0.802411152648304  1.0000
  C   C16       1.0  0.9914474763166153  0.22591532635907896  0.6975924660293346  1.0000
  C   C17       1.0  0.9822499616459054  0.3348865969370749  0.1975895135527352  1.0000
  C   C18       1.0  0.01773167848107701  0.8348837158079832  0.3024086478690222  1.0000
  C   C19       1.0  0.017735580618221974  0.6651152701870232  0.8024190404208013  1.0000
  C   C20       1.0  0.9822680483281157  0.16511289182275143  0.6975914143785288  1.0000
  C   C21       1.0  0.085626640298095  0.08804793544728542  0.3039636351075004  1.0000
  C   C22       1.0  0.9143783619390573  0.5880470318101062  0.19602635554081618  1.0000
  C   C23       1.0  0.9144254686800081  0.9119508640208523  0.6960448022069131  1.0000
  C   C24       1.0  0.0856009152270474  0.41196403871039444  0.8039501896787229  1.0000
  C   C25       1.0  0.08435557428911267  0.14875563661190233  0.30336433897673487  1.0000
  C   C26       1.0  0.915635070073776  0.6487569580937915  0.19662610914043196  1.0000
  C   C27       1.0  0.915664786354675  0.8512414095565929  0.6966442308967301  1.0000
  C   C28       1.0  0.08436631416728355  0.35125060631520433  0.8033535915870118  1.0000
  C   C29       1.0  0.0672188677582284  0.17912122071831502  0.2515481595714562  1.0000
  C   C30       1.0  0.932769266162296  0.6791131173281357  0.2484533814410739  1.0000
  C   C31       1.0  0.9328017390698375  0.8208841528792019  0.7484612566827451  1.0000
  C   C32       1.0  0.0672239510169206  0.32089050261991764  0.7515346848682185  1.0000
  C   C33       1.0  0.05218045494795119  0.14471185577802  0.20216470910912676  1.0000
  C   C34       1.0  0.9478339621766378  0.6447047404700256  0.2978309564162486  1.0000
  C   C35       1.0  0.9478717772663924  0.8552935179715748  0.7978441514337788  1.0000
  C   C36       1.0  0.0521429200649663  0.35529887932300136  0.7021529820821044  1.0000
  C   C37       1.0  0.0530446550363308  0.08403795937121572  0.2061643672338604  1.0000
  C   C38       1.0  0.9469863348734788  0.5840342029694057  0.2938280286718323  1.0000
  C   C39       1.0  0.9470374216848326  0.9159678527903029  0.7938430170741809  1.0000
  C   C40       1.0  0.05296487840326596  0.41597160803031846  0.7061509132368117  1.0000
  C   C41       1.0  0.9471716016131777  0.4655306646266909  0.11278193841897628  1.0000
  C   C42       1.0  0.05287484680375341  0.9655451057518647  0.3872177300202466  1.0000
  C   C43       1.0  0.05276364464086919  0.5344541087473403  0.8872045742691909  1.0000
  C   C44       1.0  0.9471923072509155  0.0344589531162072  0.6127851776061135  1.0000
  C   C45       1.0  0.096273024328525  0.44564423363472383  0.0275012328975635  1.0000
  C   C46       1.0  0.9037577807600953  0.9456475394763899  0.4724833974570615  1.0000
  C   C47       1.0  0.9037241847775447  0.554356756772208  0.9724953701417647  1.0000
  C   C48       1.0  0.09631569848152566  0.054362655338437114  0.5275152273042139  1.0000
  C   C49       1.0  0.9251521430229558  0.47620912913408386  0.048640189282465884  1.0000
  C   C50       1.0  0.07490583743079779  0.9762163755099491  0.4513690738801798  1.0000
  C   C51       1.0  0.07482694992545191  0.523786601673976  0.9513513653322292  1.0000
  C   C52       1.0  0.9251580632254174  0.02379338130261741  0.5486486949111224  1.0000
  C   C53       1.0  0.9238171140285516  0.5423386475110092  0.0362087083852813  1.0000
  C   C54       1.0  0.07625021973940697  0.04234323873534861  0.46379438051261695  1.0000
  C   C55       1.0  0.07618666521735656  0.4576562068813886  0.9637844578438645  1.0000
  C   C56       1.0  0.9238039154500725  0.9576599434420887  0.5362053941009249  1.0000
  C   C57       1.0  0.6171046792812476  0.40279957043637893  0.2968114798098753  1.0000
  C   C58       1.0  0.38286297327750407  0.9027816462050923  0.20320653334904654  1.0000
  C   C59       1.0  0.3829146379879377  0.5972053648830168  0.7031987084049193  1.0000
  C   C60       1.0  0.6171105940200191  0.09722022077546912  0.796797269408998  1.0000
  C   C61       1.0  0.6293500421239384  0.34213097511435825  0.2998570439395251  1.0000
  C   C62       1.0  0.37060341861502616  0.8421097522680798  0.2001716467946579  1.0000
  C   C63       1.0  0.3706549677045388  0.6578783431206433  0.7001612128628807  1.0000
  C   C64       1.0  0.6293582348161237  0.15789211448259985  0.7998224015353017  1.0000
  C   C65       1.0  0.5616591043216913  0.3082902231907029  0.24980582798114173  1.0000
  C   C66       1.0  0.43825598380586667  0.8082775623333592  0.2502234688520629  1.0000
  C   C67       1.0  0.43831317472868386  0.6917116441579622  0.7502196058438386  1.0000
  C   C68       1.0  0.5617036424043462  0.19171378553875942  0.7497688125319967  1.0000
  C   C69       1.0  0.49020330907918447  0.33933224640252035  0.1982758561328311  1.0000
  C   C70       1.0  0.5097016741864236  0.8393343733919993  0.30175375442085783  1.0000
  C   C71       1.0  0.5097296059076868  0.6606555955372785  0.8017443354370571  1.0000
  C   C72       1.0  0.49026268023634145  0.16065215338157657  0.6982391728559135  1.0000
  C   C73       1.0  0.48483535672393424  0.40026696807490947  0.19824678226574832  1.0000
  C   C74       1.0  0.5150863059968457  0.9002656445523199  0.3017701919653248  1.0000
  C   C75       1.0  0.5151085501290211  0.5997256948979911  0.8017643460501204  1.0000
  C   C76       1.0  0.484901875515888  0.09972088250036393  0.6982318146179126  1.0000
  C   C77       1.0  0.5847390214157144  0.15113236895483342  0.302471958817641  1.0000
  C   C78       1.0  0.415211807808106  0.6511180857228994  0.1975420721098686  1.0000
  C   C79       1.0  0.41527587550358896  0.8488738814747876  0.6975542855848076  1.0000
  C   C80       1.0  0.5847543270731633  0.34888246583120974  0.80243091681983  1.0000
  C   C81       1.0  0.5859601122965826  0.21208247106880415  0.3028342850624597  1.0000
  C   C82       1.0  0.41398031823972287  0.7120681628061905  0.19718332140123349  1.0000
  C   C83       1.0  0.4140407832875468  0.7879167667985809  0.6971958707837658  1.0000
  C   C84       1.0  0.585988579611964  0.2879209934292248  0.802793972874788  1.0000
  C   C85       1.0  0.5650003170440243  0.2434915988580074  0.2514155235444804  1.0000
  C   C86       1.0  0.43493392068121745  0.7434740269745036  0.24861052161470099  1.0000
  C   C87       1.0  0.4349997188469885  0.7565111452328707  0.7486116704856585  1.0000
  C   C88       1.0  0.565024722166484  0.2565177589381875  0.7513679452305196  1.0000
  C   C89       1.0  0.5456351190093541  0.20958886123445816  0.201575757385136  1.0000
  C   C90       1.0  0.4543381740076313  0.7095745289237458  0.2984412887625751  1.0000
  C   C91       1.0  0.45441250836142894  0.7904086237208505  0.7984537392879361  1.0000
  C   C92       1.0  0.5455979925017972  0.29040849109937744  0.7015327530071076  1.0000
  C   C93       1.0  0.5465275515800129  0.14877031177820754  0.204468330430025  1.0000
  C   C94       1.0  0.4534532078561425  0.648749295838961  0.2955454187986106  1.0000
  C   C95       1.0  0.45354212175151076  0.8512341858088919  0.7955588955802213  1.0000
  C   C96       1.0  0.5464733172489388  0.3512367920054588  0.7044214816200521  1.0000
  C   C97       1.0  0.3503921440075999  0.49405791953073935  0.37450651427084125  1.0000
  C   C98       1.0  0.6496494240745319  0.9940623836473179  0.12549156944540837  1.0000
  C   C99       1.0  0.6495067481882442  0.5059347426033866  0.625469478734729  1.0000
  C   C100      1.0  0.3504654454961128  0.0059456202567034  0.8745244936436835  1.0000
  C   C101      1.0  0.3788920987373814  0.5490456004813353  0.4684077046791444  1.0000
  C   C102      1.0  0.62108312676353  0.04907015572778311  0.031593604286484805  1.0000
  C   C103      1.0  0.6210266277832018  0.4509356663562087  0.5315688306810101  1.0000
  C   C104      1.0  0.3789852568641408  0.950942230813631  0.9684239642663711  1.0000
  C   C105      1.0  0.38240135171083267  0.48913902779802515  0.43979292274524784  1.0000
  C   C106      1.0  0.6176371117858608  0.9891571194526209  0.060211975848702096  1.0000
  C   C107      1.0  0.6175354914529834  0.5108448691096613  0.5601990905476555  1.0000
  C   C108      1.0  0.38246578374914  0.010855705622439905  0.9398097656508638  1.0000
  C   C109      1.0  0.5854461604947119  0.4570238866141382  0.46643671184203583  1.0000
  C   C110      1.0  0.41457096026996954  0.9570262682373784  0.033553808266567786  1.0000
  C   C111      1.0  0.41445905607589134  0.5429613246348384  0.5335349980835389  1.0000
  C   C112      1.0  0.585501414720383  0.04298480343695841  0.9664618674874176  1.0000
  N   N1        1.0  0.04298023180911059  0.3668419288297003  0.2459581881538924  1.0000
  N   N2        1.0  0.9569783930184811  0.8668294457547675  0.2540476120459942  1.0000
  N   N3        1.0  0.9569875025390289  0.6331682656376431  0.754051590196042  1.0000
  N   N4        1.0  0.043026553769230716  0.13316891508276293  0.745954788696281  1.0000
  N   N5        1.0  0.0692738684262224  0.055546446186220115  0.2562099507606206  1.0000
  N   N6        1.0  0.9307495396445373  0.5555508704786548  0.24377758725680818  1.0000
  N   N7        1.0  0.9308036022706501  0.9444532299592867  0.743797210605905  1.0000
  N   N8        1.0  0.0692106394441083  0.44445800855427114  0.7562009541402759  1.0000
  N   N9        1.0  0.5436991461701055  0.4318005208813815  0.2470123093853189  1.0000
  N   N10       1.0  0.45628757180447355  0.9317881406778098  0.2530082103754481  1.0000
  N   N11       1.0  0.4562938263199642  0.5681982782781745  0.7529957696981101  1.0000
  N   N12       1.0  0.5437031277781726  0.06820013958726891  0.7469972555130654  1.0000
  N   N13       1.0  0.5646857143335139  0.1192917853890592  0.2541979789892039  1.0000
  N   N14       1.0  0.4352840290835615  0.6192780647584116  0.24580988630084016  1.0000
  N   N15       1.0  0.43536443129058716  0.8807105207729437  0.7458349770376672  1.0000
  N   N16       1.0  0.5646547782726472  0.38071635057220027  0.7541576085014441  1.0000
  O   O1        1.0  0.1198195882744741  0.4807863504553255  0.14678907602935  1.0000
  O   O2        1.0  0.8802390618981163  0.9807984318578634  0.3532103255857919  1.0000
  O   O3        1.0  0.8800686195633813  0.5192028056106254  0.853202252837164  1.0000
  O   O4        1.0  0.1198356453043488  0.019203873908331604  0.6467925302957624  1.0000
  O   O5        1.0  0.7967275451149191  0.4437964949356754  0.1284356906724469  1.0000
  O   O6        1.0  0.20334461427471948  0.9438132471651743  0.3715617397156947  1.0000
  O   O7        1.0  0.20320075992643186  0.5561733763924934  0.8715321300202065  1.0000
  O   O8        1.0  0.796763192249557  0.056185990854288506  0.6284456379001284  1.0000
  O   O9        1.0  0.21410376674899825  0.46055901891299567  0.3440736513912769  1.0000
  O   O10       1.0  0.7859161096790286  0.9605554119285244  0.1559145902730776  1.0000
  O   O11       1.0  0.7857573596816889  0.5394419704456086  0.655902600331352  1.0000
  O   O12       1.0  0.2142319814401006  0.039449962340953  0.844095988132011  1.0000
  O   O13       1.0  0.46392011617145096  0.5299655455171433  0.3559474667397708  1.0000
  O   O14       1.0  0.5361348691894392  0.029963324536161903  0.14406471707986407  1.0000
  O   O15       1.0  0.5360142708348689  0.4700301849236937  0.6440360842501676  1.0000
  O   O16       1.0  0.46397748250866033  0.9700354754928286  0.8559583161357978  1.0000
