data_image0
_chemical_formula_structural       Cu2P2H40C48N2Cl2
_chemical_formula_sum              "Cu2 P2 H40 C48 N2 Cl2"
_cell_length_a       8.13074677099791
_cell_length_b       11.334439665786446
_cell_length_c       13.473816457755843
_cell_angle_alpha    110.03367499973311
_cell_angle_beta     93.39698977470212
_cell_angle_gamma    99.15825531943497

_space_group_name_H-M_alt    "P 1"
_space_group_IT_number       1

loop_
  _space_group_symop_operation_xyz
  'x, y, z'

loop_
  _atom_site_type_symbol
  _atom_site_label
  _atom_site_symmetry_multiplicity
  _atom_site_fract_x
  _atom_site_fract_y
  _atom_site_fract_z
  _atom_site_occupancy
  Cu  Cu1       1.0  0.4996824992568847  0.3831797618257865  0.9187855037484098  1.0000
  Cu  Cu2       1.0  0.5003052360291704  0.616823160582058  0.08121522890780854  1.0000
  P   P1        1.0  0.3638707558833828  0.31436485057935215  0.759412371825448  1.0000
  P   P2        1.0  0.6361248889110627  0.6856295974503935  0.24058700871595562  1.0000
  H   H1        1.0  0.8551747152944031  0.37997187742520566  0.8960280551817021  1.0000
  H   H2        1.0  0.14481250227079553  0.6200396658309869  0.10398028927870942  1.0000
  H   H3        1.0  0.06406046886000638  0.24879859523839798  0.9176894538680003  1.0000
  H   H4        1.0  0.9359302608269502  0.7512119899763262  0.08231281563188024  1.0000
  H   H5        1.0  0.6825561683821774  0.038485264274172  0.0364149111751004  1.0000
  H   H6        1.0  0.31743485958796197  0.9615157434781024  0.9635794678701758  1.0000
  H   H7        1.0  0.49406849270344827  0.1832366258379921  0.015128855766036493  1.0000
  H   H8        1.0  0.5059169243275292  0.8167614662740587  0.9848667129203578  1.0000
  H   H9        1.0  0.1425232640156793  0.09214767385305578  0.9782076830277404  1.0000
  H   H10       1.0  0.857467393889138  0.9078571691272688  0.021790734517544912  1.0000
  H   H11       1.0  0.31382668464701174  0.11371550334557409  0.5419983657392251  1.0000
  H   H12       1.0  0.6861726455548407  0.886289408892779  0.45799520528851917  1.0000
  H   H13       1.0  0.5036444357943566  0.062352926564891206  0.4009011538966761  1.0000
  H   H14       1.0  0.4963603636354037  0.9376596744902271  0.599093313101669  1.0000
  H   H15       1.0  0.7923028063587338  0.18968850497711992  0.43241954975898284  1.0000
  H   H16       1.0  0.20770263355119306  0.810327003251565  0.5675802162680058  1.0000
  H   H17       1.0  0.891138597206968  0.37064922076920936  0.6042426171121917  1.0000
  H   H18       1.0  0.10885932266267415  0.6293605169704148  0.3957611703492532  1.0000
  H   H19       1.0  0.702482857680323  0.4218918757037998  0.7452795584087113  1.0000
  H   H20       1.0  0.2975134335385619  0.5781054670557707  0.25472363346887056  1.0000
  H   H21       1.0  0.15108484071298275  0.4750960352737222  0.8788571139184783  1.0000
  H   H22       1.0  0.8489074723087455  0.5248945167365945  0.12113658597069589  1.0000
  H   H23       1.0  0.986572863048373  0.6261280197509792  0.8424415785159951  1.0000
  H   H24       1.0  0.013425496815713703  0.3738673673496463  0.1575522328791266  1.0000
  H   H25       1.0  0.0015641010608220872  0.668191415207275  0.6726336276415809  1.0000
  H   H26       1.0  0.9984423267366153  0.3318069508746929  0.32736281631676434  1.0000
  H   H27       1.0  0.17603591244838407  0.5550385661817784  0.5388585968168869  1.0000
  H   H28       1.0  0.8239848376738763  0.44496859547344064  0.4611438452459637  1.0000
  H   H29       1.0  0.3299481267737647  0.39788617693057654  0.5721019303623365  1.0000
  H   H30       1.0  0.6700687020727899  0.6021199673191547  0.4278985908978755  1.0000
  H   H31       1.0  0.3801020713039804  0.08426927953431117  0.8003019907018896  1.0000
  H   H32       1.0  0.6199119796072026  0.9157301647445163  0.19969801621130753  1.0000
  H   H33       1.0  0.17559083379981638  0.88310281828511  0.768142142870964  1.0000
  H   H34       1.0  0.8244364973162915  0.1168901541948415  0.231860250559528  1.0000
  H   H35       1.0  0.8845462712645117  0.8542023372062882  0.681456325647602  1.0000
  H   H36       1.0  0.1154776745804043  0.14578685124795498  0.3185537763628616  1.0000
  H   H37       1.0  0.8023681059091599  0.026560521536794095  0.6245289209452097  1.0000
  H   H38       1.0  0.19763612313729337  0.9734179185399582  0.375477395098507  1.0000
  H   H39       1.0  0.006592982099562096  0.2246399087666617  0.6545657508851335  1.0000
  H   H40       1.0  0.9934002488805616  0.7753440165078729  0.3454305645017186  1.0000
  C   C1        1.0  0.8222373318584815  0.30198065945452157  0.9255775137752239  1.0000
  C   C2        1.0  0.17775418893630499  0.6980280410916108  0.0744257376028798  1.0000
  C   C3        1.0  0.937198160449398  0.22819212702676586  0.9371056456955105  1.0000
  C   C4        1.0  0.06279190795242329  0.7718155945675065  0.06289653169936571  1.0000
  C   C5        1.0  0.8915122190644522  0.12892091228420802  0.9762627665930312  1.0000
  C   C6        1.0  0.10847596104120778  0.8710839109081121  0.023737035671544535  1.0000
  C   C7        1.0  0.7266855689519005  0.11157161838927013  0.003449249022594423  1.0000
  C   C8        1.0  0.2733066890014014  0.8884294179226229  0.9965466692017346  1.0000
  C   C9        1.0  0.6201303070358576  0.19093212728657247  0.991214126103003  1.0000
  C   C10       1.0  0.37985867903832127  0.8090707801277832  0.008782938808636299  1.0000
  C   C11       1.0  0.015194476295590694  0.05416015992427959  0.9886767723728696  1.0000
  C   C12       1.0  0.9847949456817844  0.9458446669401681  0.011321593685828288  1.0000
  C   C13       1.0  0.49578559759871155  0.27123777038213603  0.6524170498997607  1.0000
  C   C14       1.0  0.5042161029545011  0.7287614940723015  0.3475802106088892  1.0000
  C   C15       1.0  0.44010975414659725  0.17045821753975327  0.5550987182971596  1.0000
  C   C16       1.0  0.5598885536211995  0.8295476476405808  0.4448965675868807  1.0000
  C   C17       1.0  0.5464940154705145  0.1417722323199939  0.4760204760659762  1.0000
  C   C18       1.0  0.4535056089232725  0.8582393725449932  0.5239764817205526  1.0000
  C   C19       1.0  0.7089289236751738  0.2132551411804755  0.49371852178826714  1.0000
  C   C20       1.0  0.2910719217853668  0.7867565109097611  0.5062822067160084  1.0000
  C   C21       1.0  0.7646546122167166  0.3141727995047887  0.5902999451031762  1.0000
  C   C22       1.0  0.23534286283332048  0.6858350374503671  0.4097047727499117  1.0000
  C   C23       1.0  0.6591731359597476  0.3432137051047448  0.6696018259331922  1.0000
  C   C24       1.0  0.3408265078368159  0.6567874901211469  0.33040183967298026  1.0000
  C   C25       1.0  0.24795055712379377  0.42437672159292816  0.7268674787860621  1.0000
  C   C26       1.0  0.7520473519764151  0.5756167771669709  0.27312875069316794  1.0000
  C   C27       1.0  0.15247972961058306  0.4906782126533569  0.8032253207484032  1.0000
  C   C28       1.0  0.8475171689441225  0.509316214161025  0.196769648202185  1.0000
  C   C29       1.0  0.06309903565136211  0.5773853313832049  0.7835739851163341  1.0000
  C   C30       1.0  0.9369007736335533  0.42261104089115514  0.21642164410825873  1.0000
  C   C31       1.0  0.0717452200000253  0.6008469211069993  0.6884348674042116  1.0000
  C   C32       1.0  0.9282593046405623  0.3991485776823821  0.31156292065500674  1.0000
  C   C33       1.0  0.16856271500245862  0.5368799725083588  0.6129385190919407  1.0000
  C   C34       1.0  0.8314461727613034  0.4631184506928534  0.38706100322450254  1.0000
  C   C35       1.0  0.25547910963776127  0.4482255851698085  0.6316068364024688  1.0000
  C   C36       1.0  0.7445281122396493  0.5517708900216859  0.3683898455878634  1.0000
  C   C37       1.0  0.2076237805917316  0.16760538950052248  0.7285592795027968  1.0000
  C   C38       1.0  0.79237825733329  0.8323901081664645  0.2714421248144134  1.0000
  C   C39       1.0  0.2536176842624585  0.0703190021146582  0.7605247273297663  1.0000
  C   C40       1.0  0.7463909662308197  0.9296785018036854  0.23947897941366847  1.0000
  C   C41       1.0  0.13856446054730032  0.9578265720314644  0.7428851228852766  1.0000
  C   C42       1.0  0.8614539788341062  0.04216537457635639  0.2571218384123384  1.0000
  C   C43       1.0  0.9755091528277758  0.94136839923528  0.6939495192995296  1.0000
  C   C44       1.0  0.024507958039087892  0.05861783257537208  0.3060587454805345  1.0000
  C   C45       1.0  0.9292562270441705  0.03750617901880559  0.6620214748745923  1.0000
  C   C46       1.0  0.07075405181677744  0.9624770899263876  0.3379842088288356  1.0000
  C   C47       1.0  0.04477349076724828  0.14983971968653975  0.6788363475629711  1.0000
  C   C48       1.0  0.955227005149851  0.8501490941254275  0.3211645938938049  1.0000
  N   N1        1.0  0.6648578174937328  0.2847985512862579  0.9518768006863997  1.0000
  N   N2        1.0  0.33512934315001514  0.7152072186261689  0.048123972588243205  1.0000
  Cl  Cl1       1.0  0.3259518100811292  0.41118043189565157  0.055993245226119426  1.0000
  Cl  Cl2       1.0  0.6740381776221369  0.5888215661298446  0.9440073117528558  1.0000
