data_image0
_chemical_formula_structural       Zn2H68C72N2O12
_chemical_formula_sum              "Zn2 H68 C72 N2 O12"
_cell_length_a       18.696096490945674
_cell_length_b       19.51711428291324
_cell_length_c       19.50844672730736
_cell_angle_alpha    85.34427698877663
_cell_angle_beta     89.64645295656544
_cell_angle_gamma    89.6620155665101

_space_group_name_H-M_alt    "P 1"
_space_group_IT_number       1

loop_
  _space_group_symop_operation_xyz
  'x, y, z'

loop_
  _atom_site_type_symbol
  _atom_site_label
  _atom_site_symmetry_multiplicity
  _atom_site_fract_x
  _atom_site_fract_y
  _atom_site_fract_z
  _atom_site_occupancy
  Zn  Zn1       1.0  0.4177057982685851  0.5007172123160899  0.5014326132820626  1.0000
  Zn  Zn2       1.0  0.5817097159266993  0.5001566083343364  0.5003226208726019  1.0000
  H   H1        1.0  0.5535161303866333  0.13873496200515228  0.5781975800699256  1.0000
  H   H2        1.0  0.4049978740561285  0.8265796102211953  0.5884554844549398  1.0000
  H   H3        1.0  0.5466820679536964  0.8607431391511188  0.414844199629556  1.0000
  H   H4        1.0  0.4005977756368607  0.17562235109931384  0.4156889345821355  1.0000
  H   H5        1.0  0.44749185699264865  0.42089589698426993  0.8621770674476604  1.0000
  H   H6        1.0  0.5951453215471715  0.4137143053512418  0.1747364636015405  1.0000
  H   H7        1.0  0.4506790174669105  0.5849072086945527  0.14014604587524807  1.0000
  H   H8        1.0  0.5977912804505222  0.5857156198588813  0.8253873719277393  1.0000
  H   H9        1.0  0.4659317884139398  0.05638819225030291  0.6092406963903656  1.0000
  H   H10       1.0  0.45833746456175106  0.9446296239628256  0.3900516447148519  1.0000
  H   H11       1.0  0.4662026941062932  0.9295648641940419  0.6111919210283075  1.0000
  H   H12       1.0  0.45975458751068027  0.07146108552645103  0.38802032945702075  1.0000
  H   H13       1.0  0.5357003308930288  0.3913737303299102  0.9448994761744984  1.0000
  H   H14       1.0  0.5389266733671575  0.6109755310850389  0.056150253931129185  1.0000
  H   H15       1.0  0.5350586332978579  0.3897664134650825  0.0717622054644735  1.0000
  H   H16       1.0  0.5378836523402127  0.6125535106440553  0.929314829630641  1.0000
  H   H17       1.0  0.0690968418072799  0.5260693406396373  0.5934779462119761  1.0000
  H   H18       1.0  0.93087223348774  0.46174954351690195  0.3919115235749402  1.0000
  H   H19       1.0  0.06350739767660228  0.45835127877337806  0.38901224946088314  1.0000
  H   H20       1.0  0.9363425685227469  0.5270268567910535  0.5974271868863283  1.0000
  H   H21       1.0  0.2725016832425524  0.36627869061983637  0.613504576858304  1.0000
  H   H22       1.0  0.32760595196546655  0.34996637340263004  0.5418708391106007  1.0000
  H   H23       1.0  0.3548087727285675  0.4114677802709253  0.5973628381991317  1.0000
  H   H24       1.0  0.7245310498158302  0.6125221099064576  0.3634850507620512  1.0000
  H   H25       1.0  0.6729480444092174  0.5384654326520179  0.35229031112353937  1.0000
  H   H26       1.0  0.6426104697888986  0.5970930982694539  0.41029738606944477  1.0000
  H   H27       1.0  0.27398986530989317  0.64453640214051  0.39804176100851396  1.0000
  H   H28       1.0  0.3285158431486579  0.6422185211367903  0.47228070410206874  1.0000
  H   H29       1.0  0.35498410540333225  0.5949124777627122  0.40357145436998104  1.0000
  H   H30       1.0  0.7249165540848564  0.3857360144644846  0.6345454933021768  1.0000
  H   H31       1.0  0.6754535818828487  0.4616183597638825  0.6462718818044519  1.0000
  H   H32       1.0  0.6423826515370195  0.4032373150285623  0.5900753732519346  1.0000
  H   H33       1.0  0.19802575865896438  0.3095629270046132  0.5052633482384081  1.0000
  H   H34       1.0  0.11208990341632588  0.34376740636974296  0.4784909818050592  1.0000
  H   H35       1.0  0.12022069869706088  0.2906464540881616  0.557664305221067  1.0000
  H   H36       1.0  0.8234377790507139  0.6695438078250718  0.4262158015648936  1.0000
  H   H37       1.0  0.893842867615774  0.6608416885288194  0.3642647501272335  1.0000
  H   H38       1.0  0.9068845298139862  0.6294567092703506  0.4523674080679072  1.0000
  H   H39       1.0  0.1999318029992168  0.5897195461729298  0.32715889352574107  1.0000
  H   H40       1.0  0.1287915639672761  0.6513961963671733  0.33221433687854324  1.0000
  H   H41       1.0  0.1093456648527109  0.5611926335200936  0.3407999040697973  1.0000
  H   H42       1.0  0.8207390731809453  0.32457557378574364  0.571056950606227  1.0000
  H   H43       1.0  0.8928498229533304  0.33261067124570337  0.6304174852543623  1.0000
  H   H44       1.0  0.9045130583147267  0.36134827286119287  0.5412993819472048  1.0000
  H   H45       1.0  0.5713553790639024  0.309946251767606  0.6220244740376443  1.0000
  H   H46       1.0  0.608942821175553  0.22568407997631829  0.6283643648797294  1.0000
  H   H47       1.0  0.6390693034589533  0.28918610853413906  0.5640252426944626  1.0000
  H   H48       1.0  0.3683002633034818  0.6621801392804445  0.5816639424196665  1.0000
  H   H49       1.0  0.4473105056829709  0.6487244009801573  0.6286325436018102  1.0000
  H   H50       1.0  0.3906193922281601  0.7190223027343522  0.6450130586972023  1.0000
  H   H51       1.0  0.5635146593277797  0.6867613888750698  0.3746098903431658  1.0000
  H   H52       1.0  0.5978328923018594  0.7716941723702179  0.3612253608859461  1.0000
  H   H53       1.0  0.6347824880352916  0.7119041359919934  0.4253717786291418  1.0000
  H   H54       1.0  0.36148777248458686  0.33754251110410394  0.4276729781409188  1.0000
  H   H55       1.0  0.43786343340028816  0.35524645012979766  0.3772933937097348  1.0000
  H   H56       1.0  0.38360348461287685  0.28382731633529806  0.3610230392859036  1.0000
  H   H57       1.0  0.43011908552249156  0.37823864873631413  0.689860860782872  1.0000
  H   H58       1.0  0.3938232489023363  0.3693727157586296  0.7746566173066185  1.0000
  H   H59       1.0  0.36103474808704306  0.4338916182352647  0.7127374437400746  1.0000
  H   H60       1.0  0.6320079223518107  0.4220342539180138  0.33896950947006127  1.0000
  H   H61       1.0  0.55403205814288  0.3735413415392019  0.3528086713261374  1.0000
  H   H62       1.0  0.6109230850305635  0.35804015792654553  0.28232087549724116  1.0000
  H   H63       1.0  0.43370910529394974  0.6261855209119674  0.3134657203417248  1.0000
  H   H64       1.0  0.3980381784735131  0.6376133331811078  0.2289145096683356  1.0000
  H   H65       1.0  0.3632220837276207  0.5734413703972125  0.29019108257119797  1.0000
  H   H66       1.0  0.6378964575429364  0.5743832235622437  0.664521483650006  1.0000
  H   H67       1.0  0.5608678598212081  0.6232737459267098  0.6451245680486152  1.0000
  H   H68       1.0  0.6134795175841532  0.6411659873271986  0.7171300726396976  1.0000
  C   C1        1.0  0.49121756491516777  0.5017315006595808  0.3677125687254019  1.0000
  C   C2        1.0  0.4918043389944771  0.49995373126714093  0.6338394440316151  1.0000
  C   C3        1.0  0.5080729285223596  0.633588305066418  0.49992295379162494  1.0000
  C   C4        1.0  0.507332726531679  0.36717187525375306  0.5007549575535393  1.0000
  C   C5        1.0  0.46466432118344864  0.031879760358180007  0.5609461338869223  1.0000
  C   C6        1.0  0.4604185159835125  0.9691312958079766  0.43831304469757265  1.0000
  C   C7        1.0  0.4639836274047012  0.960523644826914  0.5620687380857561  1.0000
  C   C8        1.0  0.460405850368609  0.0405173246229253  0.4372124402622573  1.0000
  C   C9        1.0  0.5359366606039515  0.4397439164854761  0.9692902544341065  1.0000
  C   C10       1.0  0.5377827184338669  0.5625940356920296  0.03180992860100669  1.0000
  C   C11       1.0  0.5364377650641143  0.438840677529541  0.040688232598128586  1.0000
  C   C12       1.0  0.5380150618058153  0.5634733734712114  0.9604092527178096  1.0000
  C   C13       1.0  0.4643598088492879  0.9276711662569214  0.5005948037170924  1.0000
  C   C14       1.0  0.46503159029526836  0.07331720942102042  0.49851113769459227  1.0000
  C   C15       1.0  0.5347598363292576  0.5003626209728652  0.07342198363458857  1.0000
  C   C16       1.0  0.534485917694603  0.502053984610953  0.9277006540673368  1.0000
  C   C17       1.0  0.9246953710219116  0.49491780539418084  0.49470414507545235  1.0000
  C   C18       1.0  0.0751350669997564  0.4931263712958868  0.4907294491899704  1.0000
  C   C19       1.0  0.26826674490429525  0.44524609655306363  0.5315545007594122  1.0000
  C   C20       1.0  0.7310842340734139  0.5346184590212318  0.4469348535192167  1.0000
  C   C21       1.0  0.2678687487416056  0.5506946177642649  0.46323070003072786  1.0000
  C   C22       1.0  0.7314695821858095  0.46257737258450504  0.5499878284924262  1.0000
  C   C23       1.0  0.19343339374304233  0.441643033308175  0.5271298360037234  1.0000
  C   C24       1.0  0.8061669537704217  0.5345087582472843  0.4454587361563327  1.0000
  C   C25       1.0  0.19300767416089568  0.5484600640816029  0.4576867414375982  1.0000
  C   C26       1.0  0.8065427818769563  0.4602236593745916  0.549057911661329  1.0000
  C   C27       1.0  0.5368653924497977  0.24480233459655662  0.5433481901235807  1.0000
  C   C28       1.0  0.4513749601821359  0.7355796281191406  0.551106316940185  1.0000
  C   C29       1.0  0.5330967183316346  0.7551474671179793  0.4526371096783066  1.0000
  C   C30       1.0  0.4485679050117852  0.2659614160853964  0.4514336796441042  1.0000
  C   C31       1.0  0.4633352392354055  0.4564305406111728  0.7561057130229897  1.0000
  C   C32       1.0  0.5482912586037968  0.45071439759404824  0.2657121322551745  1.0000
  C   C33       1.0  0.46491144833918696  0.5477404318266538  0.24591673394279207  1.0000
  C   C34       1.0  0.5501722948964413  0.5496703601867737  0.735010897173076  1.0000
  C   C35       1.0  0.5235088288253706  0.17452176221088686  0.5432031609514567  1.0000
  C   C36       1.0  0.44093257294792904  0.8066273979066383  0.550376816226219  1.0000
  C   C37       1.0  0.5192748191992322  0.8255275772444294  0.4524872148274993  1.0000
  C   C38       1.0  0.4387555654544855  0.194957849327011  0.4515400319560641  1.0000
  C   C39       1.0  0.47677837511145776  0.4565464282549386  0.8264049711690261  1.0000
  C   C40       1.0  0.5585903737450763  0.45129879767178244  0.19461963420254583  1.0000
  C   C41       1.0  0.47866431400342435  0.5478363166387937  0.17548579740778075  1.0000
  C   C42       1.0  0.5600467918798201  0.549490088862676  0.8060397210291583  1.0000
  C   C43       1.0  0.4747997768641667  0.14833080834500834  0.4977716091240224  1.0000
  C   C44       1.0  0.47373790853340825  0.85250831800208  0.5010426546144373  1.0000
  C   C45       1.0  0.5247421700772391  0.5026483430833437  0.8526358259123795  1.0000
  C   C46       1.0  0.5250579837716955  0.4999703683550791  0.14858775514258576  1.0000
  C   C47       1.0  0.0386114424450668  0.5118205692433123  0.5493996528605647  1.0000
  C   C48       1.0  0.9612005701559525  0.475763487451424  0.4361460688099682  1.0000
  C   C49       1.0  0.03573654705251529  0.4744089091537306  0.4344304851298587  1.0000
  C   C50       1.0  0.9642324346358748  0.5125318546942665  0.5515428230517044  1.0000
  C   C51       1.0  0.15446984257297908  0.4937200756897013  0.490385059340511  1.0000
  C   C52       1.0  0.8456480393704806  0.49647815851654553  0.496437289464474  1.0000
  C   C53       1.0  0.49819232829334925  0.290927239057858  0.49778753954812044  1.0000
  C   C54       1.0  0.49815425691888743  0.709927642122615  0.5018932669704695  1.0000
  C   C55       1.0  0.5011275011185674  0.5028013648730366  0.7100624653030678  1.0000
  C   C56       1.0  0.500783450697824  0.49934413745192796  0.29133265616368925  1.0000
  C   C57       1.0  0.30795883658467454  0.3902030429339192  0.5736474197204869  1.0000
  C   C58       1.0  0.6906239102034417  0.5733280123306982  0.390287578425692  1.0000
  C   C59       1.0  0.30816451362392167  0.6114482542748547  0.4319834436657358  1.0000
  C   C60       1.0  0.6914282921182746  0.4257182777909421  0.6082577013738443  1.0000
  C   C61       1.0  0.1466400296162647  0.3298530711297971  0.5231076028115352  1.0000
  C   C62       1.0  0.867729506829363  0.636656551150793  0.41042120367460905  1.0000
  C   C63       1.0  0.14849116545106966  0.6006517689000076  0.35203131172822566  1.0000
  C   C64       1.0  0.8662470456921838  0.35645982276021476  0.5845466469965501  1.0000
  C   C65       1.0  0.5918187066759941  0.26856246444226883  0.5921953734136307  1.0000
  C   C66       1.0  0.41260185068740896  0.6891528251369936  0.6044008391038104  1.0000
  C   C67       1.0  0.58481490511884  0.7301408656310501  0.40055240644478113  1.0000
  C   C68       1.0  0.4059331561999143  0.31291217570689883  0.4016694601730108  1.0000
  C   C69       1.0  0.40936910138484  0.4067228837162773  0.7321434822580385  1.0000
  C   C70       1.0  0.5881929900261085  0.3982916340673412  0.3121908002642043  1.0000
  C   C71       1.0  0.4123525849863086  0.5991290671058566  0.2708263636449075  1.0000
  C   C72       1.0  0.5924412152563292  0.5998417360106318  0.6881389365672135  1.0000
  N   N1        1.0  0.303938641279032  0.4993073163210653  0.4995964931489424  1.0000
  N   N2        1.0  0.6951877282865694  0.4990564451594113  0.498962255267827  1.0000
  O   O1        1.0  0.42836778733615677  0.5000564852709459  0.39312128907546645  1.0000
  O   O2        1.0  0.5497148756121673  0.4946021094234967  0.5999242111406886  1.0000
  O   O3        1.0  0.4289954474154811  0.5021477285997734  0.6089569700076608  1.0000
  O   O4        1.0  0.5491000380757567  0.5061111955916716  0.40110655238649423  1.0000
  O   O5        1.0  0.5709832994863432  0.6084222887198509  0.501901850424467  1.0000
  O   O6        1.0  0.44932426666825614  0.4009311855917304  0.5061163595051282  1.0000
  O   O7        1.0  0.5700487517566585  0.3921685914991144  0.4984968066045639  1.0000
  O   O8        1.0  0.4503765392329342  0.5999193535184022  0.49556896105148235  1.0000
  O   O9        1.0  0.15746766381966634  0.38805226231185225  0.5625138725370462  1.0000
  O   O10       1.0  0.8409130697200737  0.5716204872261558  0.39196405321342803  1.0000
  O   O11       1.0  0.15652972315825756  0.6034443935876939  0.42501679266695186  1.0000
  O   O12       1.0  0.8416371480962965  0.4229100487103993  0.6020410262780942  1.0000
