data_image0
_chemical_formula_structural       Zn8H36C54O26
_chemical_formula_sum              "Zn8 H36 C54 O26"
_cell_length_a       18.36140348623441
_cell_length_b       18.349566642551597
_cell_length_c       18.277456684256713
_cell_angle_alpha    119.9016716223924
_cell_angle_beta     119.69246714067204
_cell_angle_gamma    90.02473992409266

_space_group_name_H-M_alt    "P 1"
_space_group_IT_number       1

loop_
  _space_group_symop_operation_xyz
  'x, y, z'

loop_
  _atom_site_type_symbol
  _atom_site_label
  _atom_site_symmetry_multiplicity
  _atom_site_fract_x
  _atom_site_fract_y
  _atom_site_fract_z
  _atom_site_occupancy
  Zn  Zn1       1.0  0.061788960259463066  0.9575737038464995  0.10805486114900727  1.0000
  Zn  Zn2       1.0  0.0671204814301091  0.9585126160819185  0.935885570044675  1.0000
  Zn  Zn3       1.0  0.0679077622557429  0.13325513328571503  0.11111416231008055  1.0000
  Zn  Zn4       1.0  0.8921928868920475  0.9619787839572213  0.9344980249212252  1.0000
  Zn  Zn5       1.0  0.4781062810561067  0.5448199326583775  0.9365660687886073  1.0000
  Zn  Zn6       1.0  0.4802995752093651  0.5464295581767401  0.11198166569087664  1.0000
  Zn  Zn7       1.0  0.654631221542438  0.5482929279553517  0.1095365605531029  1.0000
  Zn  Zn8       1.0  0.4803757260494876  0.37182211235947443  0.9366418135858222  1.0000
  H   H1        1.0  0.17723039282797265  0.7509378604807397  0.0841567776226242  1.0000
  H   H2        1.0  0.27790406198138834  0.6583664117783454  0.0852500866335786  1.0000
  H   H3        1.0  0.3820765914919662  0.7258205135296478  0.9061531723694142  1.0000
  H   H4        1.0  0.4051284550868388  0.8428781582772515  0.985084096000875  1.0000
  H   H5        1.0  0.47003383984610975  0.7879281215764847  0.03723258059154919  1.0000
  H   H6        1.0  0.2819022366426794  0.8632912997643984  0.9851180098503742  1.0000
  H   H7        1.0  0.2454322926197463  0.0892344134488496  0.42985637416005307  1.0000
  H   H8        1.0  0.33993573083731116  0.18955203134939316  0.6226403734161675  1.0000
  H   H9        1.0  0.332230541668295  0.48299860194089206  0.6628035581065103  1.0000
  H   H10       1.0  0.21701160069654435  0.4448684226985905  0.5638165043448068  1.0000
  H   H11       1.0  0.2530424570553648  0.4585864860836111  0.681564883369013  1.0000
  H   H12       1.0  0.1768436827509419  0.309961028596483  0.42223245126773873  1.0000
  H   H13       1.0  0.9219091056165638  0.8226744117039361  0.14782394321123601  1.0000
  H   H14       1.0  0.8239036812413261  0.7219038662257803  0.14222021216892936  1.0000
  H   H15       1.0  0.5329765877416006  0.6594098179604442  0.8266833216297081  1.0000
  H   H16       1.0  0.5760759293391614  0.6345808351174044  0.7514595743892581  1.0000
  H   H17       1.0  0.5625789145717379  0.5626808984896102  0.7859601000437306  1.0000
  H   H18       1.0  0.7060419886014417  0.7478169788294978  0.8499272157230633  1.0000
  H   H19       1.0  0.20649715221704668  0.0945869323284327  0.8908185082578439  1.0000
  H   H20       1.0  0.3057116829473685  0.19480556373927269  0.8970570508266814  1.0000
  H   H21       1.0  0.3778033316609495  0.48318252266810896  0.22250007498427474  1.0000
  H   H22       1.0  0.4009404906632525  0.4362472814353566  0.2936433961501732  1.0000
  H   H23       1.0  0.47195487982833834  0.4494174266562752  0.2580071105209923  1.0000
  H   H24       1.0  0.2865825069103209  0.3066915541025993  0.19369120807490242  1.0000
  H   H25       1.0  0.9314671625855768  0.7713873699986638  0.6150084447723712  1.0000
  H   H26       1.0  0.8316512288118362  0.6781094856021072  0.4222055249051662  1.0000
  H   H27       1.0  0.5444689208898125  0.7173076263167175  0.3892127196040532  1.0000
  H   H28       1.0  0.5900821316640332  0.8352431575709431  0.4798350418557075  1.0000
  H   H29       1.0  0.5759205696594806  0.783442816569874  0.35918649130238123  1.0000
  H   H30       1.0  0.7205288545375694  0.8657239604868253  0.6248263453227662  1.0000
  H   H31       1.0  0.9340325000010097  0.3203287393387555  0.10238168210990738  1.0000
  H   H32       1.0  0.8341764414124738  0.413882733321664  0.10188659436186502  1.0000
  H   H33       1.0  0.5468290471834435  0.15987292767904654  0.8875258056436689  1.0000
  H   H34       1.0  0.5934507533960129  0.119301306535526  0.9656623194684781  1.0000
  H   H35       1.0  0.5771532204482527  0.22485250489794592  0.014657320499793399  1.0000
  H   H36       1.0  0.722351219394909  0.10166718619491628  0.9763606477923613  1.0000
  C   C1        1.0  0.16166027445107287  0.8647214293181166  0.0274016171838554  1.0000
  C   C2        1.0  0.22285618303333618  0.8110189108195911  0.032258220444987155  1.0000
  C   C3        1.0  0.22210482000770063  0.754630178755768  0.06262052070574224  1.0000
  C   C4        1.0  0.27803789285138686  0.7037079161122577  0.06333621677202218  1.0000
  C   C5        1.0  0.3354052315541479  0.7084563467020359  0.03485849707361399  1.0000
  C   C6        1.0  0.3890114990343961  0.6471074199676179  0.03166780624134424  1.0000
  C   C7        1.0  0.3393625137645699  0.767856629949627  0.007902362514748372  1.0000
  C   C8        1.0  0.4026197512449769  0.7820182300803322  0.9829159091468962  1.0000
  C   C9        1.0  0.28154828012079497  0.8175263527489847  0.006498049834483694  1.0000
  C   C10       1.0  0.15198643823961788  0.13736028885318768  0.3000089749106464  1.0000
  C   C11       1.0  0.20652751691352478  0.19458601204095063  0.4150046989153679  1.0000
  C   C12       1.0  0.25151134140307363  0.15938480469877447  0.4707704834592901  1.0000
  C   C13       1.0  0.30372101075406027  0.21512090682929133  0.5775139318679832  1.0000
  C   C14       1.0  0.3122320902334792  0.30589665515268655  0.6304336500072905  1.0000
  C   C15       1.0  0.37344436148750765  0.36141247481587163  0.7453330891278751  1.0000
  C   C16       1.0  0.2653076005450004  0.34194239833263396  0.5748507598772574  1.0000
  C   C17       1.0  0.2667845959746202  0.43711555134108704  0.6231872382548642  1.0000
  C   C18       1.0  0.21337097769931299  0.28441391513691644  0.46737966159349026  1.0000
  C   C19       1.0  0.8760368623757981  0.85476977533596  0.0048474638545667895  1.0000
  C   C20       1.0  0.8186517953699592  0.7921408020977267  0.999667920740883  1.0000
  C   C21       1.0  0.8532455320615783  0.7842611034006026  0.08206103869692066  1.0000
  C   C22       1.0  0.7988739435930583  0.7284832410955316  0.07868180232588878  1.0000
  C   C23       1.0  0.7098951257104317  0.6801461353978125  0.9943105266395726  1.0000
  C   C24       1.0  0.6552086432035156  0.6275057760159014  0.0020212528507313823  1.0000
  C   C25       1.0  0.6747627312665401  0.6850884335357819  0.9088071079469626  1.0000
  C   C26       1.0  0.5817177535225113  0.6324543322078497  0.8129660229579083  1.0000
  C   C27       1.0  0.7309176302963819  0.7419504651836206  0.914071843632534  1.0000
  C   C28       1.0  0.17495058852476575  0.1397127056873373  0.03515801356195418  1.0000
  C   C29       1.0  0.2390629682590415  0.1962259062387517  0.04115265017114915  1.0000
  C   C30       1.0  0.24570652927693004  0.16291914231798194  0.957867942867125  1.0000
  C   C31       1.0  0.3007616826942509  0.21848391653372093  0.9616644733706816  1.0000
  C   C32       1.0  0.34977520339528917  0.3071989693772038  0.047467813960480394  1.0000
  C   C33       1.0  0.3999009020099322  0.3641815282421632  0.03969160586343878  1.0000
  C   C34       1.0  0.34744151318754757  0.34027394568346386  0.13454906158747795  1.0000
  C   C35       1.0  0.4025595597201389  0.43214787178414593  0.23251946877814333  1.0000
  C   C36       1.0  0.29105023274430414  0.28317814154048193  0.12869301196116115  1.0000
  C   C37       1.0  0.8879240964493674  0.8763355108607199  0.7458770494355841  1.0000
  C   C38       1.0  0.8308520294618588  0.8228168128479965  0.630994766018851  1.0000
  C   C39       1.0  0.8634798302791891  0.7709693432899627  0.5745447113892435  1.0000
  C   C40       1.0  0.8079753248781926  0.7193080687696493  0.46779431425241524  1.0000
  C   C41       1.0  0.719766880996872  0.7177183732945239  0.41586931634667923  1.0000
  C   C42       1.0  0.6631093218163001  0.6551459662550485  0.30104478314496663  1.0000
  C   C43       1.0  0.6865858788990167  0.7717142697550871  0.4718659363095055  1.0000
  C   C44       1.0  0.5944889364397171  0.7774442837147291  0.42253569421423237  1.0000
  C   C45       1.0  0.7438829684497748  0.82347724003958  0.5792693376481279  1.0000
  C   C46       1.0  0.8892969687099851  0.1462728259816686  0.032288532552904356  1.0000
  C   C47       1.0  0.832780838057502  0.20472655156606123  0.03703392361364163  1.0000
  C   C48       1.0  0.8658759408672269  0.29341591482007356  0.07445123655075743  1.0000
  C   C49       1.0  0.8104250920519644  0.3448984250904416  0.07387378431671704  1.0000
  C   C50       1.0  0.7221065719569283  0.3092408645250869  0.03609779606486547  1.0000
  C   C51       1.0  0.6653990721606106  0.367446283511633  0.0316365312570496  1.0000
  C   C52       1.0  0.6887294139544409  0.22078382441452502  0.00163729943832888  1.0000
  C   C53       1.0  0.596743266700571  0.179058623688249  0.9657277071193132  1.0000
  C   C54       1.0  0.7457948916610561  0.1702568898464136  0.0028771123665051732  1.0000
  O   O1        1.0  0.022404721631112096  0.0027444889097267998  0.022331816846595097  1.0000
  O   O2        1.0  0.14956404032374582  0.896039739589419  0.9751061223315172  1.0000
  O   O3        1.0  0.126417911045337  0.8747303743075181  0.07557717783418379  1.0000
  O   O4        1.0  0.40445798070499  0.6186107301292765  0.08740226491161693  1.0000
  O   O5        1.0  0.413818807050184  0.6262649360808297  0.9717644388168902  1.0000
  O   O6        1.0  0.12317032460592972  0.17686817153980172  0.25547783459467865  1.0000
  O   O7        1.0  0.13899281135849148  0.0538074655412899  0.2556418356267257  1.0000
  O   O8        1.0  0.3982540353152261  0.3207609053369751  0.7891106815620572  1.0000
  O   O9        1.0  0.39770145949052704  0.44573800692961646  0.7915505741794744  1.0000
  O   O10       1.0  0.8390896978719196  0.8693862282201436  0.9352598776297677  1.0000
  O   O11       1.0  0.9578418349420306  0.8894688562396454  0.07979183767315585  1.0000
  O   O12       1.0  0.6966809632058357  0.6056543533753854  0.06429918595929243  1.0000
  O   O13       1.0  0.571288423335659  0.6104254086154554  0.9478279723717827  1.0000
  O   O14       1.0  0.15976939108768562  0.17854124429014456  0.10433162500130067  1.0000
  O   O15       1.0  0.13950023584604307  0.05751065380911769  0.9604041753503334  1.0000
  O   O16       1.0  0.4214207148304183  0.3243009935696861  0.9765362394366545  1.0000
  O   O17       1.0  0.41504344427328016  0.44793700004779413  0.09431527755396005  1.0000
  O   O18       1.0  0.850432874742104  0.9124256055853762  0.7917307763336151  1.0000
  O   O19       1.0  0.969558883879543  0.881175442977664  0.7891858753663211  1.0000
  O   O20       1.0  0.7023822324708605  0.6361243514711747  0.255624490047829  1.0000
  O   O21       1.0  0.5800666097368108  0.6240396618649912  0.2575487924188804  1.0000
  O   O22       1.0  0.8509743970514096  0.06347604881842978  0.9846984504445114  1.0000
  O   O23       1.0  0.971168794982667  0.1832511426562746  0.07532852567987915  1.0000
  O   O24       1.0  0.7047281766855704  0.45144781992564725  0.0978643944573391  1.0000
  O   O25       1.0  0.5825005531192033  0.3287680328973722  0.9606026687317877  1.0000
  O   O26       1.0  0.5241233216571859  0.5024399326150119  0.02462674877846632  1.0000
