data_image0
_chemical_formula_structural       Ni4H44C20S4N4O28
_chemical_formula_sum              "Ni4 H44 C20 S4 N4 O28"
_cell_length_a       7.5521382
_cell_length_b       11.367158223462523
_cell_length_c       11.868
_cell_angle_alpha    110.82480453061763
_cell_angle_beta     90.0
_cell_angle_gamma    90.0

_space_group_name_H-M_alt    "P 1"
_space_group_IT_number       1

loop_
  _space_group_symop_operation_xyz
  'x, y, z'

loop_
  _atom_site_type_symbol
  _atom_site_label
  _atom_site_symmetry_multiplicity
  _atom_site_fract_x
  _atom_site_fract_y
  _atom_site_fract_z
  _atom_site_occupancy
  Ni  Ni1       1.0  0.58975086022658  0.21025806212768566  0.6570741354544791  1.0000
  Ni  Ni2       1.0  0.08975338931165307  0.2897418028079315  0.34292906257245187  1.0000
  Ni  Ni3       1.0  0.410249378116518  0.7897426089587469  0.34292584027569  1.0000
  Ni  Ni4       1.0  0.910250821416376  0.71025792706331  0.6570714352677243  1.0000
  H   H1        1.0  0.25670081090412106  0.1265266172781381  0.6147812542214268  1.0000
  H   H2        1.0  0.7567022542039794  0.3734751300878685  0.38522089958548367  1.0000
  H   H3        1.0  0.7433060480805265  0.8734740538082946  0.38522124931461116  1.0000
  H   H4        1.0  0.24330460478066834  0.6265264822137553  0.6147785540346716  1.0000
  H   H5        1.0  0.3853279591732033  0.012923825825126299  0.6032117634984857  1.0000
  H   H6        1.0  0.8853267542164429  0.4870741566801016  0.39678742313674314  1.0000
  H   H7        1.0  0.6146749274265133  0.9870796689068868  0.3967874885036051  1.0000
  H   H8        1.0  0.11467745651158617  0.5129227495455524  0.6032112706256567  1.0000
  H   H9        1.0  0.3238354404054746  0.3671191038845976  0.6952111506991018  1.0000
  H   H10       1.0  0.8238382078336455  0.132882643481409  0.3047884753019403  1.0000
  H   H11       1.0  0.6761661220659361  0.6328843908474155  0.30478810130298223  1.0000
  H   H12       1.0  0.176164678766078  0.8671189688202219  0.6952118209201712  1.0000
  H   H13       1.0  0.4502407013685214  0.3771101031660606  0.5901424952123548  1.0000
  H   H14       1.0  0.9502394964117611  0.1228907029847548  0.4098559676947886  1.0000
  H   H15       1.0  0.5497595369745767  0.6228915091355631  0.4098578010097569  1.0000
  H   H16       1.0  0.0497567695464056  0.877110909316876  0.5901426433234106  1.0000
  H   H17       1.0  0.7334028924417737  0.9711194828667828  0.6327617371101653  1.0000
  H   H18       1.0  0.2334040973985338  0.5288782295096937  0.36723878996719606  1.0000
  H   H19       1.0  0.2665999941579428  0.028884011865230298  0.3672400426977801  1.0000
  H   H20       1.0  0.7665987892011826  0.47112055914635687  0.6327613873810449  1.0000
  H   H21       1.0  0.8706170128083739  0.0703887782632151  0.6077361058307886  1.0000
  H   H22       1.0  0.3706142453802029  0.4296148515331808  0.39226753156195565  1.0000
  H   H23       1.0  0.12938322553472395  0.9296156576839962  0.3922718926827854  1.0000
  H   H24       1.0  0.6293846688345823  0.570386760768443  0.6077310794562436  1.0000
  H   H25       1.0  0.6920900891352844  0.4462122402594416  0.85340526779661  1.0000
  H   H26       1.0  0.19209526647698275  0.053790448321755904  0.1465963639002865  1.0000
  H   H27       1.0  0.3078995561813187  0.5537884308269909  0.1465955505355154  1.0000
  H   H28       1.0  0.8079089442510464  0.9462073991190962  0.8534018077520997  1.0000
  H   H29       1.0  0.7204555658157829  0.52142757003611  0.07875132074860149  1.0000
  H   H30       1.0  0.2204580949008559  0.9785720247707488  0.9212498473126444  1.0000
  H   H31       1.0  0.2795367277574456  0.478574983480712  0.9212484533634963  1.0000
  H   H32       1.0  0.7795434675705479  0.0214229990245229  0.078748205465871  1.0000
  H   H33       1.0  0.6496967971269354  0.3712020953950059  0.1846491360145066  1.0000
  H   H34       1.0  0.1496980020837029  0.1287968283254202  0.8153512137146137  1.0000
  H   H35       1.0  0.3502994688312241  0.6287976344762285  0.8153505192237134  1.0000
  H   H36       1.0  0.8503035603877079  0.8711991366850498  0.18464715955584407  1.0000
  H   H37       1.0  0.5536630672357106  0.1529201737407604  0.061379712719386186  1.0000
  H   H38       1.0  0.0536629480641651  0.347080632410055  0.938618750187757  1.0000
  H   H39       1.0  0.4463331987224493  0.84707861491529  0.9386196220268985  1.0000
  H   H40       1.0  0.9463346420223075  0.6529162738155989  0.061378258370730486  1.0000
  H   H41       1.0  0.5346975774357503  0.0914399972862157  0.8362313266863096  1.0000
  H   H42       1.0  0.0347001065208232  0.4085608088645997  0.16376966402669518  1.0000
  H   H43       1.0  0.46529604026579097  0.908560673800217  0.16376780644190347  1.0000
  H   H44       1.0  0.9653001318222678  0.5914332737154737  0.836228910861834  1.0000
  C   C1        1.0  0.6643098771683  0.3846351186399417  0.9036013567692649  1.0000
  C   C2        1.0  0.1643177027666169  0.11536568751086658  0.0964013191476525  1.0000
  C   C3        1.0  0.3356771198916917  0.6153646112312927  0.09639829846896218  1.0000
  C   C4        1.0  0.8356851838331065  0.8846321599299856  0.9035993803105952  1.0000
  C   C5        1.0  0.6787561170424536  0.42545562159207856  0.0284279544477783  1.0000
  C   C6        1.0  0.17876129438415225  0.0745442433435386  0.9715752435791599  1.0000
  C   C7        1.0  0.32123352827414914  0.5745441082791558  0.9715700155865434  1.0000
  C   C8        1.0  0.8212402680872586  0.9254526628821224  0.028425977989108613  1.0000
  C   C9        1.0  0.6387594972772064  0.3420714851490203  0.08710267751182241  1.0000
  C   C10       1.0  0.1387646746189048  0.1579255561410235  0.9128987164373257  1.0000
  C   C11       1.0  0.36123279629602206  0.6579263622918319  0.9128954941405638  1.0000
  C   C12       1.0  0.8612355637241931  0.8420713500846375  0.08710166252898684  1.0000
  C   C13       1.0  0.5870787692947701  0.219898929357079  0.018207456830459993  1.0000
  C   C14       1.0  0.0870839466364615  0.2800999943633471  0.9817928928986674  1.0000
  C   C15       1.0  0.412916172535084  0.7800998592989643  0.9817893501099633  1.0000
  C   C16       1.0  0.9129149675783239  0.7198950294319246  0.018206845083760425  1.0000
  C   C17       1.0  0.576389081439217  0.1854400998993739  0.8936680618292101  1.0000
  C   C18       1.0  0.0763969070375339  0.3145597650362433  0.10633429359576498  1.0000
  C   C19       1.0  0.42360188800570586  0.8145615124022498  0.10632802138312762  1.0000
  C   C20       1.0  0.9236046554338768  0.6854361999742196  0.8936674500825106  1.0000
  S   S1        1.0  0.511639207026164  0.20427946321710516  0.3776588627179009  1.0000
  S   S2        1.0  0.011640411982924096  0.2957222841489013  0.6223416058850972  1.0000
  S   S3        1.0  0.4883623554452398  0.7957230902997168  0.6223434392000583  1.0000
  S   S4        1.0  0.9883585022318613  0.70428215179831  0.3776588092108852  1.0000
  N   N1        1.0  0.6132726755450548  0.2667422683339069  0.8375115760762952  1.0000
  N   N2        1.0  0.11328182527168447  0.2332575966017103  0.16249162195063596  1.0000
  N   N3        1.0  0.3867156456432426  0.7332584027525257  0.1624867144499688  1.0000
  N   N4        1.0  0.8867197371997264  0.7667393096239437  0.8375095996176254  1.0000
  O   O1        1.0  0.5805905405703484  0.1427079888887732  0.46220891373894085  1.0000
  O   O2        1.0  0.0805864490138717  0.3572881111860724  0.537788789310447  1.0000
  O   O3        1.0  0.4194123460293681  0.8573002119192096  0.5377927833248037  1.0000
  O   O4        1.0  0.9194084928159822  0.6427069126091993  0.4622101060700245  1.0000
  O   O5        1.0  0.3184621277190089  0.1751422644647604  0.3576118459755335  1.0000
  O   O6        1.0  0.8184662192754928  0.3248613653316355  0.6423934766211232  1.0000
  O   O7        1.0  0.6815434071373332  0.8248631126976419  0.6423880470104348  1.0000
  O   O8        1.0  0.18153799145253655  0.6751383645396061  0.357612076830783  1.0000
  O   O9        1.0  0.6115671982803474  0.1541512832141549  0.2637882993950029  1.0000
  O   O10       1.0  0.11156575498048937  0.3458476405062711  0.7362137355380368  1.0000
  O   O11       1.0  0.3884317159344376  0.8458550351634386  0.7362152844907258  1.0000
  O   O12       1.0  0.8884344833626086  0.6541558542257491  0.2637829886581854  1.0000
  O   O13       1.0  0.5365884326640113  0.3441525119423545  0.43560788108387527  1.0000
  O   O14       1.0  0.0365803687225963  0.155849235423652  0.5643951153249844  1.0000
  O   O15       1.0  0.4634144539357051  0.655841570637719  0.5643873233968364  1.0000
  O   O16       1.0  0.9634158972355706  0.8441646126754989  0.43561693070996194  1.0000
  O   O17       1.0  0.3630640657502795  0.103595791513257  0.6511692667715181  1.0000
  O   O18       1.0  0.8630655090501376  0.3964040734223673  0.3488356164593256  1.0000
  O   O19       1.0  0.6369454414909939  0.896406762003565  0.3488313499425359  1.0000
  O   O20       1.0  0.1369453223194483  0.6035937740184849  0.6511642403969657  1.0000
  O   O21       1.0  0.4496580849116326  0.3726092121096372  0.6717688174739891  1.0000
  O   O22       1.0  0.9496568799548724  0.1273953589019499  0.3282326126048289  1.0000
  O   O23       1.0  0.5503434775597711  0.6273895765464061  0.3282305172722885  1.0000
  O   O24       1.0  0.05034335838822559  0.8726100182604526  0.6717689655850448  1.0000
  O   O25       1.0  0.7537494480702165  0.059513036699648594  0.6396967917804232  1.0000
  O   O26       1.0  0.2537480047703582  0.44048965188155614  0.3603107381301597  1.0000
  O   O27       1.0  0.24625343852950005  0.9404923404627538  0.36031321242900555  1.0000
  O   O28       1.0  0.7462535577010525  0.559508195559296  0.6396840631144086  1.0000
