data_image0
_chemical_formula_structural       Zn4H32C28N12
_chemical_formula_sum              "Zn4 H32 C28 N12"
_cell_length_a       7.386880819160941
_cell_length_b       12.162121678808827
_cell_length_c       12.161783840686118
_cell_angle_alpha    60.95761886336791
_cell_angle_beta     81.4634463865886
_cell_angle_gamma    81.4605640188697

_space_group_name_H-M_alt    "P 1"
_space_group_IT_number       1

loop_
  _space_group_symop_operation_xyz
  'x, y, z'

loop_
  _atom_site_type_symbol
  _atom_site_label
  _atom_site_symmetry_multiplicity
  _atom_site_fract_x
  _atom_site_fract_y
  _atom_site_fract_z
  _atom_site_occupancy
  Zn  Zn1       1.0  0.08541947071947219  0.9239132721484108  0.21260601407892213  1.0000
  Zn  Zn2       1.0  0.4145987232153986  0.7873975829185439  0.07609221071657402  1.0000
  Zn  Zn3       1.0  0.9145959977914372  0.0761071610756687  0.7873756311632576  1.0000
  Zn  Zn4       1.0  0.5854047755919964  0.21262017712366094  0.9238810884380939  1.0000
  H   H1        1.0  0.7790045460524767  0.9706176154195133  0.3835873482452855  1.0000
  H   H2        1.0  0.7209885587075038  0.616414455329938  0.02938076352002382  1.0000
  H   H3        1.0  0.2210806702685062  0.029370562061416194  0.6164074936390094  1.0000
  H   H4        1.0  0.27894986328877985  0.38358733743711343  0.970607604871752  1.0000
  H   H5        1.0  0.6095025651992856  0.0846622570255349  0.4968495559785567  1.0000
  H   H6        1.0  0.8904855188760551  0.5031514760198589  0.9153380613959642  1.0000
  H   H7        1.0  0.39059477849814767  0.9152944611663829  0.5031813589251399  1.0000
  H   H8        1.0  0.10945659138705818  0.496842598030753  0.08466598093656327  1.0000
  H   H9        1.0  0.5203596201765067  0.31621996312539835  0.3773719248444253  1.0000
  H   H10       1.0  0.9796108717123034  0.6226241190530075  0.6837712159031285  1.0000
  H   H11       1.0  0.47962699129261904  0.6837245482395602  0.6226829417659019  1.0000
  H   H12       1.0  0.020389812349776486  0.37736122866296284  0.3162424155517556  1.0000
  H   H13       1.0  0.601058762141612  0.4311443688863862  0.1459319493534892  1.0000
  H   H14       1.0  0.8989344013816593  0.8540694974257478  0.5688541756762859  1.0000
  H   H15       1.0  0.3988402345586621  0.5688220966023964  0.8541121085671649  1.0000
  H   H16       1.0  0.10113868150013162  0.14592787969210264  0.4311571148303983  1.0000
  H   H17       1.0  0.7759386961902947  0.31836828366964914  0.03401696446609753  1.0000
  H   H18       1.0  0.7240652245340371  0.9659796367946784  0.6816387688257278  1.0000
  H   H19       1.0  0.22397413680134548  0.6816408740831291  0.9659874639591806  1.0000
  H   H20       1.0  0.27599173003098093  0.0340263576630093  0.3183624692668446  1.0000
  H   H21       1.0  0.12767156266998814  0.8236584816223101  0.44779445574517496  1.0000
  H   H22       1.0  0.3723453458639908  0.552222545516976  0.17637518274575842  1.0000
  H   H23       1.0  0.8723304513170476  0.1763600523256557  0.5521917653515089  1.0000
  H   H24       1.0  0.6276626193825762  0.4477921496212857  0.8236164416818713  1.0000
  H   H25       1.0  0.2757513518097809  0.7420497480862097  0.3770321607784055  1.0000
  H   H26       1.0  0.2242624651804306  0.6230074730790846  0.2579604583733257  1.0000
  H   H27       1.0  0.7242367848881912  0.2579593896641513  0.6229581270902571  1.0000
  H   H28       1.0  0.7757457497214874  0.37702717342379793  0.7420117898561929  1.0000
  H   H29       1.0  0.039379167849709476  0.714870746780143  0.4156335832696955  1.0000
  H   H30       1.0  0.46063341565775323  0.5843908221186922  0.28516545378546  1.0000
  H   H31       1.0  0.9606023746532415  0.28515822371587524  0.5843478658232399  1.0000
  H   H32       1.0  0.5393720624331237  0.41564373169916297  0.71481448452338  1.0000
  C   C1        1.0  0.7855346535319468  0.1370862538969746  0.20177544578205442  1.0000
  C   C2        1.0  0.714456315744428  0.7982115057372996  0.8629219305190929  1.0000
  C   C3        1.0  0.2144609221970484  0.8629180880339717  0.7982213893984779  1.0000
  C   C4        1.0  0.28553985151970107  0.2017881479425085  0.1370746138438079  1.0000
  C   C5        1.0  0.7406467208865594  0.0719405816105052  0.3327868376074505  1.0000
  C   C6        1.0  0.7593404771190677  0.6672119211897963  0.9280577241616824  1.0000
  C   C7        1.0  0.2593945639167075  0.9280485541667431  0.6672155976599897  1.0000
  C   C8        1.0  0.24062330348252198  0.33278399629657684  0.07194432170255277  1.0000
  C   C9        1.0  0.6457795467500063  0.13622974864674828  0.3954004525362649  1.0000
  C   C10       1.0  0.8542061640727425  0.6045927746998031  0.8637695189230143  1.0000
  C   C11       1.0  0.35426868973858217  0.863736582026  0.6046228926433629  1.0000
  C   C12       1.0  0.1457661861882472  0.39540034077462843  0.13622980191202322  1.0000
  C   C13       1.0  0.5947979464376728  0.2656928876739428  0.32864061071536815  1.0000
  C   C14       1.0  0.9051830685550755  0.6713537579647805  0.7343067881213727  1.0000
  C   C15       1.0  0.4052009340547045  0.7342630502609069  0.6713986779744588  1.0000
  C   C16       1.0  0.0948188659353235  0.32863255327936974  0.2657046285311111  1.0000
  C   C17       1.0  0.6401220671937936  0.3302355280400421  0.19846314647966062  1.0000
  C   C18       1.0  0.8598750585315144  0.801528805259423  0.6697605495918707  1.0000
  C   C19       1.0  0.3598287872273218  0.6697432033889115  0.8015646753621654  1.0000
  C   C20       1.0  0.1401612898333369  0.19846694568540366  0.33023918283122816  1.0000
  C   C21       1.0  0.7360264936259425  0.2672401123239965  0.13490296158388304  1.0000
  C   C22       1.0  0.7639635222122506  0.8650971261779502  0.7327661028346812  1.0000
  C   C23       1.0  0.26392329509450013  0.7327471161194339  0.8651209157306211  1.0000
  C   C24       1.0  0.23606253172575722  0.13490428278480238  0.26723350666783574  1.0000
  C   C25       1.0  0.13642913962920028  0.787604524480308  0.3798504303998271  1.0000
  C   C26       1.0  0.3635907008088778  0.6201729976232855  0.2124185750957182  1.0000
  C   C27       1.0  0.8635661468355026  0.21241307598582185  0.6201368375132719  1.0000
  C   C28       1.0  0.6364175663613666  0.37985028934067344  0.7875615364323778  1.0000
  N   N1        1.0  0.8832083681393855  0.06812389109922633  0.14301859228531555  1.0000
  N   N2        1.0  0.6167929069115915  0.8569782223188155  0.9318779082325008  1.0000
  N   N3        1.0  0.11680120155390473  0.9318890106248079  0.8569663403317307  1.0000
  N   N4        1.0  0.38320707830117573  0.1430347050592857  0.06810704892713913  1.0000
  N   N5        1.0  0.8509125095824147  0.10906723784204796  0.02603396171761565  1.0000
  N   N6        1.0  0.6490984863312264  0.973953663011102  0.8909379333414194  1.0000
  N   N7        1.0  0.14909224243083932  0.8909513133951994  0.973950361150365  1.0000
  N   N8        1.0  0.35091108336205684  0.0260592387129321  0.1090469992756269  1.0000
  N   N9        1.0  0.9417595840897519  0.05101912022882261  0.9656222609419062  1.0000
  N   N10       1.0  0.5582542025393521  0.034367827656943496  0.9489854156452183  1.0000
  N   N11       1.0  0.05825052625912971  0.9490003666164382  0.03436113681679138  1.0000
  N   N12       1.0  0.44175423496319866  0.965643177197002  0.05100134264780815  1.0000
