data_image0
_chemical_formula_structural       Mn2H32C36S6N8O8
_chemical_formula_sum              "Mn2 H32 C36 S6 N8 O8"
_cell_length_a       9.134230998601454
_cell_length_b       10.15789996994435
_cell_length_c       11.535458759647499
_cell_angle_alpha    100.80995782486708
_cell_angle_beta     92.54089197548006
_cell_angle_gamma    101.2892180838268

_space_group_name_H-M_alt    "P 1"
_space_group_IT_number       1

loop_
  _space_group_symop_operation_xyz
  'x, y, z'

loop_
  _atom_site_type_symbol
  _atom_site_label
  _atom_site_symmetry_multiplicity
  _atom_site_fract_x
  _atom_site_fract_y
  _atom_site_fract_z
  _atom_site_occupancy
  Mn  Mn1       1.0  0.3610702479297744  0.37929560295177117  0.11775080149895704  1.0000
  Mn  Mn2       1.0  0.6389373897381248  0.6207132508448582  0.8822520685027443  1.0000
  H   H1        1.0  0.026696693425385803  0.018801713737346397  0.21372040831127492  1.0000
  H   H2        1.0  0.9733101256007828  0.981198964952576  0.786277567602234  1.0000
  H   H3        1.0  0.961864034970198  0.15361134796167158  0.30013182898709095  1.0000
  H   H4        1.0  0.03813565152007932  0.8463821673790903  0.6998664260060607  1.0000
  H   H5        1.0  0.1032020653618204  0.6487230174522196  0.9232937788646682  1.0000
  H   H6        1.0  0.8968076420439459  0.3512807590186712  0.07670048530901141  1.0000
  H   H7        1.0  0.05860090142787305  0.46700644587198803  0.888972056360828  1.0000
  H   H8        1.0  0.9414009014726333  0.5329963434039939  0.11102091937455329  1.0000
  H   H9        1.0  0.4519022711556175  0.3339783223468018  0.8651244218445983  1.0000
  H   H10       1.0  0.5480933849532548  0.6660213234080032  0.13487995599162872  1.0000
  H   H11       1.0  0.48579058712900297  0.15150622465334607  0.6996148109141771  1.0000
  H   H12       1.0  0.5142121105805586  0.8484954504231509  0.3003892724709233  1.0000
  H   H13       1.0  0.30089858939901865  0.8557666560020822  0.9059695633126454  1.0000
  H   H14       1.0  0.699109347668994  0.144233965861865  0.09403537390748083  1.0000
  H   H15       1.0  0.2759477080091274  0.05129649414221403  0.06488034386924112  1.0000
  H   H16       1.0  0.7240463748910886  0.9487011133477384  0.9351227676846535  1.0000
  H   H17       1.0  0.5358289886335683  0.8861305532780931  0.6755590705541153  1.0000
  H   H18       1.0  0.46417651522164516  0.11386906589571312  0.32444388338156227  1.0000
  H   H19       1.0  0.3855276875347898  0.7740126954658209  0.7187974717310867  1.0000
  H   H20       1.0  0.6144725798623867  0.2259879703684646  0.2812054942568594  1.0000
  H   H21       1.0  0.3564553798375272  0.9669482661055113  0.5463410551212036  1.0000
  H   H22       1.0  0.6435470743363894  0.0330523974619226  0.4536611133958957  1.0000
  H   H23       1.0  0.204785458301089  0.8603315322860897  0.5901260440762571  1.0000
  H   H24       1.0  0.7952131064902448  0.13967116538523072  0.4098806832312364  1.0000
  H   H25       1.0  0.5309378562505884  0.6948767584262114  0.5479566022181075  1.0000
  H   H26       1.0  0.46905105185688  0.305112639178347  0.45204840551308934  1.0000
  H   H27       1.0  0.5402878869358219  0.5168415309226619  0.36884568313207217  1.0000
  H   H28       1.0  0.45970048403669495  0.483155074001395  0.6311570742872875  1.0000
  H   H29       1.0  0.17669456643992726  0.604376113581253  0.19534378963106044  1.0000
  H   H30       1.0  0.8233038312488932  0.3956307393687979  0.8046567087434227  1.0000
  H   H31       1.0  0.14675140680066792  0.7827340040303882  0.3680413934494241  1.0000
  H   H32       1.0  0.8532495738010086  0.21726973564346244  0.6319621218187238  1.0000
  C   C1        1.0  0.1670613873697846  0.21692660483498122  0.21961646414113295  1.0000
  C   C2        1.0  0.8329437406521691  0.7830760794837205  0.780388736641122  1.0000
  C   C3        1.0  0.06398664782578581  0.11587833432605518  0.27821474976011024  1.0000
  C   C4        1.0  0.9360164228166283  0.8841202821576106  0.7217862208911116  1.0000
  C   C5        1.0  0.1465430919419575  0.2068945165702374  0.5176018456816394  1.0000
  C   C6        1.0  0.8534538764374487  0.7931061952527472  0.48239668824513166  1.0000
  C   C7        1.0  0.13868581442432773  0.4148332725803814  0.6528357829980962  1.0000
  C   C8        1.0  0.8612999533324626  0.5851664914843229  0.347157896316496  1.0000
  C   C9        1.0  0.13663037995433308  0.5574654755496268  0.8732412346640077  1.0000
  C   C10       1.0  0.8633744610258275  0.44253629554098234  0.12674906294075336  1.0000
  C   C11       1.0  0.2954022156507889  0.550899974786283  0.9156971987506424  1.0000
  C   C12       1.0  0.704608457953043  0.44909874842451103  0.08428582772488373  1.0000
  C   C13       1.0  0.4190908354822652  0.2266902058896534  0.8709763929979462  1.0000
  C   C14       1.0  0.5809037257880264  0.7733094442746166  0.12902795063006078  1.0000
  C   C15       1.0  0.438024171040631  0.12375680743028283  0.7787215760489589  1.0000
  C   C16       1.0  0.5619756237872908  0.8762418026255647  0.22128188963947798  1.0000
  C   C17       1.0  0.3956178429349251  0.9862993848434769  0.7880592019482081  1.0000
  C   C18       1.0  0.6043907048007641  0.013699203040829402  0.21194280563144474  1.0000
  C   C19       1.0  0.3344451061238659  0.9605422136802989  0.8927814348162713  1.0000
  C   C20       1.0  0.6655603948309334  0.039457412045564404  0.10722065323210471  1.0000
  C   C21       1.0  0.3199837144398145  0.06929521996038089  0.981661796426657  1.0000
  C   C22       1.0  0.6800141342466121  0.9307044104234453  0.018343515713333217  1.0000
  C   C23       1.0  0.41605957398761023  0.8724784826039669  0.6904697349303889  1.0000
  C   C24       1.0  0.5839439750248802  0.12752217655400952  0.3095324677949378  1.0000
  C   C25       1.0  0.3241621532490909  0.8684346957460818  0.57521726950246  1.0000
  C   C26       1.0  0.675837265745578  0.13156697945466084  0.4247884430325612  1.0000
  C   C27       1.0  0.3373104526295237  0.7557025353350185  0.47350946462752574  1.0000
  C   C28       1.0  0.662683633171099  0.2442950656028701  0.5264945128136703  1.0000
  C   C29       1.0  0.44878957371865624  0.6782730366304079  0.4722559560001259  1.0000
  C   C30       1.0  0.5512018498355574  0.3217225173479576  0.5277484527251133  1.0000
  C   C31       1.0  0.45469204549699793  0.5784363594528443  0.3724570795091538  1.0000
  C   C32       1.0  0.5453007928645874  0.4215653684129065  0.6275449642273047  1.0000
  C   C33       1.0  0.25122362811220716  0.6264672614168277  0.27613370185247993  1.0000
  C   C34       1.0  0.7487733518688416  0.3735334241978947  0.7238682956234825  1.0000
  C   C35       1.0  0.23650165314088412  0.726725962212072  0.3722070002298424  1.0000
  C   C36       1.0  0.7634988461903092  0.27327574133953203  0.6277944170769063  1.0000
  S   S1        1.0  0.1466914335136735  0.0677955927892668  0.40490116171562823  1.0000
  S   S2        1.0  0.853308120679003  0.9322019992054608  0.5951012549921091  1.0000
  S   S3        1.0  0.13199229843544907  0.37145879074070354  0.49896539067559337  1.0000
  S   S4        1.0  0.8680003232508541  0.6285327476948837  0.5010262316702949  1.0000
  S   S5        1.0  0.11084535796830149  0.573613322810047  0.7214420334777787  1.0000
  S   S6        1.0  0.8891522946115132  0.4263905283731476  0.2785483908562086  1.0000
  N   N1        1.0  0.15909829530257014  0.1960054680403047  0.6292711868518452  1.0000
  N   N2        1.0  0.8409044875413658  0.8040013541677881  0.370731180130143  1.0000
  N   N3        1.0  0.1561653913146657  0.31463567354533245  0.7067448860784822  1.0000
  N   N4        1.0  0.8438308137966004  0.685371194775705  0.29325467799224475  1.0000
  N   N5        1.0  0.361643850916984  0.20117645629945707  0.9720552702112003  1.0000
  N   N6        1.0  0.6383528942296408  0.7988231981500179  0.027947410058658334  1.0000
  N   N7        1.0  0.3584637339092467  0.5523732235541488  0.2752277114479327  1.0000
  N   N8        1.0  0.641533243171395  0.4476274686126446  0.7247734201407285  1.0000
  O   O1        1.0  0.10754406806829311  0.2634079120846309  0.13899606943812162  1.0000
  O   O2        1.0  0.89246420347056  0.7365988553158402  0.8610107980214963  1.0000
  O   O3        1.0  0.3071759631522326  0.24720342582342175  0.2508684156070444  1.0000
  O   O4        1.0  0.6928284545656355  0.7527961781036511  0.749137101782303  1.0000
  O   O5        1.0  0.30609434721998957  0.5118781673673212  0.013373574417393324  1.0000
  O   O6        1.0  0.6939125692988598  0.4881185132934078  0.9866098491339488  1.0000
  O   O7        1.0  0.4023799244897504  0.5876266172051459  0.8548467531990411  1.0000
  O   O8        1.0  0.5976251723843903  0.41236702023373084  0.14513262331466592  1.0000
