data_image0
_chemical_formula_structural       Zn2H32C28N8O8
_chemical_formula_sum              "Zn2 H32 C28 N8 O8"
_cell_length_a       9.811999986227057
_cell_length_b       10.576587801890193
_cell_length_c       11.077817465204506
_cell_angle_alpha    90.631361222404
_cell_angle_beta     89.92614366913448
_cell_angle_gamma    91.0421565194469

_space_group_name_H-M_alt    "P 1"
_space_group_IT_number       1

loop_
  _space_group_symop_operation_xyz
  'x, y, z'

loop_
  _atom_site_type_symbol
  _atom_site_label
  _atom_site_symmetry_multiplicity
  _atom_site_fract_x
  _atom_site_fract_y
  _atom_site_fract_z
  _atom_site_occupancy
  Zn  Zn1       1.0  0.6485972045096347  0.5052512084278432  0.5005360083020137  1.0000
  Zn  Zn2       1.0  0.3514008451315007  0.49475161838485354  0.4994655467246434  1.0000
  H   H1        1.0  0.12563553645147613  0.3747846980052145  0.3527820964037218  1.0000
  H   H2        1.0  0.6237729559293471  0.9115771527344803  0.09925718645535404  1.0000
  H   H3        1.0  0.66583593262461  0.040587074690819194  0.19854153746686617  1.0000
  H   H4        1.0  0.4957184624340628  0.020223038308102997  0.146966953740062  1.0000
  H   H5        1.0  0.7254074286495468  0.826675874516212  0.6413159609312375  1.0000
  H   H6        1.0  0.8316040156059259  0.9449298911262713  0.800959038853236  1.0000
  H   H7        1.0  0.7088658243874307  0.06468260740633272  0.7860066143747632  1.0000
  H   H8        1.0  0.8396341897877306  0.050187912172567906  0.675841486366302  1.0000
  H   H9        1.0  0.27459052021821867  0.17332256822690786  0.358678643184561  1.0000
  H   H10       1.0  0.168403874509103  0.05505868469185769  0.19903169988796782  1.0000
  H   H11       1.0  0.16036075257780166  0.9498128166307963  0.3241574925776122  1.0000
  H   H12       1.0  0.8743614693561597  0.6252171920107299  0.647219521578066  1.0000
  H   H13       1.0  0.2911389631005293  0.9353057118575875  0.2140031611278985  1.0000
  H   H14       1.0  0.7851432420801175  0.16617534938039563  0.4605293753273331  1.0000
  H   H15       1.0  0.9469022724592622  0.035989252119094296  0.3536431535613502  1.0000
  H   H16       1.0  0.8164729991884626  0.9178809224517362  0.3349772046384132  1.0000
  H   H17       1.0  0.88887520902275  0.9461496848734042  0.47983299614119096  1.0000
  H   H18       1.0  0.21485783925658816  0.8338262873894565  0.5394695425989084  1.0000
  H   H19       1.0  0.05309781426849718  0.964013179525011  0.6463538995644171  1.0000
  H   H20       1.0  0.11112281484398072  0.05385181574000342  0.52016411955222  1.0000
  H   H21       1.0  0.18352609293035022  0.0821223040666226  0.665017983686873  1.0000
  H   H22       1.0  0.30264125552532306  0.4143974286159704  0.8821032492997176  1.0000
  H   H23       1.0  0.13335005526086263  0.6204576918217269  0.6490020638674352  1.0000
  H   H24       1.0  0.697358807364914  0.5856044441018184  0.11789836984456063  1.0000
  H   H25       1.0  0.30021284128951464  0.4096195056640821  0.10949548439411673  1.0000
  H   H26       1.0  0.6997882160159818  0.5903814954521494  0.8905070990154584  1.0000
  H   H27       1.0  0.8666469257408098  0.37954325563141816  0.350999617456992  1.0000
  H   H28       1.0  0.49799721628402693  0.1880109959479626  0.7398127266718433  1.0000
  H   H29       1.0  0.37625668492117376  0.0884260324216655  0.9007506843298145  1.0000
  H   H30       1.0  0.5042707107716212  0.979750582129419  0.8530139217436814  1.0000
  H   H31       1.0  0.33413803399466263  0.9594306427674865  0.8014662624018173  1.0000
  H   H32       1.0  0.5020088369352891  0.8119862060868213  0.26019011204574133  1.0000
  C   C1        1.0  0.4986540045964389  0.4971632913192535  0.1262428298893781  1.0000
  C   C2        1.0  0.37157892692902555  0.9594521208712334  0.5386603322812817  1.0000
  C   C3        1.0  0.4715717032445923  0.050363224082453  0.6114540627031033  1.0000
  C   C4        1.0  0.5284293780921133  0.949638412687392  0.38854485522313814  1.0000
  C   C5        1.0  0.5051203003915746  0.124321309427998  0.49246639384033136  1.0000
  C   C6        1.0  0.4948808057510946  0.8756812699046462  0.5075324607432777  1.0000
  C   C7        1.0  0.0682746872840454  0.4297090032225412  0.41870792104472093  1.0000
  C   C8        1.0  0.9317222939113139  0.5702920209579077  0.5812946608148764  1.0000
  C   C9        1.0  0.0727942617019082  0.5670785690209995  0.5827423533826632  1.0000
  C   C10       1.0  0.9272027194934439  0.4329224551594493  0.41726022847694116  1.0000
  C   C11       1.0  0.388265438848002  0.4518526018949203  0.9348523634031453  1.0000
  C   C12       1.0  0.5013470277094073  0.5028366905068821  0.8737589163276597  1.0000
  C   C13       1.0  0.6117345994299584  0.5481484049873726  0.06515021961894263  1.0000
  C   C14       1.0  0.38702962265035273  0.44908503501651603  0.060355969210554916  1.0000
  C   C15       1.0  0.6129714344614571  0.5509158893724191  0.9396457136638434  1.0000
  C   C16       1.0  0.4127129922464975  0.0308411041794443  0.8246126624176214  1.0000
  C   C17       1.0  0.5872849327837528  0.9691567796373589  0.17538650771668077  1.0000
  C   C18       1.0  0.7699953456144684  0.995884374509245  0.7353726346810276  1.0000
  C   C19       1.0  0.23000653130240784  0.004108696702068904  0.2646259531812518  1.0000
  C   C20       1.0  0.8566670548797718  0.9923415189742926  0.3957427631980083  1.0000
  C   C21       1.0  0.1433320126267645  0.007660841708570806  0.6042533890050876  1.0000
  C   C22       1.0  0.5039946927701423  0.5045656480069453  0.7385425444142655  1.0000
  C   C23       1.0  0.4960043510925658  0.4954362304768977  0.26145907434251825  1.0000
  C   C24       1.0  0.49692326944425264  0.7378902368991476  0.5046008585868266  1.0000
  C   C25       1.0  0.5030768178645674  0.26211242492684755  0.49539889614446514  1.0000
  C   C26       1.0  0.5957731888696145  0.95873678382069  0.5828164838501807  1.0000
  C   C27       1.0  0.404226873245868  0.0412647819879126  0.41718153315339634  1.0000
  C   C28       1.0  0.6284211601861075  0.040550464227465  0.4613385219148398  1.0000
  N   N1        1.0  0.8580395306025467  0.5035058593151688  0.498613683098128  1.0000
  N   N2        1.0  0.1419574259805358  0.4964942990297698  0.5013898626392788  1.0000
  N   N3        1.0  0.4351893414242126  0.11265846760050378  0.7201802152685417  1.0000
  N   N4        1.0  0.5648127345214392  0.8873423742950874  0.27982056745818085  1.0000
  N   N5        1.0  0.6798933848007139  0.9069647681321696  0.6717132675333346  1.0000
  N   N6        1.0  0.3201066025094974  0.09303381653344188  0.3282831384277998  1.0000
  N   N7        1.0  0.7525855236369097  0.08768752051653907  0.41387523376739205  1.0000
  N   N8        1.0  0.24741356906296375  0.9123159361837095  0.5861226561634184  1.0000
  O   O1        1.0  0.6210303168815373  0.5102509333388239  0.6889135063278574  1.0000
  O   O2        1.0  0.3789678069838018  0.4897546444349671  0.3110869581357179  1.0000
  O   O3        1.0  0.6108645545376632  0.5010948893512007  0.3153813399676864  1.0000
  O   O4        1.0  0.38913342087926145  0.49890518650039434  0.684621305622045  1.0000
  O   O5        1.0  0.6146693090776125  0.6895866258729342  0.5085733495243263  1.0000
  O   O6        1.0  0.38533082745576763  0.31041776762406675  0.4914244774513464  1.0000
  O   O7        1.0  0.6177991450771358  0.3190664235440934  0.5068631359064143  1.0000
  O   O8        1.0  0.3822009180067951  0.6809355259009919  0.4931393837730411  1.0000
