data_image0
_chemical_formula_structural       Cd4H36C44N12O16
_chemical_formula_sum              "Cd4 H36 C44 N12 O16"
_cell_length_a       7.834192502000436
_cell_length_b       12.249431287045102
_cell_length_c       12.957602368521417
_cell_angle_alpha    93.36221047683568
_cell_angle_beta     90.0000385940716
_cell_angle_gamma    89.99999777511688

_space_group_name_H-M_alt    "P 1"
_space_group_IT_number       1

loop_
  _space_group_symop_operation_xyz
  'x, y, z'

loop_
  _atom_site_type_symbol
  _atom_site_label
  _atom_site_symmetry_multiplicity
  _atom_site_fract_x
  _atom_site_fract_y
  _atom_site_fract_z
  _atom_site_occupancy
  Cd  Cd1       1.0  0.843379853946857  0.7833110098554527  0.07179717721135148  1.0000
  Cd  Cd2       1.0  0.343380854209073  0.7166906657638419  0.4282036925670595  1.0000
  Cd  Cd3       1.0  0.1566178051616518  0.21668815761096025  0.9282040142143869  1.0000
  Cd  Cd4       1.0  0.65661808135431  0.2833109521073709  0.571796087107259  1.0000
  H   H1        1.0  0.8287108312653475  0.518211821160122  0.06927005109192658  1.0000
  H   H2        1.0  0.3287118181268838  0.9817898588139826  0.43073312824664356  1.0000
  H   H3        1.0  0.1712919336648255  0.4817873419451287  0.930728824853567  1.0000
  H   H4        1.0  0.6712934997156453  0.018210942740211098  0.5692673792885542  1.0000
  H   H5        1.0  0.7159364720234296  0.3580838093957368  0.9600214404784635  1.0000
  H   H6        1.0  0.21593065820692914  0.14191612248020385  0.5399810442345937  1.0000
  H   H7        1.0  0.28407139872884807  0.6419128974898313  0.039975759911378396  1.0000
  H   H8        1.0  0.7840682773568872  0.8580854968447369  0.4600195072668213  1.0000
  H   H9        1.0  0.5708429278084851  0.3978278564046462  0.7904464303514301  1.0000
  H   H10       1.0  0.07083603058072191  0.10217125473025125  0.7095544081729981  1.0000
  H   H11       1.0  0.42916239003274376  0.6021713052468838  0.20955167376748557  1.0000
  H   H12       1.0  0.9291590756145713  0.8978279069212787  0.2904436959438569  1.0000
  H   H13       1.0  0.5520981401896563  0.5872208302316293  0.7383999496166637  1.0000
  H   H14       1.0  0.05209383534587891  0.9127795570423201  0.7616021305756602  1.0000
  H   H15       1.0  0.44790334828650913  0.41277915645925123  0.26160205760444905  1.0000
  H   H16       1.0  0.9479038237622036  0.0872204267411192  0.23839833299049218  1.0000
  H   H17       1.0  0.5888498190624958  0.7814467353740252  0.6869976539409491  1.0000
  H   H18       1.0  0.0888519661740546  0.7185471024812528  0.8130002302119405  1.0000
  H   H19       1.0  0.41114784004385296  0.21854670042854707  0.3129993705768186  1.0000
  H   H20       1.0  0.9111469693902026  0.2814545182974014  0.18700109311656374  1.0000
  H   H21       1.0  0.5979637701404813  0.003640132723717199  0.7461675794273646  1.0000
  H   H22       1.0  0.09796583371998932  0.49635978747135556  0.753828683051097  1.0000
  H   H23       1.0  0.4020338889645601  0.9963582053421831  0.25382739341413435  1.0000
  H   H24       1.0  0.9020331018451274  0.5036418362147472  0.24617418393159335  1.0000
  H   H25       1.0  0.6736610248968591  0.023356009777486992  0.0353718067807236  1.0000
  H   H26       1.0  0.17366077371774943  0.47664356748920494  0.4646253858083397  1.0000
  H   H27       1.0  0.3263404635758392  0.9766415119713868  0.9646238939211426  1.0000
  H   H28       1.0  0.8263381618469339  0.5233588725139241  0.5353767533147574  1.0000
  H   H29       1.0  0.5850282705416207  0.09884241715312918  0.9344213843265052  1.0000
  H   H30       1.0  0.08502757543916321  0.40115996507090285  0.5655796357950676  1.0000
  H   H31       1.0  0.41497321793368513  0.901158384401057  0.06557912320791807  1.0000
  H   H32       1.0  0.9149700836697793  0.598841657161479  0.43442245936027035  1.0000
  H   H33       1.0  0.1447310363848828  0.76894890438961  0.22362045785820328  1.0000
  H   H34       1.0  0.6447404809306931  0.7310535860069434  0.27637883205104424  1.0000
  H   H35       1.0  0.8552653462670181  0.23104944239861414  0.7763791459455972  1.0000
  H   H36       1.0  0.3552622840020803  0.2689521279866227  0.7236250265970199  1.0000
  C   C1        1.0  0.766166296534479  0.5292205137629934  0.9953687096070066  1.0000
  C   C2        1.0  0.26616808157213273  0.9707798779648512  0.5046357724759999  1.0000
  C   C3        1.0  0.23383519194082683  0.47077783447895166  0.004631666024913294  1.0000
  C   C4        1.0  0.7338346833589072  0.029219288047840998  0.4953646471236792  1.0000
  C   C5        1.0  0.7021711564838286  0.4410239155734245  0.9346109476196885  1.0000
  C   C6        1.0  0.2021692056784303  0.058976832613581096  0.5653908036782126  1.0000
  C   C7        1.0  0.2978354378127079  0.558975244624385  0.06538638467239369  1.0000
  C   C8        1.0  0.7978284534292117  0.9410239674868843  0.43460893202834666  1.0000
  C   C9        1.0  0.6238618200523549  0.4630385060335057  0.841259934031079  1.0000
  C   C10       1.0  0.12385997552669889  0.03696142434882429  0.6587417416899368  1.0000
  C   C11       1.0  0.37614222133312586  0.5369614733887713  0.15873821405508434  1.0000
  C   C12       1.0  0.8761364071252092  0.9630369224393929  0.3412578621138562  1.0000
  C   C13       1.0  0.6131395716595236  0.5701104934310876  0.8112198622657515  1.0000
  C   C14       1.0  0.11314028973780671  0.9298882597815349  0.6887829264589198  1.0000
  C   C15       1.0  0.3868619168170754  0.4298903124842682  0.18878296074995393  1.0000
  C   C16       1.0  0.8868599222808841  0.07010926778222167  0.3112158615510551  1.0000
  C   C17       1.0  0.6799173879558467  0.6544449058966888  0.8766227314185996  1.0000
  C   C18       1.0  0.17992059059645985  0.845553028120385  0.6233792684667135  1.0000
  C   C19       1.0  0.3200828240663185  0.3455567221505687  0.12338245104562157  1.0000
  C   C20       1.0  0.8200834507885945  0.15444449653593037  0.37661797588985013  1.0000
  C   C21       1.0  0.6677476421959839  0.7697216925924335  0.8531576514884165  1.0000
  C   C22       1.0  0.16774704890647746  0.7302770533752321  0.6468413001429666  1.0000
  C   C23       1.0  0.332252569822714  0.2302774705128172  0.14684122445655848  1.0000
  C   C24       1.0  0.8322544395683878  0.26972292895448646  0.35315839159686385  1.0000
  C   C25       1.0  0.6199813391731227  0.8203245546354695  0.762118530416053  1.0000
  C   C26       1.0  0.11997957485924361  0.6796750047210905  0.7378781304205474  1.0000
  C   C27       1.0  0.3800137670217367  0.17967542333308723  0.23787884584121596  1.0000
  C   C28       1.0  0.8800155313369161  0.32032579537937517  0.2621216052854932  1.0000
  C   C29       1.0  0.6255671210136171  0.9317837516751554  0.7886828826321162  1.0000
  C   C30       1.0  0.12556916303690713  0.5682158091375482  0.7113145522870353  1.0000
  C   C31       1.0  0.37442798518123516  0.0682145907519072  0.2113144056901461  1.0000
  C   C32       1.0  0.8744284960716016  0.4317866294118602  0.28868681500871657  1.0000
  C   C33       1.0  0.6893096118540498  0.043954769908644706  0.9546429006321588  1.0000
  C   C34       1.0  0.18931016711317034  0.45604597245790046  0.5453557581663374  1.0000
  C   C35       1.0  0.31068932370803276  0.9560435725184175  0.04535438769087816  1.0000
  C   C36       1.0  0.8106874919957721  0.5439556497744746  0.4546463369890005  1.0000
  C   C37       1.0  0.8572528869647728  0.10542838528378697  0.9458732839571764  1.0000
  C   C38       1.0  0.3572509029368192  0.39457235860923134  0.5541262144578667  1.0000
  C   C39       1.0  0.14274732505305818  0.894569139372528  0.05412396039861987  1.0000
  C   C40       1.0  0.6427454797159485  0.6054292621694229  0.4458751088701191  1.0000
  C   C41       1.0  0.0648849181635853  0.7019013270780757  0.25160716662169585  1.0000
  C   C42       1.0  0.564886668410729  0.7981003527817376  0.24839590622423194  1.0000
  C   C43       1.0  0.935112740945357  0.2980994773835518  0.7483948845661457  1.0000
  C   C44       1.0  0.4351135436105623  0.20190372567032705  0.7516078644883136  1.0000
  N   N1        1.0  0.7553151274131482  0.632730559729623  0.9674500613369899  1.0000
  N   N2        1.0  0.2553156737181155  0.8672698290860763  0.532552872711527  1.0000
  N   N3        1.0  0.24468763751919204  0.36726942841497834  0.03255271771146789  1.0000
  N   N4        1.0  0.7446896441239802  0.13273015324364215  0.467446819029078  1.0000
  N   N5        1.0  0.7006368413008489  0.8465888572631713  0.9293493962280761  1.0000
  N   N6        1.0  0.20064127289999328  0.6534131568943023  0.5706482008958033  1.0000
  N   N7        1.0  0.29936081780549273  0.1534127562468868  0.0706480679647115  1.0000
  N   N8        1.0  0.7993627684867876  0.34658682688914416  0.4293522626716353  1.0000
  N   N9        1.0  0.6741771649115051  0.9438425600558205  0.8895960847284028  1.0000
  N   N10       1.0  0.1741816471535245  0.5561594526364643  0.6104007298879992  1.0000
  N   N11       1.0  0.3258179412829136  0.05615823422976259  0.11040056366927328  1.0000
  N   N12       1.0  0.8258198413222076  0.44384135037144273  0.3896005494735205  1.0000
  O   O1        1.0  0.9750199384122525  0.06588172352342529  0.8872635460374451  1.0000
  O   O2        1.0  0.4750154649307918  0.43411738778655706  0.612737455632711  1.0000
  O   O3        1.0  0.024984102974094903  0.9341149877233048  0.11273596983289016  1.0000
  O   O4        1.0  0.5249821941764169  0.5658850464016821  0.3872615961817658  1.0000
  O   O5        1.0  0.8676470927730692  0.1961016624402205  0.9983305216068883  1.0000
  O   O6        1.0  0.3676476082481842  0.30389744736952906  0.5016696648963473  1.0000
  O   O7        1.0  0.13235311924562151  0.8038950473527889  0.0016682224355832897  1.0000
  O   O8        1.0  0.632348774405017  0.6961025393213516  0.4983323423237279  1.0000
  O   O9        1.0  0.9292700845432336  0.6755304471600992  0.20231406380936787  1.0000
  O   O10       1.0  0.4292709314955303  0.8244695958623462  0.2976882963576201  1.0000
  O   O11       1.0  0.07072502165596013  0.32447118088716553  0.7976911186538229  1.0000
  O   O12       1.0  0.5707241747019225  0.17553284414077547  0.7023138427647095  1.0000
  O   O13       1.0  0.1143820887311904  0.6560412169274057  0.33144466952258966  1.0000
  O   O14       1.0  0.6143824699707922  0.8439580067341693  0.16855674774580354  1.0000
  O   O15       1.0  0.8856168468334928  0.343958769763482  0.6685573376980044  1.0000
  O   O16       1.0  0.3856151891385835  0.15604279918117914  0.8314460752691274  1.0000
