data_image0
_chemical_formula_structural       Cd8H80C96N16O40
_chemical_formula_sum              "Cd8 H80 C96 N16 O40"
_cell_length_a       14.48664552539432
_cell_length_b       17.5190475090371
_cell_length_c       17.51302326406873
_cell_angle_alpha    80.12407300373505
_cell_angle_beta     65.5618788974133
_cell_angle_gamma    65.56347857110237

_space_group_name_H-M_alt    "P 1"
_space_group_IT_number       1

loop_
  _space_group_symop_operation_xyz
  'x, y, z'

loop_
  _atom_site_type_symbol
  _atom_site_label
  _atom_site_symmetry_multiplicity
  _atom_site_fract_x
  _atom_site_fract_y
  _atom_site_fract_z
  _atom_site_occupancy
  Cd  Cd1       1.0  0.12702733269512811  0.41179822355388745  0.9367590067717873  1.0000
  Cd  Cd2       1.0  0.9756000891555344  0.0882207107991206  0.5631282608726736  1.0000
  Cd  Cd3       1.0  0.06361527200326104  0.06336770728466952  0.9118586837916427  1.0000
  Cd  Cd4       1.0  0.5388767103288641  0.43659493107020353  0.588132484176221  1.0000
  Cd  Cd5       1.0  0.8729726691611218  0.5882028817900108  0.06324189470532811  1.0000
  Cd  Cd6       1.0  0.0243967713446904  0.9117816476737772  0.43687657585869033  1.0000
  Cd  Cd7       1.0  0.9363897727254981  0.9366333984275171  0.08813880165643447  1.0000
  Cd  Cd8       1.0  0.46111613451080297  0.5634105641886151  0.4118665405575471  1.0000
  H   H1        1.0  0.7689659221662027  0.3478176445383737  0.04846278498472146  1.0000
  H   H2        1.0  0.2689975463424828  0.07429135084846192  0.9371583645324437  1.0000
  H   H3        1.0  0.4649432028827715  0.0003581595808555  0.8443425309971887  1.0000
  H   H4        1.0  0.43909629835805214  0.2063519094855479  0.6704828369048741  1.0000
  H   H5        1.0  0.24684646612922723  0.2812255048999716  0.7639630375710739  1.0000
  H   H6        1.0  0.624420010984437  0.9948397123222533  0.7212781143688931  1.0000
  H   H7        1.0  0.5926205646019793  0.04256498246849821  0.631912401854784  1.0000
  H   H8        1.0  0.6311772160133343  0.09370956029827229  0.6849562396926387  1.0000
  H   H9        1.0  0.23017953105747313  0.3796073407436964  0.05500921226652623  1.0000
  H   H10       1.0  0.10117585232961794  0.4232871727730512  0.10210276523257282  1.0000
  H   H11       1.0  0.6649150399954278  0.1521797464911359  0.4516534597355816  1.0000
  H   H12       1.0  0.7808601685670595  0.42548313174368957  0.5624192833202813  1.0000
  H   H13       1.0  0.8098986746668967  0.49947938071588277  0.6552805146641205  1.0000
  H   H14       1.0  0.8154182619931374  0.29375563820440226  0.8294772743180019  1.0000
  H   H15       1.0  0.7916273011032046  0.2188655817778695  0.735929291126908  1.0000
  H   H16       1.0  0.8401922530396246  0.5051755826200832  0.778539067598402  1.0000
  H   H17       1.0  0.7668132637211754  0.4573828944097329  0.8678543392775141  1.0000
  H   H18       1.0  0.9096497700210192  0.40635166395617267  0.8148548932734486  1.0000
  H   H19       1.0  0.16489813719054053  0.12015983046732968  0.4450601175406562  1.0000
  H   H20       1.0  0.12644278324907518  0.07673677706454642  0.39792123282403224  1.0000
  H   H21       1.0  0.8175182156816729  0.9516769922220973  0.8476650753102748  1.0000
  H   H22       1.0  0.20679371305595134  0.06257899778982078  0.5743374525188828  1.0000
  H   H23       1.0  0.31000425831638956  0.1554027813988839  0.5003857900576137  1.0000
  H   H24       1.0  0.10941476349914568  0.32953956961056  0.7059669767684014  1.0000
  H   H25       1.0  0.010524721353305939  0.23610878690835335  0.7807804726153195  1.0000
  H   H26       1.0  0.3459258150307246  0.27875508493509205  0.4947405395110637  1.0000
  H   H27       1.0  0.2246984817685486  0.36796429630330607  0.5424514334755699  1.0000
  H   H28       1.0  0.3163591627900572  0.3149417672818159  0.5936182873753354  1.0000
  H   H29       1.0  0.285005504946653  0.9451437395143998  0.87944523450971  1.0000
  H   H30       1.0  0.2031481703707171  0.8979912384184272  0.9231296516242153  1.0000
  H   H31       1.0  0.11674069818593584  0.5481620823202532  0.6522152421003043  1.0000
  H   H32       1.0  0.343312279531453  0.43712456838049  0.9258954355662258  1.0000
  H   H33       1.0  0.46540390169030843  0.34414440313793176  0.999803143443259  1.0000
  H   H34       1.0  0.6453047738146224  0.1706114487935295  0.7936562963299424  1.0000
  H   H35       1.0  0.5278155030838078  0.2642182609236698  0.7188400968975018  1.0000
  H   H36       1.0  0.6192694150572393  0.22108706918724147  0.005235945228122292  1.0000
  H   H37       1.0  0.6350326602806006  0.1318977660603977  0.9574244478407224  1.0000
  H   H38       1.0  0.7249356506256317  0.18482734180476257  0.9063698130368751  1.0000
  H   H39       1.0  0.6099484022509994  0.5545940440322568  0.620374336355127  1.0000
  H   H40       1.0  0.5245438347434118  0.6019085965279416  0.5767752149358218  1.0000
  H   H41       1.0  0.23103395841600627  0.6521865965189093  0.9515344745133093  1.0000
  H   H42       1.0  0.7310003681169234  0.925711008840274  0.06284172290848751  1.0000
  H   H43       1.0  0.535055319648997  0.9996410642604301  0.15566146967514533  1.0000
  H   H44       1.0  0.5609070732380487  0.79364167256157  0.32951695823822313  1.0000
  H   H45       1.0  0.7531568928838933  0.718771211826521  0.2360367338737462  1.0000
  H   H46       1.0  0.3755771881826888  0.005155749820566799  0.2787267698986327  1.0000
  H   H47       1.0  0.40738261794049874  0.9574285991286473  0.36808906680256126  1.0000
  H   H48       1.0  0.368820503045896  0.9062877823563013  0.31504945791297717  1.0000
  H   H49       1.0  0.7698208598970021  0.6203912559490519  0.9449947655452463  1.0000
  H   H50       1.0  0.89882240555125  0.5767139322980908  0.8978998327589667  1.0000
  H   H51       1.0  0.33508270898431636  0.8478169685171579  0.5483547482810212  1.0000
  H   H52       1.0  0.2191356144000237  0.5745248697438327  0.4375838556400923  1.0000
  H   H53       1.0  0.1901007663750319  0.5005267398622947  0.3447214707053021  1.0000
  H   H54       1.0  0.18458780200901967  0.7062442132060908  0.1705213194187466  1.0000
  H   H55       1.0  0.2083745755222991  0.781139913001681  0.26406765083921624  1.0000
  H   H56       1.0  0.15979942438450936  0.4948280292930959  0.22146945613507543  1.0000
  H   H57       1.0  0.23317472253432198  0.5426207177669582  0.1321547959611352  1.0000
  H   H58       1.0  0.09034452886702853  0.5936488143162533  0.18514888186769707  1.0000
  H   H59       1.0  0.8351042057224659  0.8798406488529552  0.5549365772902777  1.0000
  H   H60       1.0  0.8735604654809846  0.9232605658242503  0.6020813200048637  1.0000
  H   H61       1.0  0.18249402856715588  0.0483159612495072  0.15233682099040644  1.0000
  H   H62       1.0  0.7932082186560193  0.9374195999847004  0.4256620472547752  1.0000
  H   H63       1.0  0.6900021491072224  0.8445958153940153  0.49961531422974287  1.0000
  H   H64       1.0  0.8905873746039816  0.6704615356470355  0.29403333620372507  1.0000
  H   H65       1.0  0.9894743557563572  0.7638935729622174  0.21921848381600018  1.0000
  H   H66       1.0  0.6540824749798373  0.7212428834502802  0.5052649969536633  1.0000
  H   H67       1.0  0.7753052537598248  0.6320330464514184  0.45755139060563726  1.0000
  H   H68       1.0  0.6836494564777095  0.6850549477449519  0.4063853046020684  1.0000
  H   H69       1.0  0.7149990797310223  0.05485423039348089  0.12055645842225732  1.0000
  H   H70       1.0  0.7968528870259918  0.1020130015616942  0.07687093190212815  1.0000
  H   H71       1.0  0.8832477638769021  0.4518440392734674  0.34778774102751  1.0000
  H   H72       1.0  0.6566869944602587  0.5628690155481878  0.07409940803466948  1.0000
  H   H73       1.0  0.5345938173796512  0.6558491809679623  0.00019172315782622342  1.0000
  H   H74       1.0  0.354696154380214  0.8293877768954018  0.20634015052809226  1.0000
  H   H75       1.0  0.4721899323351764  0.7357797110090729  0.28115406522035613  1.0000
  H   H76       1.0  0.3807264891946147  0.7789140380382162  0.994760004706798  1.0000
  H   H77       1.0  0.3649669776433768  0.8680995785758937  0.04257342469828988  1.0000
  H   H78       1.0  0.275063658041148  0.8151712561901263  0.09363000398946038  1.0000
  H   H79       1.0  0.3900517067150342  0.4454039268572458  0.3796257520631343  1.0000
  H   H80       1.0  0.47545176699847497  0.39809062811774953  0.4232271582226233  1.0000
  C   C1        1.0  0.8926937581711768  0.40204247829095147  0.01874863352253423  1.0000
  C   C2        1.0  0.9699967461123717  0.320558543106074  0.9772696631849275  1.0000
  C   C3        1.0  0.952998082021494  0.24850670379804282  0.9738732782292702  1.0000
  C   C4        1.0  0.8527631103707023  0.23057676537001012  0.008187546955625144  1.0000
  C   C5        1.0  0.12752375224836485  0.22456250286377608  0.9074207192079485  1.0000
  C   C6        1.0  0.24412756661155996  0.18190297067948785  0.8556480029412373  1.0000
  C   C7        1.0  0.3062414612711634  0.102102665356206  0.8775476749725472  1.0000
  C   C8        1.0  0.4160463526165826  0.06126271688586368  0.8256183017870599  1.0000
  C   C9        1.0  0.46605892616006594  0.0975706324893579  0.7504009617291986  1.0000
  C   C10       1.0  0.40263259631901593  0.17707812151682842  0.7291853734596003  1.0000
  C   C11       1.0  0.2942385281649747  0.2193415915065557  0.7813962892420677  1.0000
  C   C12       1.0  0.5844134447332648  0.054504533554244  0.6945628741149151  1.0000
  C   C13       1.0  0.8134545663111081  0.09794038260008618  0.48107307786682446  1.0000
  C   C14       1.0  0.767746007394038  0.17937030953388697  0.5226128960524151  1.0000
  C   C15       1.0  0.6752500467811943  0.25144196443979167  0.5260697991976216  1.0000
  C   C16       1.0  0.5913134342200407  0.26943887625652957  0.4918570971738633  1.0000
  C   C17       1.0  0.7595422157810314  0.275367198626121  0.5923663335852681  1.0000
  C   C18       1.0  0.7817332190471687  0.31805234846075336  0.6440994684790908  1.0000
  C   C19       1.0  0.7861574508344232  0.39776645416679196  0.6220991454245421  1.0000
  C   C20       1.0  0.8030792452443123  0.4386208869440863  0.6740614522822029  1.0000
  C   C21       1.0  0.8140044999211609  0.4023646836674644  0.7493493173955839  1.0000
  C   C22       1.0  0.8086790256735836  0.32292422483191524  0.7706513906248135  1.0000
  C   C23       1.0  0.7948396339791656  0.2806576515067576  0.7184072590577844  1.0000
  C   C24       1.0  0.8332690134155949  0.44548096675111276  0.8052287951202644  1.0000
  C   C25       1.0  0.9113978520280384  0.9813390400119102  0.9019894635560777  1.0000
  C   C26       1.0  0.947136396900916  0.022900117642500092  0.8205133455585454  1.0000
  C   C27       1.0  0.9269749516344773  0.026196717143285794  0.7483476438701473  1.0000
  C   C28       1.0  0.8610889791221292  0.9919553791338841  0.730373464079449  1.0000
  C   C29       1.0  0.035153685416048526  0.09252376248458918  0.7243734214104763  1.0000
  C   C30       1.0  0.10009645354110566  0.14422512996463863  0.6817026016444886  1.0000
  C   C31       1.0  0.1843551501172413  0.12223101598321756  0.6020261322971693  1.0000
  C   C32       1.0  0.24220941510482408  0.17417846255569458  0.561185814320382  1.0000
  C   C33       1.0  0.21678615138740298  0.2494560149396392  0.5974076650636349  1.0000
  C   C34       1.0  0.13188232415681952  0.2707525073028236  0.6768007706326673  1.0000
  C   C35       1.0  0.07568671333229544  0.21855306666528657  0.7190494393514087  1.0000
  C   C36       1.0  0.2792066755709751  0.30535572599260524  0.5544041260851104  1.0000
  C   C37       1.0  0.29468519458851  0.5186873423513204  0.5979054091952564  1.0000
  C   C38       1.0  0.29052468223355277  0.4771573971809673  0.6794060299953985  1.0000
  C   C39       1.0  0.20149244981949702  0.4737746480822622  0.7515534232998322  1.0000
  C   C40       1.0  0.08336391817095992  0.5079533284225235  0.7695287233377713  1.0000
  C   C41       1.0  0.35206968305590886  0.4075213883327748  0.7755177387064336  1.0000
  C   C42       1.0  0.42607349874960937  0.3558387147769081  0.8181827051738962  1.0000
  C   C43       1.0  0.4084523599874711  0.37760799415885765  0.8980092729885599  1.0000
  C   C44       1.0  0.4774460203226808  0.3256060750429199  0.9388108081356139  1.0000
  C   C45       1.0  0.5637091422301665  0.2504354788022951  0.902439698039622  1.0000
  C   C46       1.0  0.5796916127811754  0.2293459056176701  0.82291120090558  1.0000
  C   C47       1.0  0.5135180573807646  0.28162060953931695  0.7806866956877626  1.0000
  C   C48       1.0  0.6389248023433391  0.19449127072395098  0.9455274195747806  1.0000
  C   C49       1.0  0.10731007823056105  0.5979598812729492  0.9812494171511192  1.0000
  C   C50       1.0  0.030006335666868687  0.6794431895296569  0.02272868188083518  1.0000
  C   C51       1.0  0.047001609507084714  0.7514975368092677  0.026125654783015807  1.0000
  C   C52       1.0  0.14723893003233685  0.7694218313705008  0.9918155710988404  1.0000
  C   C53       1.0  0.8724796729523377  0.7754379751543682  0.09258013640842234  1.0000
  C   C54       1.0  0.7558725596920153  0.8180975072431166  0.1443545721897478  1.0000
  C   C55       1.0  0.6937569352320024  0.8978940524859736  0.12245022070625569  1.0000
  C   C56       1.0  0.5839524818348563  0.9387327465637156  0.17438126768522724  1.0000
  C   C57       1.0  0.5339411134451097  0.9024210688163947  0.2496000108427339  1.0000
  C   C58       1.0  0.597371514143326  0.8229167138457425  0.2708160719183255  1.0000
  C   C59       1.0  0.7057642196025142  0.7806557527752955  0.21860153729657847  1.0000
  C   C60       1.0  0.4155851849082949  0.9454915558326462  0.3054403134985648  1.0000
  C   C61       1.0  0.1865475859562762  0.9020607213985199  0.5189316901432336  1.0000
  C   C62       1.0  0.232253540757682  0.8206326765899021  0.4773882762581608  1.0000
  C   C63       1.0  0.32474612370283734  0.7485603949761881  0.4739319847577478  1.0000
  C   C64       1.0  0.4086803290196528  0.7305603478914261  0.5081478092561371  1.0000
  C   C65       1.0  0.24045251164558562  0.7246376682251706  0.40763712332586993  1.0000
  C   C66       1.0  0.21825471371386831  0.6819575355926872  0.35590070928715534  1.0000
  C   C67       1.0  0.21383492454445713  0.602241548259201  0.37790209476963116  1.0000
  C   C68       1.0  0.19690987691420486  0.5613858613528181  0.3259420732106265  1.0000
  C   C69       1.0  0.18598711766195208  0.5976401835382674  0.25065418551591284  1.0000
  C   C70       1.0  0.19131515194042958  0.6770793891538955  0.2293487425372477  1.0000
  C   C71       1.0  0.20515321403378556  0.7193503520441595  0.28158979735076883  1.0000
  C   C72       1.0  0.16672052776165464  0.5545226452483688  0.1947803171182018  1.0000
  C   C73       1.0  0.0886028430176822  0.018664572680997096  0.0980125223718176  1.0000
  C   C74       1.0  0.052870921105025656  0.9770972258827155  0.17948524873668262  1.0000
  C   C75       1.0  0.07302355831431828  0.9738056413773817  0.25165633310391666  1.0000
  C   C76       1.0  0.13892234038011253  0.0080388288644002  0.2696264871754366  1.0000
  C   C77       1.0  0.9648455350704737  0.9074798518695102  0.2756232957225464  1.0000
  C   C78       1.0  0.8999072221462397  0.8557734680826313  0.3182952016147384  1.0000
  C   C79       1.0  0.8156517299404344  0.8777675819346055  0.39797078820457443  1.0000
  C   C80       1.0  0.7577958485980714  0.8258220159601847  0.4388125080244408  1.0000
  C   C81       1.0  0.7832190445359117  0.7505413274128898  0.4025959727745133  1.0000
  C   C82       1.0  0.8681238942131699  0.7292460890401031  0.32320200716893777  1.0000
  C   C83       1.0  0.9243121904800019  0.7814486663680353  0.28094924596721443  1.0000
  C   C84       1.0  0.7207993537453845  0.694642869900356  0.4456003252307428  1.0000
  C   C85       1.0  0.7053118092885737  0.4813162706050988  0.40209718823781776  1.0000
  C   C86       1.0  0.7094713307093699  0.5228437090104802  0.3205935382203295  1.0000
  C   C87       1.0  0.7985033898260524  0.5262258312719293  0.24844587380319896  1.0000
  C   C88       1.0  0.916634656384133  0.49204965796939587  0.2304719064681749  1.0000
  C   C89       1.0  0.6479309773147433  0.5924772102939216  0.22447927379602817  1.0000
  C   C90       1.0  0.5739268307825609  0.6441580037880001  0.18181182047624123  1.0000
  C   C91       1.0  0.5915494456958968  0.6223880976165648  0.10198412179157393  1.0000
  C   C92       1.0  0.5225543548862602  0.6743893894884322  0.061184283298565754  1.0000
  C   C93       1.0  0.4362922396691927  0.7495618661067452  0.09755647798495919  1.0000
  C   C94       1.0  0.42031065136127654  0.7706539470903452  0.17708438605553312  1.0000
  C   C95       1.0  0.4864843958153102  0.7183792436186707  0.21930721775910916  1.0000
  C   C96       1.0  0.36107559020312846  0.8055067008405031  0.054470158572115686  1.0000
  N   N1        1.0  0.07960047583429733  0.30450131434201916  0.9352797433712042  1.0000
  N   N2        1.0  0.053338065995070724  0.1887894605640525  0.9302095317183331  1.0000
  N   N3        1.0  0.8194342823527447  0.19544767576778807  0.5644581995102984  1.0000
  N   N4        1.0  0.672250864944665  0.3111210353281492  0.5697211915308955  1.0000
  N   N5        1.0  0.014872627686869729  0.0647748951207774  0.8044125301760945  1.0000
  N   N6        1.0  0.9837619693396108  0.0697769240609958  0.6885824927994335  1.0000
  N   N7        1.0  0.38406567695118093  0.43531776782550213  0.695495155052889  1.0000
  N   N8        1.0  0.24212912575864448  0.43019986085760553  0.8113088946938661  1.0000
  N   N9        1.0  0.9204013030911185  0.6955016719204535  0.0647200036772588  1.0000
  N   N10       1.0  0.9466604597099746  0.8112122715693245  0.06979250062878621  1.0000
  N   N11       1.0  0.18056476641768865  0.8045584451694479  0.43554267784968914  1.0000
  N   N12       1.0  0.32774700383798455  0.6888825783941428  0.4302783301259936  1.0000
  N   N13       1.0  0.9851248819180611  0.9352305996063917  0.19558642555713135  1.0000
  N   N14       1.0  0.01624171893071477  0.9302185393068995  0.3114153341580633  1.0000
  N   N15       1.0  0.6159312465740712  0.5646820850982621  0.3045019031707029  1.0000
  N   N16       1.0  0.757869051770392  0.5697974841808814  0.1886881640881982  1.0000
  O   O1        1.0  0.9361276345571382  0.4516950547613802  0.020517897448364346  1.0000
  O   O2        1.0  0.7900121875341739  0.4188696025919611  0.0498853136074686  1.0000
  O   O3        1.0  0.7585979399998023  0.29066494491112843  0.04656532439678068  1.0000
  O   O4        1.0  0.8587571564199619  0.158716001463759  0.9997360764276025  1.0000
  O   O5        1.0  0.16106969066346008  0.3788999567693451  0.06022122875662462  1.0000
  O   O6        1.0  0.9083134830457524  0.048255781939971605  0.47934644485778943  1.0000
  O   O7        1.0  0.7586332591331556  0.08110047695424068  0.45008889456503454  1.0000
  O   O8        1.0  0.5954469846500671  0.20935189339923704  0.4536076525644575  1.0000
  O   O9        1.0  0.5171425965027654  0.3413715664408272  0.5002103858384928  1.0000
  O   O10       1.0  0.10022433146558274  0.12113570558245357  0.4397397503429161  1.0000
  O   O11       1.0  0.9564992713689333  0.9796570463828473  0.9517210621650707  1.0000
  O   O12       1.0  0.8399187772536362  0.9501765884617086  0.9187901719157525  1.0000
  O   O13       1.0  0.8052519769835552  0.9535935642711593  0.7904799246677146  1.0000
  O   O14       1.0  0.858772052782619  0.00037224511733309994  0.658444538902458  1.0000
  O   O15       1.0  0.22111511856728322  0.9399147029815679  0.87874805891326  1.0000
  O   O16       1.0  0.3877749041577158  0.5205404412352549  0.5482492550465282  1.0000
  O   O17       1.0  0.20887247962028244  0.5497329725940006  0.5810585588554248  1.0000
  O   O18       1.0  0.0492548003955449  0.5462116745747705  0.7093992071086676  1.0000
  O   O19       1.0  0.017500077118348983  0.49956120884683486  0.8414506419004085  1.0000
  O   O20       1.0  0.5400437870914911  0.5599492079332932  0.6211440157260527  1.0000
  O   O21       1.0  0.06387629637141821  0.5483073050275137  0.979479316468158  1.0000
  O   O22       1.0  0.20999088008081665  0.5811321313027661  0.9501085764203624  1.0000
  O   O23       1.0  0.24140477942844962  0.7093361604373882  0.9534344230705403  1.0000
  O   O24       1.0  0.14125053810122523  0.8412819680896887  0.00026557050400561856  1.0000
  O   O25       1.0  0.8389304356401084  0.6211005211532664  0.9397813463743532  1.0000
  O   O26       1.0  0.09168453693144543  0.9517440684226558  0.5206592291891711  1.0000
  O   O27       1.0  0.24136579587369053  0.9188974927194165  0.5499159431436597  1.0000
  O   O28       1.0  0.4045516906682635  0.7906429419540971  0.5463961008330643  1.0000
  O   O29       1.0  0.48285576848789413  0.6586264041759192  0.4997913990941997  1.0000
  O   O30       1.0  0.8997763887460903  0.8788616377516901  0.5602622829815334  1.0000
  O   O31       1.0  0.04351370392843276  0.020342178247396696  0.048274092682085316  1.0000
  O   O32       1.0  0.160091236221497  0.0498163648712122  0.0812131496470485  1.0000
  O   O33       1.0  0.19475872809977077  0.0463987629903784  0.20952005000620494  1.0000
  O   O34       1.0  0.1412248408113896  0.9996319940013834  0.34156083991468483  1.0000
  O   O35       1.0  0.7788906476901829  0.0600851490129628  0.12124859005693615  1.0000
  O   O36       1.0  0.6122151285831309  0.4794650537939659  0.45175176045416526  1.0000
  O   O37       1.0  0.7911207543176032  0.4502700140136681  0.41894354221300034  1.0000
  O   O38       1.0  0.9507393283684137  0.4537906851524979  0.29060232859455937  1.0000
  O   O39       1.0  0.9824998302110828  0.500439896272077  0.1585510963338308  1.0000
  O   O40       1.0  0.4599547055197632  0.44005064355425816  0.3788574745352875  1.0000
