data_image0
_chemical_formula_structural       Zn4H8C56O16F24
_chemical_formula_sum              "Zn4 H8 C56 O16 F24"
_cell_length_a       7.514642815292529
_cell_length_b       10.878051789921994
_cell_length_c       35.25449202340301
_cell_angle_alpha    89.89033704215971
_cell_angle_beta     93.93765914062828
_cell_angle_gamma    90.07329910481546

_space_group_name_H-M_alt    "P 1"
_space_group_IT_number       1

loop_
  _space_group_symop_operation_xyz
  'x, y, z'

loop_
  _atom_site_type_symbol
  _atom_site_label
  _atom_site_symmetry_multiplicity
  _atom_site_fract_x
  _atom_site_fract_y
  _atom_site_fract_z
  _atom_site_occupancy
  Zn  Zn1       1.0  0.694668047645635  0.00023230862110069968  0.5031237338428693  1.0000
  Zn  Zn2       1.0  0.33021097363827323  0.9999869444221686  0.497959777278737  1.0000
  Zn  Zn3       1.0  0.2147098217250019  0.9972140279014567  0.9968463791555066  1.0000
  Zn  Zn4       1.0  0.5792145848103161  0.9974652233279928  0.0020248600234111986  1.0000
  H   H1        1.0  0.25088263414920675  0.9964943156794064  0.7537194464274106  1.0000
  H   H2        1.0  0.6565885749470439  0.9971041926436685  0.7463553995666388  1.0000
  H   H3        1.0  0.2513071091849142  0.9959589946368939  0.2406736106282708  1.0000
  H   H4        1.0  0.6574583366157754  0.997020607867853  0.2592990429420965  1.0000
  H   H5        1.0  0.3646835886428407  0.7285512829983459  0.5567407811053329  1.0000
  H   H6        1.0  0.364576737901146  0.2704761606396601  0.5567126761639329  1.0000
  H   H7        1.0  0.5455755364966989  0.7266676976982467  0.9430145724637381  1.0000
  H   H8        1.0  0.5450941149171484  0.2684703337081871  0.9431096104013431  1.0000
  C   C1        1.0  0.5805263906937413  0.7684221036052181  0.5028504553765315  1.0000
  C   C2        1.0  0.4349972567133236  0.9994320954684213  0.5708513661688102  1.0000
  C   C3        1.0  0.5801480713709212  0.23184269843545746  0.5028070180652691  1.0000
  C   C4        1.0  0.4399154615685319  0.9997574322464899  0.42850998764041737  1.0000
  C   C5        1.0  0.3297953003715222  0.7655614219312169  0.9970622875633736  1.0000
  C   C6        1.0  0.474180347369483  0.9974782025732485  0.9291693091846865  1.0000
  C   C7        1.0  0.32948279470240044  0.2290032655129366  0.997084910060451  1.0000
  C   C8        1.0  0.46869433597588994  0.9970812652052812  0.07145560562202037  1.0000
  C   C9        1.0  0.46111669338419853  0.9970806457043084  0.8867352783460374  1.0000
  C   C10       1.0  0.6102796610310505  0.9970947894791212  0.8645924083393763  1.0000
  C   C11       1.0  0.5927957984687566  0.9969943032422749  0.8249803455675744  1.0000
  C   C12       1.0  0.4258482518938393  0.99674949520778  0.8041958500951549  1.0000
  C   C13       1.0  0.277909210064763  0.9966010000046167  0.8266259998997609  1.0000
  C   C14       1.0  0.29289575915716176  0.996837430831512  0.866109049660693  1.0000
  C   C15       1.0  0.39170758817764545  0.9966598211587865  0.763152608407921  1.0000
  C   C16       1.0  0.5157666690979569  0.9968311026653897  0.7368987822075608  1.0000
  C   C17       1.0  0.6301352107417203  0.998437356232046  0.6734878198254177  1.0000
  C   C18       1.0  0.48192266829607894  0.9970173124379399  0.6958517218494791  1.0000
  C   C19       1.0  0.3151801841584572  0.9962843505077715  0.674999086188478  1.0000
  C   C20       1.0  0.2981339368872752  0.9970885809848157  0.6353776285210628  1.0000
  C   C21       1.0  0.44755530301865315  0.9986904956559854  0.6132958405587983  1.0000
  C   C22       1.0  0.6155647771577861  0.9993630417509822  0.6340012684574317  1.0000
  C   C23       1.0  0.4565767883359371  0.9969392139814774  0.11354651295322779  1.0000
  C   C24       1.0  0.6068487799093347  0.9972953346372008  0.1397836358789064  1.0000
  C   C25       1.0  0.5907038746768621  0.9969854887100668  0.17892043723801976  1.0000
  C   C26       1.0  0.42439087630056344  0.9963024495746566  0.19505791561067545  1.0000
  C   C27       1.0  0.2754010089227209  0.9959501495471202  0.16857830362687304  1.0000
  C   C28       1.0  0.2889946673842658  0.9963143223613358  0.1294869400962995  1.0000
  C   C29       1.0  0.39186904422472685  0.996310763267168  0.2351442977351468  1.0000
  C   C30       1.0  0.5169191759192273  0.9968922104152259  0.2648099313308093  1.0000
  C   C31       1.0  0.63319248914582  0.9973327421542211  0.3313822828713028  1.0000
  C   C32       1.0  0.4842076325870366  0.9974042168918731  0.3048887901784454  1.0000
  C   C33       1.0  0.3178787926381119  0.9981423870137364  0.3210265635394335  1.0000
  C   C34       1.0  0.3018030080927687  0.9988970981431039  0.3601642955985013  1.0000
  C   C35       1.0  0.45204351583679875  0.9988533373719052  0.3864162092471232  1.0000
  C   C36       1.0  0.6196267744617217  0.997966924995545  0.3704757185262863  1.0000
  C   C37       1.0  0.5822768624269942  0.6309508257606568  0.5049114196394839  1.0000
  C   C38       1.0  0.4753065871092019  0.5659400877338642  0.5304581972304874  1.0000
  C   C39       1.0  0.6839036606777142  0.5651713262139139  0.48093285223995247  1.0000
  C   C40       1.0  0.37113253409812325  0.6287793837270927  0.5563573889739712  1.0000
  C   C41       1.0  0.27276069410302733  0.5640876072141908  0.5809567677518713  1.0000
  C   C42       1.0  0.5820631204094937  0.36924869969291774  0.5048814700040012  1.0000
  C   C43       1.0  0.6837766264691326  0.4354978708739381  0.48092653974597965  1.0000
  C   C44       1.0  0.4752001577801437  0.4337202137273692  0.5304464587097897  1.0000
  C   C45       1.0  0.37098548099283585  0.3702828345479077  0.5563333727681012  1.0000
  C   C46       1.0  0.2727071595439128  0.4344380919076016  0.5809609497745212  1.0000
  C   C47       1.0  0.32827566248167983  0.6281214996841413  0.9949518079693717  1.0000
  C   C48       1.0  0.43506497824596113  0.5635837464726663  0.969366704287125  1.0000
  C   C49       1.0  0.22696059607856972  0.5619235010800523  0.018990004746939296  1.0000
  C   C50       1.0  0.5391658742611583  0.6268628988102308  0.9434233820266511  1.0000
  C   C51       1.0  0.6370732327142932  0.5625153438366725  0.9187652084566337  1.0000
  C   C52       1.0  0.32804910877183596  0.3664451464788598  0.9949518216828394  1.0000
  C   C53       1.0  0.22684161264621844  0.4322601610958188  0.018984032303059496  1.0000
  C   C54       1.0  0.4349257314262402  0.43134089419637434  0.9693672106157079  1.0000
  C   C55       1.0  0.5388384662214989  0.3682624704374008  0.9434496700591877  1.0000
  C   C56       1.0  0.6370496531978915  0.4328456425726727  0.9187917764870122  1.0000
  O   O1        1.0  0.7324276210712951  0.8234883323874556  0.5048578764366453  1.0000
  O   O2        1.0  0.42883475205959354  0.8196347011984388  0.49955275733935167  1.0000
  O   O3        1.0  0.2807519689440809  0.9995769649701458  0.5523455563607056  1.0000
  O   O4        1.0  0.5814473574656915  0.9997612203790569  0.5550989947996924  1.0000
  O   O5        1.0  0.4284034443761513  0.1804704023053247  0.49947801616192306  1.0000
  O   O6        1.0  0.7320358035795139  0.17702136116377432  0.5048737194566612  1.0000
  O   O7        1.0  0.5870544024364008  0.0006037798700688999  0.4483720731271602  1.0000
  O   O8        1.0  0.2859634284761654  0.9996044789033292  0.44240080340222215  1.0000
  O   O9        1.0  0.17781780309693562  0.8202430822360827  0.9950642239221421  1.0000
  O   O10       1.0  0.4814553602643202  0.8170223495899054  0.00042333410192440016  1.0000
  O   O11       1.0  0.6285439481328723  0.9975392239012065  0.9476188625859333  1.0000
  O   O12       1.0  0.3278575132193637  0.9977411983136688  0.9449673893873862  1.0000
  O   O13       1.0  0.4811244270934978  0.177711105452758  0.00043320592676110155  1.0000
  O   O14       1.0  0.1774755371662664  0.17410435698475624  0.995115416786234  1.0000
  O   O15       1.0  0.32155102739491076  0.9968472552935026  0.051598903940885094  1.0000
  O   O16       1.0  0.6226870089459311  0.9973969838396287  0.05759507759913869  1.0000
  F   F1        1.0  0.13876586896927992  0.9969035436128166  0.8832219432611338  1.0000
  F   F2        1.0  0.11181974593004898  0.9963028478440281  0.8092700168016334  1.0000
  F   F3        1.0  0.7766685641250036  0.9974029752382662  0.8810641644666503  1.0000
  F   F4        1.0  0.7448704963578124  0.9971096826984225  0.8065431351341061  1.0000
  F   F5        1.0  0.162922038423055  0.9948845797188003  0.6933667935360076  1.0000
  F   F6        1.0  0.13187767254440527  0.9964539935239503  0.6188242776370669  1.0000
  F   F7        1.0  0.7960922799942763  0.999333098978113  0.6909252089176262  1.0000
  F   F8        1.0  0.7698245983802393  0.0011173197124349995  0.6169467522381564  1.0000
  F   F9        1.0  0.1340810389292599  0.996023299479511  0.10809536936145037  1.0000
  F   F10       1.0  0.10989481213170649  0.9953827498426834  0.18138717141063407  1.0000
  F   F11       1.0  0.7728928107820325  0.9978714634826533  0.12792800698245088  1.0000
  F   F12       1.0  0.7435637554929287  0.9971745361730129  0.2016748765278464  1.0000
  F   F13       1.0  0.1650257574553464  0.9982272769754985  0.29826262026875827  1.0000
  F   F14       1.0  0.1357536581235905  0.9999131666746451  0.37201819550979554  1.0000
  F   F15       1.0  0.7987430809612306  0.9965984645878265  0.3185851802008272  1.0000
  F   F16       1.0  0.774587641367006  0.9976116843742844  0.3918491011911413  1.0000
  F   F17       1.0  0.781002421911687  0.37898944003531915  0.4552897474192718  1.0000
  F   F18       1.0  0.781283857472758  0.6221091413599211  0.4553003755364742  1.0000
  F   F19       1.0  0.1730803746957577  0.62367096934463  0.6057414094921254  1.0000
  F   F20       1.0  0.1730730194504346  0.37448228234823955  0.6057610447666874  1.0000
  F   F21       1.0  0.1296382368207887  0.3752828983240307  0.04463268585047329  1.0000
  F   F22       1.0  0.12994832655994062  0.618438500517172  0.0446744479567442  1.0000
  F   F23       1.0  0.736589856498945  0.6223506066701461  0.8939012706859584  1.0000
  F   F24       1.0  0.7365880828459692  0.3733504311321667  0.8939659408102256  1.0000
