data_image0
_chemical_formula_structural       Zn4H32C56S4O40
_chemical_formula_sum              "Zn4 H32 C56 S4 O40"
_cell_length_a       8.166963325664284
_cell_length_b       13.124094776736568
_cell_length_c       35.17938973476395
_cell_angle_alpha    89.09839604832469
_cell_angle_beta     89.7505192427144
_cell_angle_gamma    90.43682827332297

_space_group_name_H-M_alt    "P 1"
_space_group_IT_number       1

loop_
  _space_group_symop_operation_xyz
  'x, y, z'

loop_
  _atom_site_type_symbol
  _atom_site_label
  _atom_site_symmetry_multiplicity
  _atom_site_fract_x
  _atom_site_fract_y
  _atom_site_fract_z
  _atom_site_occupancy
  Zn  Zn1       1.0  0.6686361008972381  0.9889689162289057  0.4993200099761594  1.0000
  Zn  Zn2       1.0  0.34939765998827  0.010868849021221597  0.5001856505995335  1.0000
  Zn  Zn3       1.0  0.23750795186871446  0.9840089245332633  0.0008607170003074011  1.0000
  Zn  Zn4       1.0  0.5589392390153167  0.007970817862961601  0.9997161290011434  1.0000
  H   H1        1.0  0.6815167487654821  0.010002484490655704  0.8777682275529699  1.0000
  H   H2        1.0  0.6799508178396677  0.0036011552025599003  0.8086216529132884  1.0000
  H   H3        1.0  0.1510226950973319  0.9842091240474246  0.811398892755939  1.0000
  H   H4        1.0  0.7699509745438464  0.9847204362864516  0.6891071185905275  1.0000
  H   H5        1.0  0.24138952033616326  0.0038439508862211018  0.6915581817955782  1.0000
  H   H6        1.0  0.24032227124973102  0.0112085667849513  0.6223637956520491  1.0000
  H   H7        1.0  0.2722133569761169  0.9929474605523579  0.7525083937637262  1.0000
  H   H8        1.0  0.6486519568143124  0.9921328374686523  0.7478802643969189  1.0000
  H   H9        1.0  0.6639337417845185  0.9965836270739455  0.12077338055131287  1.0000
  H   H10       1.0  0.6695031789354643  0.008103771177196996  0.1896728024805157  1.0000
  H   H11       1.0  0.13957402767932342  0.0113249507973379  0.19116695412498066  1.0000
  H   H12       1.0  0.7729646572490978  0.013952976972070997  0.3082350085718772  1.0000
  H   H13       1.0  0.24294896346068381  0.009464551189772403  0.3102348090071132  1.0000
  H   H14       1.0  0.2494844735382956  0.9999681731047404  0.3793028664302867  1.0000
  H   H15       1.0  0.2675401930616204  0.012541402083165596  0.24905701614623152  1.0000
  H   H16       1.0  0.6443244764324164  0.012596002199685999  0.25053640305593927  1.0000
  H   H17       1.0  0.14013622958214714  0.08198788067350189  0.9273247580212711  1.0000
  H   H18       1.0  0.7826702218126514  0.08462502631318358  0.5721840973993579  1.0000
  H   H19       1.0  0.12992621351531852  0.8985540628706445  0.07824506248616099  1.0000
  H   H20       1.0  0.7818090691218417  0.903867278575319  0.4229158988739314  1.0000
  H   H21       1.0  0.9317924386269639  0.3204610093927087  0.5258093820756642  1.0000
  H   H22       1.0  0.9082023436588003  0.5454475106414662  0.5252237684129497  1.0000
  H   H23       1.0  0.7969600911257616  0.7343348788748044  0.5155309741094669  1.0000
  H   H24       1.0  0.13189116565139614  0.6756470633533879  0.4840324420036382  1.0000
  H   H25       1.0  0.1559465014732169  0.4534533695378472  0.4846329800884774  1.0000
  H   H26       1.0  0.27075176221848096  0.2652199157673181  0.4939251033050239  1.0000
  H   H27       1.0  0.9631218195753846  0.3188272198703075  0.9734640517950054  1.0000
  H   H28       1.0  0.9912196066422255  0.5434483244626094  0.9747571011669435  1.0000
  H   H29       1.0  0.10578089180016553  0.7313261004844235  0.9849628519000149  1.0000
  H   H30       1.0  0.7705167739687866  0.6706579395841458  0.0157811139672717  1.0000
  H   H31       1.0  0.7423362416972807  0.4485474150441106  0.0145325299164583  1.0000
  H   H32       1.0  0.6228089845387501  0.2609093586374697  0.0053027702519941  1.0000
  C   C1        1.0  0.5465186123852419  0.8044738799286789  0.5058823122746503  1.0000
  C   C2        1.0  0.48495989110307397  0.012242242206703204  0.5733622159453944  1.0000
  C   C3        1.0  0.526675696837394  0.19548247062055418  0.49584506553560465  1.0000
  C   C4        1.0  0.500097319102764  0.9874650507304992  0.4261009154850655  1.0000
  C   C5        1.0  0.35796931446365227  0.8010246074430964  0.9948673401146165  1.0000
  C   C6        1.0  0.4364833449633139  0.010342721917915305  0.926801701559391  1.0000
  C   C7        1.0  0.3657160731854034  0.19074562860815547  0.0027873558577340006  1.0000
  C   C8        1.0  0.4136052423134019  0.9826069648374584  0.0739503363824596  1.0000
  C   C9        1.0  0.4203699458723946  0.0016411477329967012  0.8848747466825984  1.0000
  C   C10       1.0  0.5649771096968125  0.004394803639456802  0.8630758020949756  1.0000
  C   C11       1.0  0.5631999605827931  0.0007347890828129002  0.8237100571027653  1.0000
  C   C12       1.0  0.4137892261453117  0.994531534581526  0.8040463811158247  1.0000
  C   C13       1.0  0.2685519266439087  0.990177203847466  0.8257413742914608  1.0000
  C   C14       1.0  0.26953744348772096  0.9931925122025829  0.865178189675639  1.0000
  C   C15       1.0  0.398203443144702  0.99340038310968  0.7629047688085819  1.0000
  C   C16       1.0  0.5227350107886864  0.9931932546058843  0.7374487092495343  1.0000
  C   C17       1.0  0.6526534203301468  0.9908703835955773  0.6746633629551438  1.0000
  C   C18       1.0  0.5073830219496572  0.9948229687006245  0.6962862064501181  1.0000
  C   C19       1.0  0.3581800380561902  0.0012527834215773994  0.6765265853554467  1.0000
  C   C20       1.0  0.356683004457409  0.005494318085737901  0.6371313696432068  1.0000
  C   C21       1.0  0.5013237584178752  0.003194351809710802  0.6153852705659375  1.0000
  C   C22       1.0  0.6518315519854596  0.9945252317560785  0.6351812762283301  1.0000
  C   C23       1.0  0.40172640732921394  0.9952678227798087  0.11580962245736973  1.0000
  C   C24       1.0  0.5487455402532717  0.9997015472808642  0.1363266777452665  1.0000
  C   C25       1.0  0.5509763584177706  0.0062065340487293995  0.175621042366636  1.0000
  C   C26       1.0  0.40347892103459065  0.009170905014087802  0.1964394351450736  1.0000
  C   C27       1.0  0.2557867879453752  0.0074360987844599  0.175966350840838  1.0000
  C   C28       1.0  0.25293773664373026  0.0005426350702677  0.1366468038312476  1.0000
  C   C29       1.0  0.392263041321769  0.0122305791160073  0.2376369598319172  1.0000
  C   C30       1.0  0.5197042353433403  0.012717008100473496  0.2620198658229711  1.0000
  C   C31       1.0  0.6569597889076989  0.010366358320091302  0.3236147398755235  1.0000
  C   C32       1.0  0.5089479285351783  0.011088571035720897  0.3032549944616605  1.0000
  C   C33       1.0  0.3616718031558293  0.0083412382974686  0.3242247507320855  1.0000
  C   C34       1.0  0.364483049991108  0.002952468449471703  0.36360563233328946  1.0000
  C   C35       1.0  0.5118083131846093  0.9993599013036559  0.3840626065944975  1.0000
  C   C36       1.0  0.6603418716561081  0.004444224928739998  0.3630286025997194  1.0000
  C   C37       1.0  0.642587894481146  0.6248114096135352  0.5091857851361894  1.0000
  C   C38       1.0  0.35388548917912743  0.657081849871929  0.4960160639646602  1.0000
  C   C39       1.0  0.32618648598061384  0.5530039889024961  0.4929987398246142  1.0000
  C   C40       1.0  0.4527995316953337  0.4812523280069954  0.49930885083040977  1.0000
  C   C41       1.0  0.42571494458950093  0.3743923497464151  0.49762599880561703  1.0000
  C   C42       1.0  0.7139140863718297  0.34221742753217654  0.5106655751348796  1.0000
  C   C43       1.0  0.7410204941130728  0.44594262470466356  0.5147482908755022  1.0000
  C   C44       1.0  0.6150782055733403  0.5179528927281324  0.5078031475269498  1.0000
  C   C45       1.0  0.5142986298194001  0.6950563853805106  0.5039891179239289  1.0000
  C   C46       1.0  0.5555002711739903  0.3046656579611806  0.5012449077211301  1.0000
  C   C47       1.0  0.25842917511941005  0.62156318335888  0.9909284286475497  1.0000
  C   C48       1.0  0.5478130468962306  0.6528999866624614  0.004073928099160202  1.0000
  C   C49       1.0  0.5736284525528886  0.5485462310565835  0.006681584746679901  1.0000
  C   C50       1.0  0.44550866293889874  0.477212528167385  0.00025129839453090025  1.0000
  C   C51       1.0  0.47037949532528245  0.37021221569217033  0.0016243936626665  1.0000
  C   C52       1.0  0.18160880095473436  0.3390538875659814  0.9885099295957787  1.0000
  C   C53       1.0  0.1566214487517215  0.4431825966951948  0.9847875502753921  1.0000
  C   C54       1.0  0.28394272231092543  0.5146410528382646  0.9919195677880452  1.0000
  C   C55       1.0  0.38798973904378187  0.6914751415426253  0.9963949500176028  1.0000
  C   C56       1.0  0.33920984000430116  0.3005764669930144  0.9977437830761317  1.0000
  S   S1        1.0  0.06821556930147211  0.9801158137628929  0.8860395241834311  1.0000
  S   S2        1.0  0.8526045598453322  0.9818772054528466  0.6143614516611962  1.0000
  S   S3        1.0  0.050426420290868613  0.004449599747538  0.11677571192953451  1.0000
  S   S4        1.0  0.8632748563422582  0.008604063325222499  0.38267339871137546  1.0000
  O   O1        1.0  0.6977343707323344  0.8377899410526124  0.5087749067675064  1.0000
  O   O2        1.0  0.4281937488289814  0.8666501322259136  0.5044252578719011  1.0000
  O   O3        1.0  0.3438739184980548  0.004858668454915  0.558348609957342  1.0000
  O   O4        1.0  0.6169074996117205  0.029311213514994  0.5537771413092685  1.0000
  O   O5        1.0  0.3755084724964703  0.1630283233533305  0.4992228363010369  1.0000
  O   O6        1.0  0.6452855763885169  0.13730312686661245  0.487723926909382  1.0000
  O   O7        1.0  0.626887470267029  0.9538395775128093  0.44401290319852643  1.0000
  O   O8        1.0  0.36582801510004265  0.009204583938682702  0.4425841419302614  1.0000
  O   O9        1.0  0.20699187427872087  0.8343367017890628  0.9924096793116206  1.0000
  O   O10       1.0  0.4774169414506204  0.8632223262995209  0.9961135608072879  1.0000
  O   O11       1.0  0.5774311552731247  0.0036400350091483026  0.9421072926032181  1.0000
  O   O12       1.0  0.3049274413780836  0.026371715319555705  0.9461803852331129  1.0000
  O   O13       1.0  0.5162719313597536  0.15907954891455486  0.999986444909652  1.0000
  O   O14       1.0  0.244601108247636  0.13175499453588907  0.0101219358553166  1.0000
  O   O15       1.0  0.2868753749935705  0.9478828975286218  0.05649182923778541  1.0000
  O   O16       1.0  0.5482346082924181  0.0050864345062323  0.05714492813079631  1.0000
  O   O17       1.0  0.047555809725892614  0.0835493737215813  0.9085219624339018  1.0000
  O   O18       1.0  0.9503578672039339  0.9855077738430396  0.8557627738601781  1.0000
  O   O19       1.0  0.06594331613801069  0.8937735648244782  0.9118054966244955  1.0000
  O   O20       1.0  0.8754234114285283  0.08583687880864227  0.5909407057192553  1.0000
  O   O21       1.0  0.9707374859335829  0.9867406064426093  0.644559557548142  1.0000
  O   O22       1.0  0.8526022409999002  0.8961051925208493  0.589340357441678  1.0000
  O   O23       1.0  0.035637380702567605  0.8965473870513206  0.0971160614955195  1.0000
  O   O24       1.0  0.9342742168303034  0.001832925252252  0.147697645834505  1.0000
  O   O25       1.0  0.0432181804510989  0.08526403932017247  0.0886850475548968  1.0000
  O   O26       1.0  0.8753421603300212  0.9011313171862342  0.40389372572714416  1.0000
  O   O27       1.0  0.9788864640054696  0.0051074350927252  0.3517057853149197  1.0000
  O   O28       1.0  0.8732178420394094  0.08995853029039576  0.40958135526722117  1.0000
  O   O29       1.0  0.8397259920099033  0.27708060913735005  0.5181118834081743  1.0000
  O   O30       1.0  0.8953827407315061  0.47071177534710534  0.5266365317985304  1.0000
  O   O31       1.0  0.7989407780369362  0.6574642687735873  0.5156986039067135  1.0000
  O   O32       1.0  0.22488040506532056  0.720540855545366  0.48994248674886615  1.0000
  O   O33       1.0  0.1694073344907494  0.5280883682286017  0.48291819506861333  1.0000
  O   O34       1.0  0.26860197802308505  0.3417647833574974  0.49184365526956947  1.0000
  O   O35       1.0  0.05422647460892451  0.2746945420923055  0.9809930416256591  1.0000
  O   O36       1.0  0.002564768594467602  0.4689013251908918  0.9731022312184477  1.0000
  O   O37       1.0  0.10264796981967812  0.6545404424298765  0.984530848364585  1.0000
  O   O38       1.0  0.6781487316368883  0.715974728165115  0.0102160890278213  1.0000
  O   O39       1.0  0.7302641813973523  0.5229604826092711  0.0164351931616338  1.0000
  O   O40       1.0  0.6268132540994956  0.3373004194795896  0.0073609081303303  1.0000
