data_image0
_chemical_formula_structural       Cd2H28C28S4N4O10
_chemical_formula_sum              "Cd2 H28 C28 S4 N4 O10"
_cell_length_a       6.6004439588680235
_cell_length_b       11.198482679312997
_cell_length_c       11.960406556744466
_cell_angle_alpha    85.33858706321969
_cell_angle_beta     73.96063334877299
_cell_angle_gamma    72.8177208301442

_space_group_name_H-M_alt    "P 1"
_space_group_IT_number       1

loop_
  _space_group_symop_operation_xyz
  'x, y, z'

loop_
  _atom_site_type_symbol
  _atom_site_label
  _atom_site_symmetry_multiplicity
  _atom_site_fract_x
  _atom_site_fract_y
  _atom_site_fract_z
  _atom_site_occupancy
  Cd  Cd1       1.0  0.9343237510068436  0.7500035222885301  0.7499957001103325  1.0000
  Cd  Cd2       1.0  0.06567780109753578  0.24999588315797178  0.250006339630275  1.0000
  H   H1        1.0  0.5078755637694955  0.7744964921743572  0.686080963157444  1.0000
  H   H2        1.0  0.46823576916519744  0.7257442280615506  0.8140484023948602  1.0000
  H   H3        1.0  0.4921127640757561  0.2255103711634092  0.31392341591232037  1.0000
  H   H4        1.0  0.531766414693955  0.2742570486113677  0.18595341317973174  1.0000
  H   H5        1.0  0.012977933252720696  0.69709624639043  0.4141704456955395  1.0000
  H   H6        1.0  0.6245350401567152  0.8029774940228407  0.0852240529116983  1.0000
  H   H7        1.0  0.9870125494231985  0.3029126167444288  0.5858200905837947  1.0000
  H   H8        1.0  0.3754564438302594  0.1970199891568569  0.9147838317173083  1.0000
  H   H9        1.0  0.18202864950460204  0.471633767909708  0.3539054342975803  1.0000
  H   H10       1.0  0.5074874061472627  0.0283397081766807  0.14564846913800267  1.0000
  H   H11       1.0  0.8179507040071171  0.5283721334782783  0.6461020490908637  1.0000
  H   H12       1.0  0.49249824786915053  0.9716568327054701  0.8543603675138555  1.0000
  H   H13       1.0  0.6105275158100838  0.45212411643458245  0.2863717185974436  1.0000
  H   H14       1.0  0.8487053940989568  0.04785597086448232  0.21414002327261267  1.0000
  H   H15       1.0  0.3894906867571206  0.5478829256830623  0.7136130498270743  1.0000
  H   H16       1.0  0.15128794586787114  0.9521472209901204  0.7858571548771422  1.0000
  H   H17       1.0  0.41925514288546845  0.6729572088515781  0.3408774099531086  1.0000
  H   H18       1.0  0.9331517690261042  0.8271994753575809  0.15945573265795315  1.0000
  H   H19       1.0  0.5807597357719629  0.32704705522694155  0.6591047100342635  1.0000
  H   H20       1.0  0.06684821417049851  0.17279991234650538  0.8405482193956713  1.0000
  H   H21       1.0  0.26923389678048437  0.8670296730619854  0.35681360790069755  1.0000
  H   H22       1.0  0.9930542882226308  0.6331036130212268  0.1430445734569759  1.0000
  H   H23       1.0  0.730734900395092  0.13297528029902136  0.6431955474590367  1.0000
  H   H24       1.0  0.006966051997686357  0.3668929065463331  0.8569656728937927  1.0000
  H   H25       1.0  0.23849347853450087  0.9947289163539638  0.44280641805718085  1.0000
  H   H26       1.0  0.17633393459082214  0.5052652766747697  0.05736368980426928  1.0000
  H   H27       1.0  0.7615023615872475  0.005253711385194001  0.5571909498568033  1.0000
  H   H28       1.0  0.8236764561745461  0.4947415975677459  0.942639001836312  1.0000
  C   C1        1.0  0.9215222185662881  0.6459407045406634  0.3834084477766808  1.0000
  C   C2        1.0  0.4510527475925274  0.8541009507497248  0.11614640070098393  1.0000
  C   C3        1.0  0.07846575804884279  0.35406999433578085  0.6165856889626582  1.0000
  C   C4        1.0  0.5489327923512093  0.14589267341944628  0.8838743585198898  1.0000
  C   C5        1.0  0.013402130733744917  0.5209906744493084  0.35223938752034906  1.0000
  C   C6        1.0  0.38663074167989453  0.9789953628290748  0.147472937276099  1.0000
  C   C7        1.0  0.9865953182547855  0.47901998838817406  0.6477583263127117  1.0000
  C   C8        1.0  0.6133725542892847  0.0209974585179609  0.8525334679140428  1.0000
  C   C9        1.0  0.6938759736577894  0.5093831125623326  0.31572946565277243  1.0000
  C   C10       1.0  0.01885643164218468  0.9907121444726311  0.18450291565978458  1.0000
  C   C11       1.0  0.30613879092696555  0.4906182348032075  0.6842645769036225  1.0000
  C   C12       1.0  0.9811457751329158  0.009289076786160401  0.8155047530705062  1.0000
  C   C13       1.0  0.5878977179502486  0.6336907402265624  0.3462706007734226  1.0000
  C   C14       1.0  0.06787745973484507  0.866449933368031  0.15390341346621028  1.0000
  C   C15       1.0  0.4121266036172173  0.36631355905973345  0.6537075708217726  1.0000
  C   C16       1.0  0.9321145039658346  0.13355596746583834  0.846103822389928  1.0000
  C   C17       1.0  0.7034108471758813  0.7060478759345301  0.37936691477494117  1.0000
  C   C18       1.0  0.2890154245147513  0.7940015980469967  0.12049290450443804  1.0000
  C   C19       1.0  0.2965758430137626  0.29395913590319367  0.6206218171407443  1.0000
  C   C20       1.0  0.7109912281012711  0.20599392217614104  0.8795245107738552  1.0000
  C   C21       1.0  0.3090908428832508  0.8924687116602283  0.43310705282246426  1.0000
  C   C22       1.0  0.13486945829286173  0.6075294860611108  0.06682148803980678  1.0000
  C   C23       1.0  0.6909108088829045  0.1075242740193829  0.5668820328833988  1.0000
  C   C24       1.0  0.8651242132618435  0.392469917752642  0.9331809154497676  1.0000
  C   C25       1.0  0.1961036316072723  0.8332007806471109  0.5427353913468024  1.0000
  C   C26       1.0  0.07212372804944779  0.6665019713024378  0.9571592034990246  1.0000
  C   C27       1.0  0.8038895189916319  0.1667996765694966  0.457254477574672  1.0000
  C   C28       1.0  0.927868395555791  0.3335067354161508  0.04284781609948848  1.0000
  S   S1        1.0  0.5992543384836682  0.8652869602344139  0.41057010700562546  1.0000
  S   S2        1.0  0.37529528684937924  0.634742497120932  0.08917237086490098  1.0000
  S   S3        1.0  0.40073185039240405  0.13472105750835078  0.5894111073325589  1.0000
  S   S4        1.0  0.6247145829601879  0.3652654305244382  0.9108177862075805  1.0000
  N   N1        1.0  0.9037345295725245  0.4530200008602634  0.31740930480703605  1.0000
  N   N2        1.0  0.1740384080427972  0.047006452800658786  0.18262530541676367  1.0000
  N   N3        1.0  0.09627190880199521  0.5469822162003978  0.6825917987275147  1.0000
  N   N4        1.0  0.8259551494392314  0.9529900343001144  0.8173890206418264  1.0000
  O   O1        1.0  0.288116041796613  0.7972683951322566  0.6244015320012863  1.0000
  O   O2        1.0  0.20978822176772374  0.702361245413442  0.8753708723218735  1.0000
  O   O3        1.0  0.7118792163504821  0.20274035498747622  0.3756008268061066  1.0000
  O   O4        1.0  0.7902039838146848  0.2976317129746917  0.1246213256110664  1.0000
  O   O5        1.0  0.004299949150571159  0.8268745619084752  0.5475611305088677  1.0000
  O   O6        1.0  0.8788138947424571  0.6727315279228634  0.9523593044975768  1.0000
  O   O7        1.0  0.995704917042467  0.17312764532606906  0.45244104917359346  1.0000
  O   O8        1.0  0.12118641676831741  0.3272640796566719  0.04764903673076758  1.0000
  O   O9        1.0  0.5807553248200604  0.7503413791815419  0.7501369609456104  1.0000
  O   O10       1.0  0.419243544950433  0.2496570957033342  0.24986471468713486  1.0000
