data_image0
_chemical_formula_structural       Zn2H22C36I2N6O8
_chemical_formula_sum              "Zn2 H22 C36 I2 N6 O8"
_cell_length_a       14.410666033141604
_cell_length_b       15.989906901453276
_cell_length_c       17.06382824943953
_cell_angle_alpha    86.3082038935222
_cell_angle_beta     87.80383935894841
_cell_angle_gamma    87.63552168869752

_space_group_name_H-M_alt    "P 1"
_space_group_IT_number       1

loop_
  _space_group_symop_operation_xyz
  'x, y, z'

loop_
  _atom_site_type_symbol
  _atom_site_label
  _atom_site_symmetry_multiplicity
  _atom_site_fract_x
  _atom_site_fract_y
  _atom_site_fract_z
  _atom_site_occupancy
  Zn  Zn1       1.0  0.49489993427969375  0.5889118580742193  0.504949839957824  1.0000
  Zn  Zn2       1.0  0.5050346879128824  0.41102158666940625  0.495054922250354  1.0000
  H   H1        1.0  0.3795867401706943  0.5789928073232743  0.7478166274703498  1.0000
  H   H2        1.0  0.3989855740086553  0.7143011484264079  0.6069790729589641  1.0000
  H   H3        1.0  0.3756563685037904  0.6969508600732369  0.21943914708605666  1.0000
  H   H4        1.0  0.3788087579965805  0.6376048521585885  0.3116580519325112  1.0000
  H   H5        1.0  0.46819460180969946  0.7061142354388609  0.2845274892918965  1.0000
  H   H6        1.0  0.6243838300570487  0.3031574173372604  0.7805986261336672  1.0000
  H   H7        1.0  0.5318850059308247  0.2939720664039527  0.7154968341646466  1.0000
  H   H8        1.0  0.6212472148235549  0.36249212256226565  0.6883789438732323  1.0000
  H   H9        1.0  0.6581975847014904  0.9391394389463984  0.42953169123189383  1.0000
  H   H10       1.0  0.6674075964916498  0.8454721016171903  0.3774932729698435  1.0000
  H   H11       1.0  0.5808549204434711  0.9255397953049282  0.354744159375919  1.0000
  H   H12       1.0  0.620343373798768  0.4210215545249767  0.2521705480816649  1.0000
  H   H13       1.0  0.3418250928874684  0.06077446973144161  0.57048443032069  1.0000
  H   H14       1.0  0.41913787360682864  0.0744054951301507  0.6452753155920378  1.0000
  H   H15       1.0  0.33259229572349364  0.15445125748407662  0.6224980660694897  1.0000
  H   H16       1.0  0.42974337299926196  0.6371975087842402  0.1059213125210832  1.0000
  H   H17       1.0  0.5703714668958711  0.3629640247155024  0.8940885925506024  1.0000
  H   H18       1.0  0.591971792953231  0.7262927443739144  0.42141760176745185  1.0000
  H   H19       1.0  0.4079679160804305  0.2736256843398834  0.5785416537528221  1.0000
  H   H20       1.0  0.6007599687634196  0.12813495944838857  0.3832768787324738  1.0000
  H   H21       1.0  0.39932581573560105  0.8717895083564926  0.616785597523176  1.0000
  H   H22       1.0  0.6010244550865949  0.2856284433206113  0.3930451337394913  1.0000
  C   C1        1.0  0.5309219633431114  0.5204703286794442  0.3491450107684245  1.0000
  C   C2        1.0  0.5533292737587416  0.8491958075812179  0.4612357157127676  1.0000
  C   C3        1.0  0.5042739409336293  0.1106031695995995  0.482126900658379  1.0000
  C   C4        1.0  0.4957771344558425  0.8893131933976548  0.5179196526092014  1.0000
  C   C5        1.0  0.5587813656527346  0.15917758287388037  0.42810897924769625  1.0000
  C   C6        1.0  0.4412517490685487  0.8407419422405981  0.5719271462655371  1.0000
  C   C7        1.0  0.5590823199738537  0.2453332435792035  0.43291075991665207  1.0000
  C   C8        1.0  0.4409418067042878  0.7545913175039021  0.5671135007885795  1.0000
  C   C9        1.0  0.6791567368581821  0.49485653135950264  0.5213489010365749  1.0000
  C   C10       1.0  0.32077174231324085  0.5050543645377059  0.47863150619315326  1.0000
  C   C11       1.0  0.7794411781065521  0.49587987102508896  0.5195488374057646  1.0000
  C   C12       1.0  0.46898977208346804  0.47951393971683853  0.6508536327515841  1.0000
  C   C13       1.0  0.2205042575269829  0.5041012676080996  0.4804054511468223  1.0000
  C   C14       1.0  0.8644904358698328  0.4972647929214133  0.5127518822853645  1.0000
  C   C15       1.0  0.1354552105877431  0.5027740651920142  0.4871732108766551  1.0000
  C   C16       1.0  0.9573093568790015  0.4990248441501279  0.5043361830356689  1.0000
  C   C17       1.0  0.04263899396231349  0.5010453910103295  0.4955612244967469  1.0000
  C   C18       1.0  0.5286099594237897  0.5292270115318017  0.26128667654937493  1.0000
  C   C19       1.0  0.4713688220545791  0.4708123782002716  0.7387110815034887  1.0000
  C   C20       1.0  0.578193848800929  0.4682248420449469  0.2193749845601474  1.0000
  C   C21       1.0  0.42177992259184544  0.5318202003551633  0.7806184235931042  1.0000
  C   C22       1.0  0.5739344709152548  0.46648665749303586  0.1381941428156352  1.0000
  C   C23       1.0  0.47152928486240603  0.5903724036412044  0.1398051087623458  1.0000
  C   C24       1.0  0.4260783035921066  0.5336223172179403  0.8617936538978911  1.0000
  C   C25       1.0  0.5167967854249085  0.5271102900640231  0.0974860211151736  1.0000
  C   C26       1.0  0.48326499495553327  0.47303814671806793  0.9024997789158108  1.0000
  C   C27       1.0  0.4212294004693931  0.6621250387742565  0.2611895106321001  1.0000
  C   C28       1.0  0.5788270955019358  0.3379663028828902  0.7388343272106896  1.0000
  C   C29       1.0  0.6186254802565402  0.8919485414830035  0.4025872489030959  1.0000
  C   C30       1.0  0.3813815365437279  0.10797604620264424  0.5974255819641386  1.0000
  C   C31       1.0  0.5285509310933422  0.4097609538144552  0.8601929855279167  1.0000
  C   C32       1.0  0.4751782291889982  0.5934054008657627  0.22114696554574206  1.0000
  C   C33       1.0  0.5248712847769711  0.40668220502515606  0.7788537674037173  1.0000
  C   C34       1.0  0.4507064422182481  0.23811435679890994  0.537075151332445  1.0000
  C   C35       1.0  0.549270759551689  0.7618303642876257  0.46289539051636547  1.0000
  C   C36       1.0  0.4466931858918032  0.15073628235671066  0.5387863715196559  1.0000
  I   I1        1.0  0.3393467097545723  0.6241543242664919  0.9159722826520565  1.0000
  I   I2        1.0  0.6606171834007738  0.3759151933551764  0.0840116470112662  1.0000
  N   N1        1.0  0.5005170193344739  0.5344249515324649  0.016218681531114505  1.0000
  N   N2        1.0  0.4995457932836374  0.46574794185138296  0.9837668315007521  1.0000
  N   N3        1.0  0.5055303222566607  0.2838610572989921  0.487102736697274  1.0000
  N   N4        1.0  0.49444385988946493  0.7160861696461751  0.5128741568235711  1.0000
  N   N5        1.0  0.510369708672826  0.0237689363496756  0.4702133170862481  1.0000
  N   N6        1.0  0.4897034782702362  0.9761455163697549  0.529841760358039  1.0000
  O   O1        1.0  0.5254890539849272  0.5870003994720604  0.3864499288007153  1.0000
  O   O2        1.0  0.47462628210256247  0.4129648334359429  0.6135762269698335  1.0000
  O   O3        1.0  0.5362526366352681  0.44569845639640704  0.38003440684163087  1.0000
  O   O4        1.0  0.4634436871096454  0.5542716196734004  0.619939472218789  1.0000
  O   O5        1.0  0.6359589399707916  0.5657178529060048  0.5240333588380182  1.0000
  O   O6        1.0  0.3639306982018908  0.43416281356743275  0.47613764593124597  1.0000
  O   O7        1.0  0.644171416416782  0.42322632795408327  0.5189738452886915  1.0000
  O   O8        1.0  0.35582324662236436  0.5766708348680964  0.4808597004622044  1.0000
