data_image0
_chemical_formula_structural       CuP2H10C10IO2
_chemical_formula_sum              "Cu1 P2 H10 C10 I1 O2"
_cell_length_a       4.100765505902522
_cell_length_b       7.24583699928963
_cell_length_c       11.207197930566561
_cell_angle_alpha    108.86855710841489
_cell_angle_beta     92.25918457038868
_cell_angle_gamma    89.95383826307533

_space_group_name_H-M_alt    "P 1"
_space_group_IT_number       1

loop_
  _space_group_symop_operation_xyz
  'x, y, z'

loop_
  _atom_site_type_symbol
  _atom_site_label
  _atom_site_symmetry_multiplicity
  _atom_site_fract_x
  _atom_site_fract_y
  _atom_site_fract_z
  _atom_site_occupancy
  Cu  Cu1       1.0  0.5003611268308745  0.3991775325984364  1.760419937819358e-05  1.0000
  P   P1        1.0  0.5464776273649576  0.1448572995641157  0.829847421090136  1.0000
  P   P2        1.0  0.45370491579726036  0.3153370866837759  0.1702525969786137  1.0000
  H   H1        1.0  0.9133183385266862  0.9683469913883727  0.5127530106157678  1.0000
  H   H2        1.0  0.08664770960454152  0.4561057448896051  0.4873126999009116  1.0000
  H   H3        1.0  0.6938827177245203  0.6581867066918221  0.509371735220995  1.0000
  H   H4        1.0  0.305838515086883  0.14893478561114648  0.4905281270106912  1.0000
  H   H5        1.0  0.4108680604616525  0.6073516842724231  0.6844041745721938  1.0000
  H   H6        1.0  0.588765577962036  0.9228578677595319  0.315416604798763  1.0000
  H   H7        1.0  0.30175704847906104  0.876057036396446  0.8776187200095863  1.0000
  H   H8        1.0  0.6982716130995641  0.9985130067342423  0.12233754252298473  1.0000
  H   H9        1.0  0.8853483412666989  0.40739875854411867  0.7637080904934379  1.0000
  H   H10       1.0  0.11452363365079782  0.6441957344506974  0.23639064697906778  1.0000
  C   C1        1.0  0.7524907727947223  0.13574619637355306  0.6943586862960132  1.0000
  C   C2        1.0  0.2476575892920749  0.4418730742883595  0.30577119570293115  1.0000
  C   C3        1.0  0.7824563586522189  0.9623494880035608  0.5943808448915675  1.0000
  C   C4        1.0  0.21771300183790032  0.3684021592927848  0.4057055067914632  1.0000
  C   C5        1.0  0.6596952340723163  0.7827072846989153  0.593631213175847  1.0000
  C   C6        1.0  0.3402739607378392  0.18931821145649505  0.40633952256404626  1.0000
  C   C7        1.0  0.49602368887141773  0.754203218733181  0.6934920454872966  1.0000
  C   C8        1.0  0.5038616285132348  0.060780957447803985  0.3064373444695789  1.0000
  C   C9        1.0  0.43482795438175964  0.9055969683964945  0.8030742329893954  1.0000
  C   C10       1.0  0.5652405727280936  0.10267995769559946  0.19692798882294937  1.0000
  I   I1        1.0  7.738105491480592e-05  0.632220240565367  0.9998360076147464  1.0000
  O   O1        1.0  0.886180902174594  0.3011191315502728  0.6819947653170075  1.0000
  O   O2        1.0  0.1137236272018853  0.6196456818908157  0.3180948007808624  1.0000
