data_image0
_chemical_formula_structural       Cd2H42C46N6O22
_chemical_formula_sum              "Cd2 H42 C46 N6 O22"
_cell_length_a       10.465307040373977
_cell_length_b       11.428620692799754
_cell_length_c       12.491
_cell_angle_alpha    109.21929718627084
_cell_angle_beta     112.4879376238344
_cell_angle_gamma    102.37271775399003

_space_group_name_H-M_alt    "P 1"
_space_group_IT_number       1

loop_
  _space_group_symop_operation_xyz
  'x, y, z'

loop_
  _atom_site_type_symbol
  _atom_site_label
  _atom_site_symmetry_multiplicity
  _atom_site_fract_x
  _atom_site_fract_y
  _atom_site_fract_z
  _atom_site_occupancy
  Cd  Cd1       1.0  0.6392622193961017  0.9474257129984238  0.2366652453723787  1.0000
  Cd  Cd2       1.0  0.3607251267014178  0.0525723721411708  0.7633189948166572  1.0000
  H   H1        1.0  0.6255609604208986  0.3432358846638124  0.28336421722335103  1.0000
  H   H2        1.0  0.3744420194259135  0.6567672319025633  0.7166345541192243  1.0000
  H   H3        1.0  0.6658334502224648  0.4423046779663622  0.44511385150067173  1.0000
  H   H4        1.0  0.33416463823317605  0.5577014574560835  0.5548794581291715  1.0000
  H   H5        1.0  0.23391250051185614  0.7234386681672689  0.11509071121647442  1.0000
  H   H6        1.0  0.7660982310641415  0.27655136668948194  0.8849026013209311  1.0000
  H   H7        1.0  0.9727632607182173  0.21729222835739392  0.21471779649708359  1.0000
  H   H8        1.0  0.027233234574247048  0.7827078693529118  0.7853004037055413  1.0000
  H   H9        1.0  0.1863201653404332  0.9368083962067999  0.2462706303347629  1.0000
  H   H10       1.0  0.8136984482556785  0.0631997517863567  0.753743472737753  1.0000
  H   H11       1.0  0.922007976941238  0.5896892563540135  0.6089198952486043  1.0000
  H   H12       1.0  0.0779856580132261  0.4103209042098541  0.3910780029917333  1.0000
  H   H13       1.0  0.9181105425971765  0.6861789402890182  0.5209754188676142  1.0000
  H   H14       1.0  0.08189343412595208  0.3138312202748494  0.4790217906122932  1.0000
  H   H15       1.0  0.8207290187545482  0.2738263459453094  0.3286210977760078  1.0000
  H   H16       1.0  0.1792658460741947  0.7261747580503481  0.6713760680217432  1.0000
  H   H17       1.0  0.8612566430571107  0.3429329927716438  0.4944248404892447  1.0000
  H   H18       1.0  0.1387468957760092  0.6570761615068648  0.5055807319249794  1.0000
  H   H19       1.0  0.3936654462470486  0.2843611473377408  0.21566023480718138  1.0000
  H   H20       1.0  0.6063268750373965  0.7156459943700639  0.7843459401313878  1.0000
  H   H21       1.0  0.12217949015882822  0.23928459481373923  0.0023574507667873702  1.0000
  H   H22       1.0  0.8778043528186502  0.7607054400430044  0.9976456583118818  1.0000
  H   H23       1.0  0.6607321807890685  0.6737835172732716  0.5104187192867471  1.0000
  H   H24       1.0  0.3392569541690378  0.3262115490102602  0.4895699883785268  1.0000
  H   H25       1.0  0.09002983023735572  0.31476404679990116  0.8325930258168626  1.0000
  H   H26       1.0  0.9099771187254433  0.6852149189179286  0.16740935046303201  1.0000
  H   H27       1.0  0.6034997442008674  0.44624327884992  0.1307878703066762  1.0000
  H   H28       1.0  0.39650426982282033  0.5537598377164556  0.8692040272603234  1.0000
  H   H29       1.0  0.5799076600615153  0.6423783575964848  0.08581542383426921  1.0000
  H   H30       1.0  0.4200920588578471  0.35762677154060196  0.9141829086721387  1.0000
  H   H31       1.0  0.6301829985585384  0.8568137418280699  0.44837634700539997  1.0000
  H   H32       1.0  0.3698034717589779  0.1431823307408138  0.5516158127117096  1.0000
  H   H33       1.0  0.5136680839848465  0.8493028279305577  0.949260153828021  1.0000
  H   H34       1.0  0.48631703536209164  0.150697269779748  0.05073118412475706  1.0000
  H   H35       1.0  0.3862014458542831  0.7750440000812802  0.9698291428429967  1.0000
  H   H36       1.0  0.6137891984712455  0.22494502849011164  0.030159831186281794  1.0000
  H   H37       1.0  0.888076266591959  0.0682281597105074  0.535578538035594  1.0000
  H   H38       1.0  0.111930616964365  0.9317910574215702  0.46439911397235517  1.0000
  H   H39       1.0  0.76801568272694  0.12819169779182  0.5307538047603515  1.0000
  H   H40       1.0  0.2319890486799068  0.8718154439159777  0.46924914193645856  1.0000
  H   H41       1.0  0.1196028886737324  0.5066526013439585  0.6627015874232994  1.0000
  H   H42       1.0  0.8803998116799291  0.4933474963663471  0.3372969856891073  1.0000
  C   C1        1.0  0.6855838404095281  0.4449039130410243  0.3655050754474729  1.0000
  C   C2        1.0  0.3144182636572737  0.5550971909546405  0.6344944102354333  1.0000
  C   C3        1.0  0.1607453244596968  0.5243551733274927  0.9626901311034428  1.0000
  C   C4        1.0  0.8392705780006295  0.47563486152925805  0.03730964195327855  1.0000
  C   C5        1.0  0.0674923124582278  0.0694407335645408  0.2343229050083053  1.0000
  C   C6        1.0  0.9325278105053131  0.9305613767164829  0.765700270768775  1.0000
  C   C7        1.0  0.19462008298412306  0.4372521191936656  0.15427073311023068  1.0000
  C   C8        1.0  0.8053703656440021  0.5627459659459291  0.8457313134200175  1.0000
  C   C9        1.0  0.20795872665148352  0.6170702808919728  0.08901427147868896  1.0000
  C   C10       1.0  0.7920447656864554  0.38291975396477085  0.9109839263612969  1.0000
  C   C11       1.0  0.06677055825779381  0.1873260567397566  0.22294915377265304  1.0000
  C   C12       1.0  0.933232859479034  0.8126780661119781  0.7770796823035226  1.0000
  C   C13       1.0  0.2987267934940263  0.1020705425196269  0.22406253073656757  1.0000
  C   C14       1.0  0.7012746769853635  0.8979386117588818  0.7759479828882332  1.0000
  C   C15       1.0  0.22382983294620834  0.5743766120910934  0.18452310791312238  1.0000
  C   C16       1.0  0.776175215254341  0.4256265044752894  0.8154835314415152  1.0000
  C   C17       1.0  0.18412331367691342  0.027548067907062504  0.23615562516604166  1.0000
  C   C18       1.0  0.8158958962060581  0.9724590738007352  0.7638663716765419  1.0000
  C   C19       1.0  0.9466093396802648  0.6036263085352261  0.5350522200881116  1.0000
  C   C20       1.0  0.053392568689133675  0.3963838520286416  0.4649483294495411  1.0000
  C   C21       1.0  0.4229724234016317  0.0575303400904019  0.2223110665599606  1.0000
  C   C22       1.0  0.5770334632783759  0.9424818330441768  0.7776937657559273  1.0000
  C   C23       1.0  0.8887114305003649  0.362788009131755  0.4240281447417543  1.0000
  C   C24       1.0  0.1112884095153035  0.6372221514321126  0.5759717419715713  1.0000
  C   C25       1.0  0.3025795577862596  0.2239065420026733  0.22065404420330023  1.0000
  C   C26       1.0  0.6974145523587723  0.7760975808490613  0.7793525953294348  1.0000
  C   C27       1.0  0.18899739063306242  0.2664814691315485  0.22484172452794127  1.0000
  C   C28       1.0  0.8109948095550834  0.7335206411494752  0.7751725031207001  1.0000
  C   C29       1.0  0.9441137369124846  0.9971221215920211  0.252211107623978  1.0000
  C   C30       1.0  0.0558993052098415  0.0028779761182847  0.7478139963261086  1.0000
  C   C31       1.0  0.14806228038701616  0.3452474490905502  0.0268151406471659  1.0000
  C   C32       1.0  0.8519279260485106  0.6547405731954896  0.9731813957400134  1.0000
  C   C33       1.0  0.1410801016916707  0.5672752563334882  0.8581383410825437  1.0000
  C   C34       1.0  0.8589199248267647  0.4326996842429196  0.1418461941360576  1.0000
  C   C35       1.0  0.6428603462029657  0.6619405449179824  0.41494731672997176  1.0000
  C   C36       1.0  0.3571413199738346  0.33805955279232347  0.5850501243938595  1.0000
  C   C37       1.0  0.6419703885346238  0.5477140752973426  0.32692258972760146  1.0000
  C   C38       1.0  0.3580318739290362  0.4522850161276111  0.6730747394021462  1.0000
  C   C39       1.0  0.1298646956438674  0.38788979733827494  0.9321776795016133  1.0000
  C   C40       1.0  0.8701418992246702  0.6121002375184759  0.0678239143041139  1.0000
  C   C41       1.0  0.6117823336237223  0.5365241821381305  0.2039295165217538  1.0000
  C   C42       1.0  0.3882206462230968  0.4634789344282453  0.7960668530915739  1.0000
  C   C43       1.0  0.5967728716913073  0.6434379760763989  0.17791738266689072  1.0000
  C   C44       1.0  0.4032186111136867  0.35656010906319585  0.8220745877821258  1.0000
  C   C45       1.0  0.6254934484138914  0.7642425330694991  0.38107698944047286  1.0000
  C   C46       1.0  0.3744975965010937  0.2357545457847365  0.6189145376022935  1.0000
  N   N1        1.0  0.8496220388639913  0.4770688181616194  0.41058561801610693  1.0000
  N   N2        1.0  0.15037990680595936  0.5229342984047564  0.5894136224907172  1.0000
  N   N3        1.0  0.6071046368930837  0.7564518718430052  0.26613684304807356  1.0000
  N   N4        1.0  0.3928837433813044  0.2435462132965895  0.7338533325880333  1.0000
  N   N5        1.0  0.26508595367251087  0.6738116932632394  0.31278506004344553  1.0000
  N   N6        1.0  0.7349075974862133  0.32618639187635523  0.6872099749591456  1.0000
  O   O1        1.0  0.2038611571529785  0.39828271249550085  0.24725551463281897  1.0000
  O   O2        1.0  0.7961242789876692  0.6017133600733828  0.7527483223183464  1.0000
  O   O3        1.0  0.49719380026127175  0.8084285230534007  0.0038827906683493335  1.0000
  O   O4        1.0  0.5027991546105923  0.191570568371553  0.9961107551755006  1.0000
  O   O5        1.0  0.06519869831724633  0.47132896649074507  0.7410264152636187  1.0000
  O   O6        1.0  0.9348106357929923  0.5286459740856628  0.2589619032408805  1.0000
  O   O7        1.0  0.4355245297056172  0.963853321435849  0.25470851538619843  1.0000
  O   O8        1.0  0.5644828663418195  0.0361528139865968  0.7452893781059514  1.0000
  O   O9        1.0  0.5124832470055267  0.1148906179556306  0.19177198269947124  1.0000
  O   O10       1.0  0.4875105836463476  0.8851104860400341  0.8082168459219686  1.0000
  O   O11       1.0  0.9632416848360563  0.9235858066283811  0.307744981463692  1.0000
  O   O12       1.0  0.0367957580303298  0.0764656116350864  0.6923306186275086  1.0000
  O   O13       1.0  0.1995821586410642  0.6900340194880243  0.8876683895205345  1.0000
  O   O14       1.0  0.800425666101745  0.3099469588005164  0.11232366550203919  1.0000
  O   O15       1.0  0.826052538975766  0.0232824242827903  0.20851152088659572  1.0000
  O   O16       1.0  0.17393284147505736  0.9766683654450645  0.7914554428984812  1.0000
  O   O17       1.0  0.8066049167780492  0.0832530063616019  0.4756223013896418  1.0000
  O   O18       1.0  0.19339942323398415  0.9167722484826086  0.5243707643704452  1.0000
  O   O19       1.0  0.3233678942643934  0.6539717711834712  0.4090403138510864  1.0000
  O   O20       1.0  0.6766169828899464  0.3460182636732796  0.5909527191463582  1.0000
  O   O21       1.0  0.2407954945152682  0.7778515362246452  0.3204857803842387  1.0000
  O   O22       1.0  0.7591896621322292  0.2221415174881756  0.6794946416207281  1.0000
