data_image0
_chemical_formula_structural       Zr6H40C88N10O52F2
_chemical_formula_sum              "Zr6 H40 C88 N10 O52 F2"
_cell_length_a       19.14556329081941
_cell_length_b       19.122719753994364
_cell_length_c       19.146143381421492
_cell_angle_alpha    59.425481132571285
_cell_angle_beta     59.9169617850617
_cell_angle_gamma    60.04476731568692

_space_group_name_H-M_alt    "P 1"
_space_group_IT_number       1

loop_
  _space_group_symop_operation_xyz
  'x, y, z'

loop_
  _atom_site_type_symbol
  _atom_site_label
  _atom_site_symmetry_multiplicity
  _atom_site_fract_x
  _atom_site_fract_y
  _atom_site_fract_z
  _atom_site_occupancy
  Zr  Zr1       1.0  0.9070324395210391  0.40700461014238  0.5933169599727678  1.0000
  Zr  Zr2       1.0  0.09259264668630607  0.5929032813919406  0.4074661673843636  1.0000
  Zr  Zr3       1.0  0.09154977326812726  0.40619971178215064  0.5941272359369378  1.0000
  Zr  Zr4       1.0  0.908076116838728  0.593686036665048  0.4066472093142791  1.0000
  Zr  Zr5       1.0  0.9077809435414749  0.5919692541909287  0.5924129755935325  1.0000
  Zr  Zr6       1.0  0.09187806725797995  0.4079311913759653  0.4083143859978122  1.0000
  H   H1        1.0  0.9266274400106197  0.42503458051822246  0.7197410294947914  1.0000
  H   H2        1.0  0.9285539329332761  0.7192813359148149  0.42548754126614335  1.0000
  H   H3        1.0  0.21800079310945364  0.4273032532492209  0.42824128816366874  1.0000
  H   H4        1.0  0.9264268772118524  0.4278657744736663  0.4276767063757418  1.0000
  H   H5        1.0  0.4545685178615243  0.6110785756228481  0.050456084274834535  1.0000
  H   H6        1.0  0.5493282522643951  0.38455856125246163  0.9547854586037161  1.0000
  H   H7        1.0  0.6760704780805963  0.6149419419708269  0.8137533753356365  1.0000
  H   H8        1.0  0.5479593611155733  0.6181415631796909  0.9418123733767845  1.0000
  H   H9        1.0  0.31337064793272856  0.3955219492058647  0.17646511286066158  1.0000
  H   H10       1.0  0.44146489892612817  0.3923983760452287  0.04842421067611721  1.0000
  H   H11       1.0  0.11124957295960075  0.9544396833539253  0.38478930511305975  1.0000
  H   H12       1.0  0.8836682042204912  0.05034418321718446  0.6111900393863721  1.0000
  H   H13       1.0  0.11449476408689913  0.17626848376647083  0.39565448681104703  1.0000
  H   H14       1.0  0.11746653372274096  0.04831447274823829  0.392447741100753  1.0000
  H   H15       1.0  0.8950078872155129  0.8136308353957988  0.6152141623107142  1.0000
  H   H16       1.0  0.8918513322038565  0.941756387103574  0.6182456635701284  1.0000
  H   H17       1.0  0.4521320500789655  0.05211814055896733  0.3848074981122166  1.0000
  H   H18       1.0  0.5525499007572987  0.9531941607867652  0.6105147619202709  1.0000
  H   H19       1.0  0.6728623748143219  0.8147712492583782  0.39658674377709224  1.0000
  H   H20       1.0  0.545292727420609  0.9434864586965406  0.3931334877671161  1.0000
  H   H21       1.0  0.3171994744972577  0.17565605872927398  0.6138307599574304  1.0000
  H   H22       1.0  0.44560757006028223  0.047760984565705704  0.6164331948292273  1.0000
  H   H23       1.0  0.8839679815308086  0.6103579020761102  0.9533520261528494  1.0000
  H   H24       1.0  0.11121265327676606  0.38478539541105056  0.05215827927704449  1.0000
  H   H25       1.0  0.8934580463969437  0.6135607552161065  0.17596188666355772  1.0000
  H   H26       1.0  0.8904324817791573  0.6163493856311394  0.04791822901970015  1.0000
  H   H27       1.0  0.1159078101654029  0.39628154336327276  0.8150683285602016  1.0000
  H   H28       1.0  0.11837283776003439  0.3930889042311849  0.943576915758797  1.0000
  H   H29       1.0  0.1148217371628065  0.8188985932648051  0.17644661342839635  1.0000
  H   H30       1.0  0.18010724269952044  0.9341296051241416  0.06309712277394648  1.0000
  H   H31       1.0  0.8898279454712181  0.818253174228012  0.17746640625341578  1.0000
  H   H32       1.0  0.8897487195445277  0.17603461552786118  0.8194066271386263  1.0000
  H   H33       1.0  0.8225791636722801  0.06276458374164673  0.9346084219418033  1.0000
  H   H34       1.0  0.11436890191703236  0.17707082405399188  0.8187285744819379  1.0000
  H   H35       1.0  0.45343862330422985  0.38295164036515683  0.6125922156661262  1.0000
  H   H36       1.0  0.5510415413815437  0.6122220841969935  0.3833342607119121  1.0000
  H   H37       1.0  0.6751636647805197  0.39456932635891945  0.6153042860981442  1.0000
  H   H38       1.0  0.5472982234840555  0.39116125429425386  0.6185598073812244  1.0000
  H   H39       1.0  0.3149146912994708  0.6148946354032958  0.395000825441322  1.0000
  H   H40       1.0  0.4429400587941713  0.6181955644332363  0.39155171920470627  1.0000
  C   C1        1.0  0.7628445210305373  0.5012616331257008  0.7323689585441144  1.0000
  C   C2        1.0  0.0033834619375879755  0.732021251759548  0.5017104818359286  1.0000
  C   C3        1.0  0.23204976040863554  0.5035535650593275  0.26353679913813716  1.0000
  C   C4        1.0  0.0008713304677882274  0.26318421357317595  0.5038349932259508  1.0000
  C   C5        1.0  0.001972137908161435  0.2613581674960416  0.7338740546051384  1.0000
  C   C6        1.0  0.7630455609298963  0.5038913168017063  0.5010102646288387  1.0000
  C   C7        1.0  0.002767724466245552  0.7334157564753099  0.2617856898702371  1.0000
  C   C8        1.0  0.23201911619236154  0.5005920840915081  0.5043452932269831  1.0000
  C   C9        1.0  0.0013240387037141447  0.5020501760904851  0.7332317233886202  1.0000
  C   C10       1.0  0.23154839453456322  0.2624064612886486  0.5029987374418496  1.0000
  C   C11       1.0  0.003119051643238716  0.5026332984404079  0.26276309507822765  1.0000
  C   C12       1.0  0.7633756411497359  0.7328261284387668  0.5024607575021208  1.0000
  C   C13       1.0  0.3102025494030015  0.5040878445950343  0.18602978691266966  1.0000
  C   C14       1.0  0.6851932036690938  0.5002183287305256  0.810395265361045  1.0000
  C   C15       1.0  0.3523395774940496  0.5636335663315108  0.1482529594667809  1.0000
  C   C16       1.0  0.4250560216247481  0.5631156608927128  0.07601294363264091  1.0000
  C   C17       1.0  0.6470957304667236  0.4365190134680858  0.8523966192515787  1.0000
  C   C18       1.0  0.5750399307094936  0.43640937167739235  0.9252935632849741  1.0000
  C   C19       1.0  0.6472275943395192  0.5649891353576564  0.8453759207610361  1.0000
  C   C20       1.0  0.5748677758048184  0.5658328201254791  0.918125661366382  1.0000
  C   C21       1.0  0.3450420756026205  0.44256721384384434  0.14780669500075316  1.0000
  C   C22       1.0  0.41777080998149063  0.4413869560743963  0.07543031556446067  1.0000
  C   C23       1.0  0.45956113841981505  0.501716405090619  0.0375459383760486  1.0000
  C   C24       1.0  0.5368979551738207  0.5015931402724761  0.9599802863076551  1.0000
  C   C25       1.0  0.004045183349475738  0.8101094586224065  0.50056355573291  1.0000
  C   C26       1.0  0.999581135729585  0.1857842746902493  0.5042818013347555  1.0000
  C   C27       1.0  0.06386186783756627  0.852077089936337  0.4368421165363827  1.0000
  C   C28       1.0  0.06312335721091933  0.9250215829967491  0.43664835071432145  1.0000
  C   C29       1.0  0.9356197175606839  0.1480550002712349  0.5637996269331326  1.0000
  C   C30       1.0  0.9356278135019236  0.0758558228343774  0.563262283495007  1.0000
  C   C31       1.0  0.06443929190110245  0.14760349901910527  0.44270803944932885  1.0000
  C   C32       1.0  0.06521770676759779  0.07527858485400434  0.44149266108977514  1.0000
  C   C33       1.0  0.9422213993925935  0.8451958196799866  0.5652505863571305  1.0000
  C   C34       1.0  0.9409666956175682  0.9179981579518997  0.5660009730188946  1.0000
  C   C35       1.0  0.001364519706789806  0.9598137101866017  0.5017421035575184  1.0000
  C   C36       1.0  0.0009819941021119837  0.03739941789601889  0.5018410177693655  1.0000
  C   C37       1.0  0.3102581305418184  0.1855234720025152  0.5008380766514193  1.0000
  C   C38       1.0  0.6855628731561861  0.810688226093902  0.5036300240334555  1.0000
  C   C39       1.0  0.3509598642695264  0.1487413363865785  0.4370483470897355  1.0000
  C   C40       1.0  0.4239224707222249  0.07690172126438448  0.4365690107102368  1.0000
  C   C41       1.0  0.6489808675991355  0.8517295140806809  0.5631601259206107  1.0000
  C   C42       1.0  0.5770130565943671  0.9245869886420622  0.5626043066273851  1.0000
  C   C43       1.0  0.645783400646799  0.8464240277630425  0.4427427214718305  1.0000
  C   C44       1.0  0.573627839198657  0.9192158536788714  0.441544379951921  1.0000
  C   C45       1.0  0.3472658676755101  0.14698021065364483  0.5645994441488116  1.0000
  C   C46       1.0  0.42019366382787376  0.07500879555823291  0.5649884958882226  1.0000
  C   C47       1.0  0.46019669523021617  0.03781076988043017  0.5011924319563761  1.0000
  C   C48       1.0  0.5374161421990351  0.9603135076202564  0.5013884232565856  1.0000
  C   C49       1.0  0.00023328554556907382  0.5033311777510221  0.8109721778683934  1.0000
  C   C50       1.0  0.003526600112230998  0.5005827180045727  0.185790623690032  1.0000
  C   C51       1.0  0.936299169715397  0.5629114950112426  0.8519513853371735  1.0000
  C   C52       1.0  0.9360202332501968  0.5624652373092335  0.924736835553702  1.0000
  C   C53       1.0  0.0634593561522152  0.436871248864037  0.14891869897923024  1.0000
  C   C54       1.0  0.06288450804653672  0.4365070985259863  0.07698391142645276  1.0000
  C   C55       1.0  0.9413290333667843  0.5643902009801068  0.14721464484306063  1.0000
  C   C56       1.0  0.9400414694229652  0.5648790440843854  0.075163224930172  1.0000
  C   C57       1.0  0.06523020488819485  0.44249692725841794  0.8466594411961027  1.0000
  C   C58       1.0  0.0658652822588192  0.441446978494895  0.9193414592994104  1.0000
  C   C59       1.0  0.001165469416328208  0.50132704211687  0.9604005891037914  1.0000
  C   C60       1.0  0.0010726566058707416  0.5011471971302087  0.037891243935469256  1.0000
  C   C61       1.0  0.06600934988461635  0.848557489570908  0.14694775787712885  1.0000
  C   C62       1.0  0.06658410798477382  0.9228849281167797  0.07347217292106481  1.0000
  C   C63       1.0  0.13060605539053696  0.9620430192413708  0.034946365315050805  1.0000
  C   C64       1.0  0.9384795588247031  0.8480590978911593  0.14766734972279483  1.0000
  C   C65       1.0  0.9374104705062436  0.9221678998583087  0.07425677097369003  1.0000
  C   C66       1.0  0.8739704540565113  0.96286907140712  0.034155919809514074  1.0000
  C   C67       1.0  0.9384161364562117  0.1465389597381588  0.8490523710716147  1.0000
  C   C68       1.0  0.9370056385244536  0.0730486968150713  0.9233635668420633  1.0000
  C   C69       1.0  0.8723659160534963  0.034530693375700146  0.962475258410258  1.0000
  C   C70       1.0  0.06570929274978687  0.1472693544641644  0.848539456214141  1.0000
  C   C71       1.0  0.0660859293808683  0.07386207803379825  0.9226396841991972  1.0000
  C   C72       1.0  0.12892233459112368  0.03377952800274647  0.9633420247346225  1.0000
  C   C73       1.0  0.0026313476505633302  0.8118020828161222  0.18329684539219923  1.0000
  C   C74       1.0  0.0017961924888109065  0.9606047476909301  0.03594246551765685  1.0000
  C   C75       1.0  0.0021970905070815283  0.18289503870049365  0.8122612508665982  1.0000
  C   C76       1.0  0.0016054659989845235  0.03550630801261426  0.9610647682390766  1.0000
  C   C77       1.0  0.31021125186016696  0.4993619887509766  0.5049082034765321  1.0000
  C   C78       1.0  0.6855237594451397  0.5044666335697058  0.4997732889670203  1.0000
  C   C79       1.0  0.3516510391739871  0.43522302455564704  0.5650410986397675  1.0000
  C   C80       1.0  0.42449876049673896  0.43520765883158685  0.5642003092155363  1.0000
  C   C81       1.0  0.6481166291899498  0.5646205208539925  0.43561809593641954  1.0000
  C   C82       1.0  0.5761197821059908  0.563802660050712  0.43558189431600175  1.0000
  C   C83       1.0  0.6469051285657629  0.4421311523332819  0.5650048420077027  1.0000
  C   C84       1.0  0.5746540023772793  0.4407539863301438  0.5659002752972954  1.0000
  C   C85       1.0  0.3459281692874255  0.5646037794307971  0.44255036728056757  1.0000
  C   C86       1.0  0.41866087426073756  0.565530128996599  0.44114225620850794  1.0000
  C   C87       1.0  0.4598429075422387  0.500988390087315  0.5018994725585273  1.0000
  C   C88       1.0  0.5372665456615237  0.5015211360643123  0.5013561127155415  1.0000
  N   N1        1.0  0.32341159699286937  0.6309776260056381  0.18309521574801832  1.0000
  N   N2        1.0  0.6811408928993002  0.3638604230125466  0.8228499397896982  1.0000
  N   N3        1.0  0.13206270340776874  0.8224467600117863  0.3642372027028316  1.0000
  N   N4        1.0  0.8623560983447118  0.18290871468675376  0.6311540224105343  1.0000
  N   N5        1.0  0.32010288561173894  0.18395304524948847  0.3645567816710624  1.0000
  N   N6        1.0  0.6845362429051248  0.8211849638987162  0.6308591018914527  1.0000
  N   N7        1.0  0.8635497331201378  0.630556546261893  0.8214504283024553  1.0000
  N   N8        1.0  0.13152319808421004  0.36431683454473784  0.18419120005350464  1.0000
  N   N9        1.0  0.32146510484818686  0.36178036143441983  0.6336927251064353  1.0000
  N   N10       1.0  0.683107648733639  0.6332760625763852  0.36221960321347524  1.0000
  O   O1        1.0  0.7932501403014313  0.4420669336130843  0.7019812482213654  1.0000
  O   O2        1.0  0.06261036742306893  0.7015350152684193  0.4425868055042556  1.0000
  O   O3        1.0  0.20187617803206576  0.5625056362924142  0.2941402053535215  1.0000
  O   O4        1.0  0.9415359714192983  0.29371504928645475  0.5628580780795502  1.0000
  O   O5        1.0  0.060980618618991254  0.2930298263517912  0.703171365964856  1.0000
  O   O6        1.0  0.7940918346978731  0.5635778720321696  0.44110753806684483  1.0000
  O   O7        1.0  0.9428072714270428  0.7026908295912337  0.2934432627313439  1.0000
  O   O8        1.0  0.20118672752728614  0.44068223076759255  0.5640215202698827  1.0000
  O   O9        1.0  0.9422514041045599  0.5612688213225143  0.7020265472120215  1.0000
  O   O10       1.0  0.20048753384916296  0.2936862150825164  0.4437422380932646  1.0000
  O   O11       1.0  0.06215901775269117  0.4433992556598412  0.2940223945774534  1.0000
  O   O12       1.0  0.794421252547927  0.701618124171539  0.5616831474756339  1.0000
  O   O13       1.0  0.20211259525571978  0.29138929061195995  0.5628017852016995  1.0000
  O   O14       1.0  0.943686375056302  0.5623550673067258  0.2918339798737861  1.0000
  O   O15       1.0  0.793342596707802  0.7043531747925728  0.44213295043589795  1.0000
  O   O16       1.0  0.06008292896705578  0.4416483455069057  0.7048329820025856  1.0000
  O   O17       1.0  0.9425961629526967  0.29281761191272426  0.7030012506346565  1.0000
  O   O18       1.0  0.20272181152632388  0.5604177075926202  0.4440539252006844  1.0000
  O   O19       1.0  0.06152676744537909  0.7025729350869554  0.2932731251304048  1.0000
  O   O20       1.0  0.7928321238835208  0.4435638442188932  0.5608131162636738  1.0000
  O   O21       1.0  0.06038912236018486  0.29362355784014926  0.4440540545743446  1.0000
  O   O22       1.0  0.7935777096831272  0.5604333615007207  0.7025684368843059  1.0000
  O   O23       1.0  0.9432521040903337  0.7022500536097027  0.5608724730368594  1.0000
  O   O24       1.0  0.20188304946565697  0.4437550730833095  0.29399295821546895  1.0000
  O   O25       1.0  0.9474929994824562  0.4485113489683671  0.44792862994282967  1.0000
  O   O26       1.0  0.15603553194087263  0.4475265177921842  0.4489378728140494  1.0000
  O   O27       1.0  0.9481767600523341  0.6569258218134024  0.44757384012622475  1.0000
  O   O28       1.0  0.9472487640006546  0.44714223842574097  0.6573840523020137  1.0000
  O   O29       1.0  0.03827058420380079  0.5377676076488529  0.5389634826744683  1.0000
  O   O30       1.0  0.884952768834964  0.5385008394624295  0.5382127157645017  1.0000
  O   O31       1.0  0.03830210848041558  0.5389240198104943  0.3851309226390356  1.0000
  O   O32       1.0  0.03762766638137551  0.38469918374443074  0.5393352922257506  1.0000
  O   O33       1.0  0.3516395537603215  0.6109209360661084  0.23871969922964814  1.0000
  O   O34       1.0  0.2779921707776297  0.702992713513808  0.14988772973645573  1.0000
  O   O35       1.0  0.7347034118110822  0.2981419291094484  0.852601990905086  1.0000
  O   O36       1.0  0.6491500547965146  0.37301118763948454  0.7752568646135174  1.0000
  O   O37       1.0  0.1144834751478496  0.8520073012720247  0.2985486520302274  1.0000
  O   O38       1.0  0.20250482711856668  0.7749698412034506  0.37340547407699626  1.0000
  O   O39       1.0  0.7986019319866668  0.238613763621764  0.6110639476714185  1.0000
  O   O40       1.0  0.8689110366129424  0.1496257749676672  0.703206614760923  1.0000
  O   O41       1.0  0.348316056658831  0.2392871296639286  0.29901115934772793  1.0000
  O   O42       1.0  0.27329800478071303  0.15110870610770638  0.3735466339799843  1.0000
  O   O43       1.0  0.7392155035835583  0.8501709498689609  0.6117299006006788  1.0000
  O   O44       1.0  0.6525832971977578  0.773645766081451  0.7023984443225469  1.0000
  O   O45       1.0  0.7990001225444628  0.6114109792317564  0.8505495694482903  1.0000
  O   O46       1.0  0.8715009423332986  0.7020831725130989  0.7738227548300712  1.0000
  O   O47       1.0  0.11340576368740317  0.2988558748331657  0.23960411366978462  1.0000
  O   O48       1.0  0.20225196590035927  0.3731854897323147  0.15131285638722142  1.0000
  O   O49       1.0  0.3501204289805384  0.29667875218090256  0.6159536279467303  1.0000
  O   O50       1.0  0.27438157310184136  0.36947473133310643  0.7047394206982674  1.0000
  O   O51       1.0  0.7373034922408833  0.6155727169339829  0.29709692687440986  1.0000
  O   O52       1.0  0.6514637196043793  0.7042933892700775  0.36996832587155387  1.0000
  F   F1        1.0  0.18994536705388732  0.07101815035515095  0.9266413798566265  1.0000
  F   F2        1.0  0.8124048221675576  0.9261791830885783  0.071351470729752  1.0000
