data_image0
_chemical_formula_structural       Zn8H20C44Cl4O42
_chemical_formula_sum              "Zn8 H20 C44 Cl4 O42"
_cell_length_a       15.945567852024931
_cell_length_b       15.944785579262188
_cell_length_c       17.027329642840332
_cell_angle_alpha    62.127517006215626
_cell_angle_beta     62.562830277816346
_cell_angle_gamma    90.50849371701685

_space_group_name_H-M_alt    "P 1"
_space_group_IT_number       1

loop_
  _space_group_symop_operation_xyz
  'x, y, z'

loop_
  _atom_site_type_symbol
  _atom_site_label
  _atom_site_symmetry_multiplicity
  _atom_site_fract_x
  _atom_site_fract_y
  _atom_site_fract_z
  _atom_site_occupancy
  Zn  Zn1       1.0  0.35434876251862607  0.452474691972725  0.5911520300455136  1.0000
  Zn  Zn2       1.0  0.9563224742233912  0.054468427723939936  0.5911444230614932  1.0000
  Zn  Zn3       1.0  0.5392375139405345  0.6427172561458507  0.4158089750024984  1.0000
  Zn  Zn4       1.0  0.9414671952937541  0.044923069812668505  0.4158035980169357  1.0000
  Zn  Zn5       1.0  0.5488782007804646  0.4454210747576966  0.41090737220130785  1.0000
  Zn  Zn6       1.0  0.14369888191798444  0.040209930522628765  0.4107919634602055  1.0000
  Zn  Zn7       1.0  0.5547511397003363  0.45314547055549786  0.592410663094924  1.0000
  Zn  Zn8       1.0  0.9544112493116398  0.8528191676962323  0.5924499541253709  1.0000
  H   H1        1.0  0.21889944681628035  0.20045197645583118  0.9050699059797366  1.0000
  H   H2        1.0  0.894528425902486  0.8758338611832812  0.9051513710540177  1.0000
  H   H3        1.0  0.7682841382888981  0.8234524751749535  0.07704136011548719  1.0000
  H   H4        1.0  0.09941074620346062  0.15469578997101516  0.0770342493224234  1.0000
  H   H5        1.0  0.4208729447498598  0.26401094379596673  0.9107458043517979  1.0000
  H   H6        1.0  0.8252166671840588  0.6682455183950186  0.9108128611668532  1.0000
  H   H7        1.0  0.7624732972261656  0.6002290828452104  0.08131288357936466  1.0000
  H   H8        1.0  0.3183836949249041  0.15623293540954813  0.0812691029923798  1.0000
  H   H9        1.0  0.31007784916231174  0.16832040516593602  0.9356321282811846  1.0000
  H   H10       1.0  0.896005184154099  0.7540613945948847  0.9357471652080773  1.0000
  H   H11       1.0  0.8116438640700423  0.71725824646429  0.10817876753679904  1.0000
  H   H12       1.0  0.17453316845769962  0.08024398984574793  0.10807465900174407  1.0000
  H   H13       1.0  0.0646785246503542  0.29500885123197673  0.8937139536032885  1.0000
  H   H14       1.0  0.8113351917586087  0.04150208824498247  0.8937453679481137  1.0000
  H   H15       1.0  0.5902019394960619  0.9171256135770776  0.14347123184878535  1.0000
  H   H16       1.0  0.9393787527377669  0.26617867254315547  0.1435160144835733  1.0000
  H   H17       1.0  0.252130397156158  0.6014792236637166  0.8654252870961157  1.0000
  H   H18       1.0  0.5330916274344234  0.8823247169626712  0.8655698966820534  1.0000
  H   H19       1.0  0.4233836972121523  0.5780256600340081  0.21061744411250058  1.0000
  H   H20       1.0  0.21128320548051965  0.3661451739570509  0.21048764252117275  1.0000
  C   C1        1.0  0.6278438159873474  0.6414689273720242  0.22552628659501284  1.0000
  C   C2        1.0  0.13295561501543318  0.14667104275162762  0.22544676560014656  1.0000
  C   C3        1.0  0.17368088365782341  0.31902527014386095  0.06260202730710769  1.0000
  C   C4        1.0  0.22323298690000834  0.368944017175892  0.9383032420988041  1.0000
  C   C5        1.0  0.6927524375303092  0.8383348389373708  0.9384103184195212  1.0000
  C   C6        1.0  0.6183492741191542  0.7635942575039607  0.06270634189385055  1.0000
  C   C7        1.0  0.35893964383378557  0.3648785947034626  0.7820122221513657  1.0000
  C   C8        1.0  0.25150887989104115  0.20530775375212348  0.9473086382572545  1.0000
  C   C9        1.0  0.8473929106687663  0.8010140475072305  0.9473934985236807  1.0000
  C   C10       1.0  0.779551401466854  0.7625753832969053  0.06377476227015687  1.0000
  C   C11       1.0  0.17358917308238386  0.15673880607786833  0.06369110046557577  1.0000
  C   C12       1.0  0.8531312996374183  0.8589976114108853  0.7820732629632158  1.0000
  C   C13       1.0  0.3722978966464582  0.3021966790742711  0.942815287727164  1.0000
  C   C14       1.0  0.7549795088601245  0.6847723959018881  0.9428696273592788  1.0000
  C   C15       1.0  0.7058016964633965  0.6261146255132245  0.0647137899937816  1.0000
  C   C16       1.0  0.3091060511647897  0.2295135919055014  0.06464478992212004  1.0000
  C   C17       1.0  0.14343969162273845  0.36692278843450066  0.9077494438017907  1.0000
  C   C18       1.0  0.7253695773019758  0.9487076139372307  0.9077972866497886  1.0000
  C   C19       1.0  0.5683559065949382  0.8227470216453837  0.11368848320402958  1.0000
  C   C20       1.0  0.06354332147248701  0.3179678519853439  0.11360129548581452  1.0000
  C   C21       1.0  0.2729792732022033  0.4830626082016778  0.8733803043460426  1.0000
  C   C22       1.0  0.6435550951598756  0.853521856379011  0.8735049531074849  1.0000
  C   C23       1.0  0.5294007416977707  0.6890787156210009  0.09192086541096241  1.0000
  C   C24       1.0  0.2189637629464158  0.3787922998970217  0.09179607491584817  1.0000
  C   C25       1.0  0.3017503490673548  0.3154506234914579  0.9010060523147913  1.0000
  C   C26       1.0  0.7835431299512052  0.7971295463776543  0.9010831454480195  1.0000
  C   C27       1.0  0.6778021009548568  0.6972212867122494  0.10644407945552105  1.0000
  C   C28       1.0  0.19629461246672972  0.21581766107923533  0.1063572553575938  1.0000
  C   C29       1.0  0.7244341548887049  0.7238640594906514  0.4976589728575505  1.0000
  C   C30       1.0  0.7784342524117135  0.7778411683042564  0.4977198035027256  1.0000
  C   C31       1.0  0.28342761770117164  0.2820273870831827  0.4885705282219844  1.0000
  C   C32       1.0  0.22944462429661178  0.2279659889738994  0.4884748268810384  1.0000
  C   C33       1.0  0.3461230085623371  0.3446373837521435  0.49227267826483967  1.0000
  C   C34       1.0  0.1631829610576361  0.1615815169054216  0.49209539485700293  1.0000
  C   C35       1.0  0.6602523850845969  0.658723252278172  0.49822897849914205  1.0000
  C   C36       1.0  0.8429852757512748  0.8414717614167132  0.498298902763011  1.0000
  C   C37       1.0  0.6585475553443275  0.33849230743914666  0.5031300699994857  1.0000
  C   C38       1.0  0.1583565896588439  0.8382784375857997  0.5032900621553863  1.0000
  C   C39       1.0  0.33690360551830173  0.6544670937241578  0.5065323994531211  1.0000
  C   C40       1.0  0.839081428353545  0.15665890160715176  0.5063901185225035  1.0000
  C   C41       1.0  0.2728062084900316  0.7180365276232125  0.5067387563521278  1.0000
  C   C42       1.0  0.7753389031396412  0.2205808270555067  0.5065780571435636  1.0000
  C   C43       1.0  0.22097698384095582  0.7732900087994918  0.5049370737974497  1.0000
  C   C44       1.0  0.721923571918353  0.2742495079224981  0.5047476269356537  1.0000
  Cl  Cl1       1.0  0.4573617831070108  0.4110983883372869  0.8959550600035938  1.0000
  Cl  Cl2       1.0  0.6929483042101977  0.6465845206452486  0.8959944204407931  1.0000
  Cl  Cl3       1.0  0.6148031587826921  0.5128156713561298  0.13055250665625803  1.0000
  Cl  Cl4       1.0  0.356545100149333  0.2546975659031006  0.13047654890735308  1.0000
  O   O1        1.0  0.49862033534031286  0.49752092164577993  0.5030851792411751  1.0000
  O   O2        1.0  0.04349209691577019  0.14659930900970156  0.27064614768606526  1.0000
  O   O3        1.0  0.8957121221075611  0.8130563359568369  0.7381077537047033  1.0000
  O   O4        1.0  0.643027397672455  0.5583009127182662  0.2690524470963709  1.0000
  O   O5        1.0  0.1726046344483407  0.08796501147854492  0.2689560873255203  1.0000
  O   O6        1.0  0.44884459394666726  0.36623197786242667  0.7380819395524795  1.0000
  O   O7        1.0  0.11092493107215516  0.4364454963465436  0.878603292970382  1.0000
  O   O8        1.0  0.11210634492940844  0.2820387117126374  0.9164034672736817  1.0000
  O   O9        1.0  0.6850682139406815  0.010400933597388478  0.878522334200234  1.0000
  O   O10       1.0  0.8015401706089803  0.9713541194906555  0.9165311731052554  1.0000
  O   O11       1.0  0.48271684625180455  0.8219977295580421  0.14409485088435767  1.0000
  O   O12       1.0  0.3083514042464728  0.3906355274727248  0.7389656764484441  1.0000
  O   O13       1.0  0.6303834711526975  0.8818476434211463  0.11341520870760743  1.0000
  O   O14       1.0  0.03383413748824887  0.3731732363331162  0.1440342793913345  1.0000
  O   O15       1.0  0.004749177216844205  0.2561579735200965  0.1133601047734416  1.0000
  O   O16       1.0  0.8704398053849544  0.9526526303881154  0.739035633764331  1.0000
  O   O17       1.0  0.5827200750171002  0.6857585192211176  0.2706947526153057  1.0000
  O   O18       1.0  0.35180335844161453  0.5241277183321031  0.7906493995681956  1.0000
  O   O19       1.0  0.2152831775089153  0.5311727793824874  0.9123817016333077  1.0000
  O   O20       1.0  0.685241230021667  0.8575003830371061  0.790745627539877  1.0000
  O   O21       1.0  0.5564011613138432  0.8721348572780628  0.9125668708401946  1.0000
  O   O22       1.0  0.5137560880547342  0.6801659422892783  0.03272670534128247  1.0000
  O   O23       1.0  0.47217259490884084  0.6283400843668546  0.19746021769832825  1.0000
  O   O24       1.0  0.28705740227678694  0.4536797261612405  0.032587260234457516  1.0000
  O   O25       1.0  0.1741590624609515  0.33049091574361716  0.19732536627869016  1.0000
  O   O26       1.0  0.9994046023952943  0.998287584688349  0.5030402562519002  1.0000
  O   O27       1.0  0.43678641411793956  0.37949708603294857  0.41955833898184375  1.0000
  O   O28       1.0  0.20110897494259214  0.1436303926095591  0.41939133714678417  1.0000
  O   O29       1.0  0.6312818072147408  0.5677865735822111  0.5696407472098455  1.0000
  O   O30       1.0  0.8625335783347058  0.7990506726536992  0.5696870563002034  1.0000
  O   O31       1.0  0.6225464027907248  0.35097240657538004  0.44658114226643875  1.0000
  O   O32       1.0  0.2024242468400459  0.9308499480067525  0.4466164319962899  1.0000
  O   O33       1.0  0.6454527208927062  0.375639197735623  0.5583051098185122  1.0000
  O   O34       1.0  0.06602629372347478  0.7961750623954914  0.5585532105726401  1.0000
  O   O35       1.0  0.42826105646977203  0.6978363904222533  0.4582524005830208  1.0000
  O   O36       1.0  0.8439975769936651  0.11359255309211846  0.4581084306221754  1.0000
  O   O37       1.0  0.29567590998809823  0.5624353304397617  0.5540917141144773  1.0000
  O   O38       1.0  0.8835497951329359  0.15030972183966176  0.5539525187646389  1.0000
  O   O39       1.0  0.3034054120004511  0.3575882472252589  0.5682822058166151  1.0000
  O   O40       1.0  0.07420657196264807  0.12828762995669518  0.5680629418427755  1.0000
  O   O41       1.0  0.6402287377907712  0.6995890722570336  0.4267098028368821  1.0000
  O   O42       1.0  0.8735803397369037  0.9330318097524639  0.4268044633802148  1.0000
