data_image0
_chemical_formula_structural       Sm4H28C36S2N8O30
_chemical_formula_sum              "Sm4 H28 C36 S2 N8 O30"
_cell_length_a       9.482366046852205
_cell_length_b       9.851748823638172
_cell_length_c       14.21708696408908
_cell_angle_alpha    91.37773106074214
_cell_angle_beta     107.68398362113297
_cell_angle_gamma    118.1832945512605

_space_group_name_H-M_alt    "P 1"
_space_group_IT_number       1

loop_
  _space_group_symop_operation_xyz
  'x, y, z'

loop_
  _atom_site_type_symbol
  _atom_site_label
  _atom_site_symmetry_multiplicity
  _atom_site_fract_x
  _atom_site_fract_y
  _atom_site_fract_z
  _atom_site_occupancy
  Sm  Sm1       1.0  0.32242282580615006  0.6388494286662194  0.010563887379809976  1.0000
  Sm  Sm2       1.0  0.6775777757324591  0.3611516321439581  0.9894357727565934  1.0000
  Sm  Sm3       1.0  0.5982937940745501  0.9298316958637756  0.8415164604466842  1.0000
  Sm  Sm4       1.0  0.401704408376972  0.07016701629227381  0.15848337807837257  1.0000
  H   H1        1.0  0.02226113246511826  0.5084858570421886  0.5810517240897539  1.0000
  H   H2        1.0  0.9777375300272553  0.4915116776962023  0.4189495942842855  1.0000
  H   H3        1.0  0.682027450467544  0.9479652487204507  0.39019588294020485  1.0000
  H   H4        1.0  0.317970751983971  0.05203346343559901  0.6098039555848518  1.0000
  H   H5        1.0  0.10563905954933259  0.08875432143241108  0.7403074000415162  1.0000
  H   H6        1.0  0.894360248753756  0.91124438882796  0.2596926621015356  1.0000
  H   H7        1.0  0.9397667499422228  0.7452652660239352  0.7376961608039923  1.0000
  H   H8        1.0  0.0602344984831618  0.2547369699787865  0.2623036500716509  1.0000
  H   H9        1.0  0.6247206354195214  0.6236493036862214  0.36151311110597123  1.0000
  H   H10       1.0  0.3752793197703426  0.37635058176669395  0.6384871017763134  1.0000
  H   H11       1.0  0.541824093777528  0.18397016950226694  0.5484725281630887  1.0000
  H   H12       1.0  0.4581765082991113  0.8160308911431926  0.4515278354584283  1.0000
  H   H13       1.0  0.7728962620012467  0.23332616347298804  0.41233281156398516  1.0000
  H   H14       1.0  0.2271025867990132  0.7666737240403306  0.5876664742151975  1.0000
  H   H15       1.0  0.8145015798671195  0.8025474844382003  0.5348334359348074  1.0000
  H   H16       1.0  0.1854983747847143  0.1974524011794401  0.46516607346236344  1.0000
  H   H17       1.0  0.5586482074351622  0.7250160882936498  0.6536088166659085  1.0000
  H   H18       1.0  0.4413506419031278  0.27498379905494363  0.34639117259838775  1.0000
  H   H19       1.0  0.7020641582853668  0.9043315345885644  0.6702695505708435  1.0000
  H   H20       1.0  0.29793644325324203  0.09566952622161301  0.32973010956555987  1.0000
  H   H21       1.0  0.7091618851206648  0.7260586369177134  0.9637175977967873  1.0000
  H   H22       1.0  0.29083806953116914  0.2739412486999271  0.03628191160038341  1.0000
  H   H23       1.0  0.7797161610505015  0.7227069769402804  0.8794392213045658  1.0000
  H   H24       1.0  0.22028489945290627  0.2772929067816818  0.12056051171058614  1.0000
  H   H25       1.0  0.9825357441074233  0.20349280459343083  0.9113317193129123  1.0000
  H   H26       1.0  0.017464210544410753  0.7965070810242025  0.08866779008425851  1.0000
  H   H27       1.0  0.9827488920758898  0.0471663696958942  0.8848084856461685  1.0000
  H   H28       1.0  0.017251063113974358  0.9528335157570211  0.115191727236116  1.0000
  C   C1        1.0  0.2816788896960815  0.6216096324886492  0.7562362021188918  1.0000
  C   C2        1.0  0.7183221713453561  0.3783902510685877  0.2437642343813736  1.0000
  C   C3        1.0  0.15860373076707648  0.4533301201654751  0.7108645302461769  1.0000
  C   C4        1.0  0.8413968713095628  0.5466709404799844  0.28913583337534027  1.0000
  C   C5        1.0  0.036292618126715526  0.4157805136680678  0.6147684702646572  1.0000
  C   C6        1.0  0.9637062322876276  0.5842193733510896  0.3852329259698665  1.0000
  C   C7        1.0  0.939275578238721  0.259883543426959  0.5652197975021807  1.0000
  C   C8        1.0  0.06072437802720282  0.7401163416965202  0.4347818223503311  1.0000
  C   C9        1.0  0.7740943263240679  0.031204885515521093  0.45988178737906793  1.0000
  C   C10       1.0  0.22590562832776595  0.9687950001021126  0.5401177220181028  1.0000
  C   C11       1.0  0.962086623316928  0.1407246837872123  0.610000114560336  1.0000
  C   C12       1.0  0.03791268391010754  0.859274026802602  0.38999854061248845  1.0000
  C   C13       1.0  0.08462700176654175  0.17842719470188229  0.7058498772140427  1.0000
  C   C14       1.0  0.9153734123881209  0.8215715136628107  0.29415040854699737  1.0000
  C   C15       1.0  0.18149098399368307  0.33495547365632206  0.7567440897243218  1.0000
  C   C16       1.0  0.8185111828993283  0.6650444080052366  0.2432565703939389  1.0000
  C   C17       1.0  0.31802958815029564  0.37113093453108087  0.8580076837920105  1.0000
  C   C18       1.0  0.681969720152793  0.6288677757292974  0.14199237835103418  1.0000
  C   C19       1.0  0.9102273918372035  0.5350406600043132  0.8577564049107455  1.0000
  C   C20       1.0  0.08977210438785475  0.4649604025368248  0.14224373509279087  1.0000
  C   C21       1.0  0.8154076850718114  0.49912508413643053  0.7460882057271621  1.0000
  C   C22       1.0  0.18459291700482797  0.5008759765090219  0.25391215789436233  1.0000
  C   C23       1.0  0.8517385476167972  0.6246009570547103  0.6960960065673378  1.0000
  C   C24       1.0  0.14826140757306658  0.3753989283982051  0.3039042063149396  1.0000
  C   C25       1.0  0.7682808796095204  0.5877777826433289  0.591821068704846  1.0000
  C   C26       1.0  0.23171796972876987  0.41222210470526477  0.40817892055945054  1.0000
  C   C27       1.0  0.6540650734397744  0.5809103103175915  0.43039073655958776  1.0000
  C   C28       1.0  0.3459335869004931  0.4190872250796787  0.569607767873997  1.0000
  C   C29       1.0  0.6575754807811051  0.4300265055903765  0.5374449335391986  1.0000
  C   C30       1.0  0.3424244744087588  0.5699733798625388  0.46255527934308577  1.0000
  C   C31       1.0  0.6256196899318524  0.30578063339009987  0.5882077489286531  1.0000
  C   C32       1.0  0.3743813705715624  0.6942192503318553  0.41179198408650564  1.0000
  C   C33       1.0  0.7009446409894267  0.3409197231930889  0.6934843236245741  1.0000
  C   C34       1.0  0.2990559605491824  0.6590813376170884  0.3065153365118292  1.0000
  C   C35       1.0  0.6564965503697876  0.20918893149219286  0.7481676300049429  1.0000
  C   C36       1.0  0.3435051575584183  0.7908121272575884  0.25183295723456217  1.0000
  S   S1        1.0  0.7168725490335817  0.022862917472480104  0.08488935878803268  1.0000
  S   S2        1.0  0.28312805250502754  0.9771381433376972  0.9151103013483709  1.0000
  N   N1        1.0  0.8182510107802017  0.18492040752499148  0.46974883246332433  1.0000
  N   N2        1.0  0.1817460863577693  0.8150783063620181  0.5302514859288652  1.0000
  N   N3        1.0  0.854452281543814  0.9978483179370555  0.5421910789955504  1.0000
  N   N4        1.0  0.14554721468125104  0.0021527446040820997  0.45780906100798563  1.0000
  N   N5        1.0  0.5885988060338789  0.4305132708119857  0.4361659957411988  1.0000
  N   N6        1.0  0.411401149155985  0.5694866146409296  0.5638342171410855  1.0000
  N   N7        1.0  0.763934878091625  0.6800380280707402  0.5210243878915081  1.0000
  N   N8        1.0  0.2360650765602088  0.3199618575469003  0.47897512150566274  1.0000
  O   O1        1.0  0.31076935761053903  0.7249451915235527  0.702001118314712  1.0000
  O   O2        1.0  0.6892310565441235  0.2750535168411403  0.2979991674463207  1.0000
  O   O3        1.0  0.37309984881117236  0.6642102854724642  0.851269337414543  1.0000
  O   O4        1.0  0.6269029638925615  0.33579077171107485  0.1487300664727229  1.0000
  O   O5        1.0  0.2912675381432592  0.3970826563669831  0.9382247205076271  1.0000
  O   O6        1.0  0.7087352750985046  0.6029184006518377  0.0617753868647526  1.0000
  O   O7        1.0  0.44738144119864404  0.3641198599711685  0.8576093077110658  1.0000
  O   O8        1.0  0.5526198077647636  0.6358823758668282  0.14239120664969115  1.0000
  O   O9        1.0  0.8467013927943512  0.5658613876051318  0.9171144216254563  1.0000
  O   O10       1.0  0.15329810396873708  0.4341396747712807  0.0828864218631935  1.0000
  O   O11       1.0  0.050353904582671215  0.5364347539841886  0.8856463407808736  1.0000
  O   O12       1.0  0.9496449447556117  0.46356513336440497  0.11435364848342296  1.0000
  O   O13       1.0  0.6891801765392529  0.23460973701555324  0.8440022236451628  1.0000
  O   O14       1.0  0.3108210724241544  0.7653924988224432  0.155998290715587  1.0000
  O   O15       1.0  0.5846690183837069  0.0689841799876163  0.7001937953668717  1.0000
  O   O16       1.0  0.41533204265773077  0.9310157035696207  0.2998066411334009  1.0000
  O   O17       1.0  0.7264931326965822  0.13545824960685587  0.01391517368132607  1.0000
  O   O18       1.0  0.2735079288828856  0.8645416337856631  0.9860859663040531  1.0000
  O   O19       1.0  0.6416935567654464  0.0415145773072396  0.1577313559687853  1.0000
  O   O20       1.0  0.35830750319993837  0.9584853065794403  0.84226767356126  1.0000
  O   O21       1.0  0.8851921641588304  0.039936322376775  0.13551940448563476  1.0000
  O   O22       1.0  0.11480843684174856  0.9600647385981205  0.8644795521656621  1.0000
  O   O23       1.0  0.5948234771095002  0.863676838857522  0.01518082517095825  1.0000
  O   O24       1.0  0.4051771238910788  0.13632422211738054  0.9848181314803315  1.0000
  O   O25       1.0  0.6546655030886868  0.8230308825161857  0.70762046109504  1.0000
  O   O26       1.0  0.34533509952597535  0.17697017796454864  0.292380606011598  1.0000
  O   O27       1.0  0.7367777035820993  0.7795473406348847  0.9086843778515219  1.0000
  O   O28       1.0  0.2632228979565098  0.22045372017529272  0.09131528228488152  1.0000
  O   O29       1.0  0.9085436893002308  0.0933288591944574  0.8775606969951755  1.0000
  O   O30       1.0  0.09145737174121381  0.9066710243627796  0.12243973950509002  1.0000
