data_image0
_chemical_formula_structural       Cd2H28C34N4O10
_chemical_formula_sum              "Cd2 H28 C34 N4 O10"
_cell_length_a       7.050229200760808
_cell_length_b       7.009887919631617
_cell_length_c       16.68008134442012
_cell_angle_alpha    98.62552726746816
_cell_angle_beta     91.4568860120809
_cell_angle_gamma    109.69796535278698

_space_group_name_H-M_alt    "P 1"
_space_group_IT_number       1

loop_
  _space_group_symop_operation_xyz
  'x, y, z'

loop_
  _atom_site_type_symbol
  _atom_site_label
  _atom_site_symmetry_multiplicity
  _atom_site_fract_x
  _atom_site_fract_y
  _atom_site_fract_z
  _atom_site_occupancy
  Cd  Cd1       1.0  0.3072432365141112  0.6491932910401488  0.02936564009719691  1.0000
  Cd  Cd2       1.0  0.692751099851236  0.350809423801863  0.9706355837528521  1.0000
  H   H1        1.0  0.1122548210058696  0.0610783652809204  0.6137643326975847  1.0000
  H   H2        1.0  0.8877335183784538  0.9389151447691688  0.3862374510572479  1.0000
  H   H3        1.0  0.22297529662546375  0.5060299384057245  0.5790902003701889  1.0000
  H   H4        1.0  0.7770273441401657  0.49398042019043237  0.42090799407286983  1.0000
  H   H5        1.0  0.161184102202661  0.2522044830959018  0.5229557593630929  1.0000
  H   H6        1.0  0.8388123437239444  0.7478043720406549  0.47704407125706183  1.0000
  H   H7        1.0  0.9506140992679518  0.08591819803102403  0.7428926999162755  1.0000
  H   H8        1.0  0.04938152024581654  0.9140675902575736  0.2571104831147295  1.0000
  H   H9        1.0  0.12683187481974312  0.7066876665901703  0.3937910572738517  1.0000
  H   H10       1.0  0.8731732363725085  0.2933257656327299  0.6062085548259262  1.0000
  H   H11       1.0  0.19671339980740757  0.7781022149593824  0.49985021869564156  1.0000
  H   H12       1.0  0.8032892406588489  0.22190814643874296  0.5001485754370308  1.0000
  H   H13       1.0  0.9788672718442513  0.509967034706726  0.1551081667099012  1.0000
  H   H14       1.0  0.021134513345892083  0.49003253980101397  0.8448869494725173  1.0000
  H   H15       1.0  0.5770262267953044  0.9125276520682776  0.7349711228116504  1.0000
  H   H16       1.0  0.42297377784201723  0.0874750234543029  0.26502716402232807  1.0000
  H   H17       1.0  0.4335797335517527  0.9787494826461796  0.610342096224784  1.0000
  H   H18       1.0  0.5664151636325414  0.021242444581965003  0.389656664412243  1.0000
  H   H19       1.0  0.9418963764101776  0.4222343777050098  0.293944352460315  1.0000
  H   H20       1.0  0.05810023731368124  0.5777790672646574  0.706049770284892  1.0000
  H   H21       1.0  0.5713514129774708  0.4783921039798003  0.3059104425648798  1.0000
  H   H22       1.0  0.42864186905630675  0.5216075365119863  0.6940905783656888  1.0000
  H   H23       1.0  0.5815258281841621  0.5623831722484026  0.164867972288377  1.0000
  H   H24       1.0  0.4184727922150627  0.4376071960204584  0.835130133273303  1.0000
  H   H25       1.0  0.8996791525679342  0.9866499469994923  0.8770072286885765  1.0000
  H   H26       1.0  0.10032282419349767  0.013341985017135004  0.1229994047034779  1.0000
  H   H27       1.0  0.08085606978976771  0.9107782027083573  0.9268223146531582  1.0000
  H   H28       1.0  0.9191499612905857  0.08922139204463522  0.0731812432578991  1.0000
  C   C1        1.0  0.18103956747442848  0.03612319259241299  0.6686538300129286  1.0000
  C   C2        1.0  0.8189530228893533  0.9638702900695792  0.3313462007470633  1.0000
  C   C3        1.0  0.12165150921625674  0.3916629535194431  0.5296832861031646  1.0000
  C   C4        1.0  0.8783511312499995  0.608347407878675  0.4703155080295147  1.0000
  C   C5        1.0  0.0888800383483357  0.04856834170302452  0.7413585596561276  1.0000
  C   C6        1.0  0.9111182178924722  0.9514251240552271  0.2586433316047305  1.0000
  C   C7        1.0  0.09962711889433964  0.6540795153788393  0.4523395540167101  1.0000
  C   C8        1.0  0.9003755215719167  0.3459308460192858  0.5476592401159692  1.0000
  C   C9        1.0  0.10870845457089474  0.5089316084581981  0.191516862570424  1.0000
  C   C10       1.0  0.8912949115178818  0.4910725831787985  0.8084797573704421  1.0000
  C   C11       1.0  0.16622673045165468  0.006487045805904799  0.812277514760126  1.0000
  C   C12       1.0  0.8337747218382958  0.9935033238179543  0.18772361996563797  1.0000
  C   C13       1.0  0.4395590858200508  0.9507156631194392  0.7368662029086934  1.0000
  C   C14       1.0  0.5604398641863284  0.04928394085487751  0.2631324806954183  1.0000
  C   C15       1.0  0.2578104287843389  0.45245140595154254  0.3132133023901957  1.0000
  C   C16       1.0  0.7421855236296295  0.5475435872209289  0.6867838620974637  1.0000
  C   C17       1.0  0.24634077729065504  0.3844237180304972  0.3946743692681309  1.0000
  C   C18       1.0  0.7536563942584634  0.6155789673449235  0.6053232871602249  1.0000
  C   C19       1.0  0.42604681272063527  0.8948621376776204  0.8819386026857927  1.0000
  C   C20       1.0  0.5739579667688801  0.10514207845355374  0.1180646291988623  1.0000
  C   C21       1.0  0.3579859861543326  0.9883174324590057  0.6663027235143275  1.0000
  C   C22       1.0  0.6420076594391231  0.011679116147313104  0.333695711096297  1.0000
  C   C23       1.0  0.3431613437607198  0.9552302323261869  0.8091636924859813  1.0000
  C   C24       1.0  0.6568423828940624  0.04477089544495531  0.1908363380311116  1.0000
  C   C25       1.0  0.08949462178190976  0.46075547614715623  0.2695430933597223  1.0000
  C   C26       1.0  0.910505910619932  0.5392487309466106  0.7304540955547623  1.0000
  C   C27       1.0  0.437954432592683  0.4882054154228115  0.2751233837993325  1.0000
  C   C28       1.0  0.5620439899485419  0.5117926541783647  0.7248757980346597  1.0000
  C   C29       1.0  0.4450690827745021  0.5349240877350069  0.19694033249076878  1.0000
  C   C30       1.0  0.5549302295940848  0.46507243556169453  0.8030581635518672  1.0000
  C   C31       1.0  0.15036250059117862  0.233125595424994  0.9418167810694982  1.0000
  C   C32       1.0  0.8496481435314679  0.7668708940642334  0.05818543597485611  1.0000
  C   C33       1.0  0.0622123552199412  0.0211234344106614  0.8895760272157459  1.0000
  C   C34       1.0  0.937791567197266  0.9788700116418951  0.11042712485635062  1.0000
  N   N1        1.0  0.15529844634775003  0.4716703667636182  0.4534182529624573  1.0000
  N   N2        1.0  0.8447065006396527  0.528338442002621  0.5465798707368705  1.0000
  N   N3        1.0  0.28373972058382446  0.5469838058846292  0.1561341203014877  1.0000
  N   N4        1.0  0.7162624257710632  0.4530126991533336  0.8438632070779164  1.0000
  O   O1        1.0  0.3144922448071625  0.2471119002888003  0.4056616845882317  1.0000
  O   O2        1.0  0.6855005115576632  0.7528861890180709  0.5943362364345148  1.0000
  O   O3        1.0  0.5999659716908281  0.002888313697518201  0.9150078528858856  1.0000
  O   O4        1.0  0.4000320851951431  0.9971128674028621  0.08499811309536653  1.0000
  O   O5        1.0  0.03177320162436106  0.32293920967747886  0.9715621890471907  1.0000
  O   O6        1.0  0.9682263059079189  0.6770496375045665  0.028440627929683188  1.0000
  O   O7        1.0  0.34096027450128474  0.32078512034759404  0.9550242501144481  1.0000
  O   O8        1.0  0.6590436479159226  0.6792083257049699  0.04497890195764852  1.0000
  O   O9        1.0  0.31081125496450573  0.7296552162527448  0.9032371971806653  1.0000
  O   O10       1.0  0.6891891105381877  0.27034439260202  0.09676390053991922  1.0000
