data_image0
_chemical_formula_structural       HgH8C12Br2N6
_chemical_formula_sum              "Hg1 H8 C12 Br2 N6"
_cell_length_a       7.297267636539966
_cell_length_b       7.536265337534755
_cell_length_c       7.993208911965987
_cell_angle_alpha    114.58036028015708
_cell_angle_beta     96.24999671251264
_cell_angle_gamma    106.81181180309152

_space_group_name_H-M_alt    "P 1"
_space_group_IT_number       1

loop_
  _space_group_symop_operation_xyz
  'x, y, z'

loop_
  _atom_site_type_symbol
  _atom_site_label
  _atom_site_symmetry_multiplicity
  _atom_site_fract_x
  _atom_site_fract_y
  _atom_site_fract_z
  _atom_site_occupancy
  Hg  Hg1       1.0  0.5000024405069324  5.13300154379774e-06  0.5000022143694596  1.0000
  H   H1        1.0  0.0028062157629662214  0.2385349226752069  0.537295928491453  1.0000
  H   H2        1.0  0.9971789485526583  0.7614551491793619  0.46270923401611713  1.0000
  H   H3        1.0  0.2908739485693914  0.5766806240328819  0.6641888127334996  1.0000
  H   H4        1.0  0.7091188746101191  0.4232922919872378  0.33580131318651507  1.0000
  H   H5        1.0  0.2772174715209558  0.9020982796763375  0.9308134493048857  1.0000
  H   H6        1.0  0.7227936318252474  0.0978920188681087  0.06917768414793102  1.0000
  H   H7        1.0  0.9772931382232597  0.8683431090655348  0.05711237756781893  1.0000
  H   H8        1.0  0.022718412126906194  0.13166445411979308  0.9428844967054105  1.0000
  C   C1        1.0  5.0368758387335376e-05  0.3822528146619176  0.6505777526153907  1.0000
  C   C2        1.0  0.9999390799276352  0.6177420275747137  0.3494234297146123  1.0000
  C   C3        1.0  0.16235958508431733  0.571643973808655  0.7227776907926045  1.0000
  C   C4        1.0  0.8376417130286525  0.42834153278425896  0.2772169572953517  1.0000
  C   C5        1.0  0.15456864956551902  0.7509416684327377  0.8689397002313727  1.0000
  C   C6        1.0  0.8454397152775638  0.24904860977044754  0.1310524497103316  1.0000
  C   C7        1.0  0.986666269958654  0.7344130450071659  0.9383974285339821  1.0000
  C   C8        1.0  0.01333880204482801  0.2655912980597321  0.061605120189597136  1.0000
  C   C9        1.0  0.8301008496341564  0.5390324480083564  0.8556985602769915  1.0000
  C   C10       1.0  0.16989667318175347  0.4609781684011125  0.14430213710266332  1.0000
  C   C11       1.0  0.6524810714751009  0.5167960738053807  0.9294620658141145  1.0000
  C   C12       1.0  0.3475173089579967  0.4832129678350369  0.07053931942734688  1.0000
  Br  Br1       1.0  0.6521746314693072  0.8088450865755231  0.6288417686194735  1.0000
  Br  Br2       1.0  0.3478303528209635  0.19115929471747958  0.37115578306372043  1.0000
  N   N1        1.0  0.8365609355110732  0.3654033894759721  0.7130501915701404  1.0000
  N   N2        1.0  0.16343581134152868  0.63460094034977  0.28694916031960827  1.0000
  N   N3        1.0  0.5129086003039233  0.32310937836808057  0.8648020264910772  1.0000
  N   N4        1.0  0.4870909568960399  0.6769027662560134  0.1352057113585731  1.0000
  N   N5        1.0  0.3587683653610227  0.3059734085520204  0.9361853359416802  1.0000
  N   N6        1.0  0.6412325720546473  0.694038741464446  0.063822518293577  1.0000
