data_image0
_chemical_formula_structural       Cd2H42C32N14O10
_chemical_formula_sum              "Cd2 H42 C32 N14 O10"
_cell_length_a       8.858683836000104
_cell_length_b       9.584320708757483
_cell_length_c       12.654997225658674
_cell_angle_alpha    103.52134981542352
_cell_angle_beta     89.9999981983303
_cell_angle_gamma    90.00001747476142

_space_group_name_H-M_alt    "P 1"
_space_group_IT_number       1

loop_
  _space_group_symop_operation_xyz
  'x, y, z'

loop_
  _atom_site_type_symbol
  _atom_site_label
  _atom_site_symmetry_multiplicity
  _atom_site_fract_x
  _atom_site_fract_y
  _atom_site_fract_z
  _atom_site_occupancy
  Cd  Cd1       1.0  0.26177596113537754  0.351543576337491  0.2142126524452692  1.0000
  Cd  Cd2       1.0  0.7617746525748146  0.6484579103492153  0.7857864760312339  1.0000
  H   H1        1.0  0.010262394469520998  0.947217475837512  0.4399540181818368  1.0000
  H   H2        1.0  0.5102631556423061  0.05278286507054731  0.5600449123516  1.0000
  H   H3        1.0  0.4741314521915214  0.5116464969147358  0.6235244851743217  1.0000
  H   H4        1.0  0.9741312372230622  0.4883529019281029  0.37647663795248576  1.0000
  H   H5        1.0  0.8648373406905773  0.41357769248850224  0.1939585318707771  1.0000
  H   H6        1.0  0.36483870133375956  0.5864206026536538  0.8060416073538973  1.0000
  H   H7        1.0  0.9660136963144976  0.056460410148112296  0.8564814912752465  1.0000
  H   H8        1.0  0.466015204575342  0.9435379152142929  0.1435178608166368  1.0000
  H   H9        1.0  0.9305695058753329  0.7505162319731014  0.3300878724334737  1.0000
  H   H10       1.0  0.4305696317468416  0.24948422838752288  0.6699126501719164  1.0000
  H   H11       1.0  0.8769080315054011  0.7082855753906117  0.19346693028006703  1.0000
  H   H12       1.0  0.37690703658250857  0.29171701569440245  0.8065339722917031  1.0000
  H   H13       1.0  0.9536655240333615  0.9572982911204805  0.2344379974132806  1.0000
  H   H14       1.0  0.45366670587852537  0.042703250016245406  0.7655619265769289  1.0000
  H   H15       1.0  0.0928073793419699  0.8566060132379505  0.14860428729413397  1.0000
  H   H16       1.0  0.5928070290106788  0.14339542463204685  0.8513948363503373  1.0000
  H   H17       1.0  0.26524270009571876  0.8690080248309969  0.30080335986959733  1.0000
  H   H18       1.0  0.7652412234761243  0.13099453498192298  0.699196749482681  1.0000
  H   H19       1.0  0.2225973900413009  0.020878377293044502  0.6681312411739385  1.0000
  H   H20       1.0  0.7225973400124062  0.9791209508575066  0.3318682947073625  1.0000
  H   H21       1.0  0.03242805591357718  0.010072331802817303  0.6188757428207977  1.0000
  H   H22       1.0  0.5324268784803579  0.9899280135302678  0.38112476839880566  1.0000
  H   H23       1.0  0.1297066423002562  0.1782351567175908  0.6526638718552391  1.0000
  H   H24       1.0  0.6297065393349396  0.8217630685139599  0.3473378406976336  1.0000
  H   H25       1.0  0.3447556107579501  0.6983276291333099  0.365196784037856  1.0000
  H   H26       1.0  0.844754193642096  0.30167388053779837  0.6348031368377889  1.0000
  H   H27       1.0  0.4774615589002805  0.7513927016886514  0.5729763468930429  1.0000
  H   H28       1.0  0.9774612620971581  0.24860562599160832  0.4270237955523512  1.0000
  H   H29       1.0  0.360552473382846  0.3121659312486075  0.4701528295109298  1.0000
  H   H30       1.0  0.8605557044530271  0.6878355819977529  0.5298478818426844  1.0000
  H   H31       1.0  0.6245939852485805  0.47636682390490404  0.3069647509026012  1.0000
  H   H32       1.0  0.12459307231713268  0.5236314047959142  0.6930330113732525  1.0000
  H   H33       1.0  0.8047787346136345  0.25083131336634773  0.005641987864073888  1.0000
  H   H34       1.0  0.3047790122211893  0.7491648172068466  0.9943585581682582  1.0000
  H   H35       1.0  0.4904024570428334  0.21780767641779875  0.005438440752101309  1.0000
  H   H36       1.0  0.9904023125876974  0.7821906559905472  0.9945609120372083  1.0000
  H   H37       1.0  0.1529889224465322  0.4670931002228898  0.9934526711132177  1.0000
  H   H38       1.0  0.6529898673125416  0.5329051347032062  0.006546672026999489  1.0000
  H   H39       1.0  0.9731299202754825  0.30964239694066015  0.8268637094589265  1.0000
  H   H40       1.0  0.473131343156652  0.6903570035916502  0.17313583358694729  1.0000
  H   H41       1.0  0.13111880656325064  0.03863400047326589  0.0233667713249943  1.0000
  H   H42       1.0  0.631117593561484  0.9613631540307497  0.9766331704654405  1.0000
  C   C1        1.0  0.08143318646595789  0.609221525015876  0.2242522326149157  1.0000
  C   C2        1.0  0.5814329216051917  0.3907799085787147  0.7757476807304472  1.0000
  C   C3        1.0  0.9757150381327333  0.7374649848693979  0.24722898896720844  1.0000
  C   C4        1.0  0.4757140358736294  0.2625354885340982  0.7527715349292022  1.0000
  C   C5        1.0  0.043549499248399584  0.8767803605443945  0.230341341124074  1.0000
  C   C6        1.0  0.5435491457970868  0.12322106111588481  0.7696593611640665  1.0000
  C   C7        1.0  0.1698402783643829  0.9440076715222787  0.30921111247077687  1.0000
  C   C8        1.0  0.6698399060414245  0.05599593384198441  0.6907891849037567  1.0000
  C   C9        1.0  0.22485395081143617  0.0761418973254564  0.2705706572456137  1.0000
  C   C10       1.0  0.7248527361810773  0.923859574736909  0.7294316302796487  1.0000
  C   C11       1.0  0.20617735058013403  0.0413438211384047  0.5045528315988932  1.0000
  C   C12       1.0  0.7061727712469332  0.9586576475062005  0.49544787533991297  1.0000
  C   C13       1.0  0.14183483637242483  0.06262878783921622  0.6173857818444901  1.0000
  C   C14       1.0  0.6418347702554568  0.9373705159888602  0.3826145417533837  1.0000
  C   C15       1.0  0.3673910144068273  0.6267268012572417  0.4180293377642599  1.0000
  C   C16       1.0  0.8673907522195419  0.37327364085037834  0.5819711830343904  1.0000
  C   C17       1.0  0.4306961320690802  0.6555301631644  0.5200864962709771  1.0000
  C   C18       1.0  0.9306958647859032  0.34446922411879655  0.4799138355875384  1.0000
  C   C19       1.0  0.3725565326313856  0.42454164280999146  0.4684686440471282  1.0000
  C   C20       1.0  0.8725585974713964  0.5754588007903436  0.5315318768992724  1.0000
  C   C21       1.0  0.6288327546307496  0.4096790549485974  0.22496448910845854  1.0000
  C   C22       1.0  0.1288318602548202  0.5903180998842928  0.7750346625904426  1.0000
  C   C23       1.0  0.7206849833474818  0.289555462493702  0.06756609879317918  1.0000
  C   C24       1.0  0.22068073546378023  0.7104427939683617  0.9324316662305704  1.0000
  C   C25       1.0  0.5660920385826173  0.27535673016386397  0.06788457324761048  1.0000
  C   C26       1.0  0.0660923107717437  0.7246414806459853  0.9321139773814267  1.0000
  C   C27       1.0  0.123841233330495  0.3540669474467252  0.9736976368803809  1.0000
  C   C28       1.0  0.6238410860319304  0.6459323511828003  0.026302686202917914  1.0000
  C   C29       1.0  0.0372662847955993  0.27694095815703423  0.8898640645432606  1.0000
  C   C30       1.0  0.5372695459469269  0.7230604597098775  0.11013821761756759  1.0000
  C   C31       1.0  0.11469423944451757  0.13441525094998502  0.993172041002765  1.0000
  C   C32       1.0  0.6146941659462042  0.8655851191401497  0.006827682543281776  1.0000
  N   N1        1.0  0.11696448087556625  0.9774643236709722  0.42129652627163944  1.0000
  N   N2        1.0  0.6169663600219052  0.022536045096742906  0.5787047773916781  1.0000
  N   N3        1.0  0.331453372645555  0.48244506288465056  0.3867722226820475  1.0000
  N   N4        1.0  0.8314542858413957  0.5175542957264126  0.6132281063384113  1.0000
  N   N5        1.0  0.43299329095134437  0.5264282812023566  0.550148799732483  1.0000
  N   N6        1.0  0.9329941966959152  0.47357110674467856  0.4498515321917367  1.0000
  N   N7        1.0  0.5103298150756997  0.3508511900419791  0.16629973787747326  1.0000
  N   N8        1.0  0.0103289376679712  0.6491502239992927  0.8336993834083514  1.0000
  N   N9        1.0  0.7579535112412188  0.37457915614130854  0.1677004099056489  1.0000
  N   N10       1.0  0.2579526260141591  0.6254191081206246  0.8322997262624057  1.0000
  N   N11       1.0  0.17156277489167587  0.26386214104346817  0.03788164880888439  1.0000
  N   N12       1.0  0.6715626165627808  0.7361371703840264  0.9621194656652817  1.0000
  N   N13       1.0  0.033204710035938896  0.138197739594446  0.9031671339759555  1.0000
  N   N14       1.0  0.5332046313395081  0.8618036800664441  0.09683277799020829  1.0000
  O   O1        1.0  0.02891972226310459  0.4920511585342098  0.24563651270377554  1.0000
  O   O2        1.0  0.5289206260874835  0.507950258899541  0.7543641891660187  1.0000
  O   O3        1.0  0.21149088340757763  0.616293380069351  0.18692529912391356  1.0000
  O   O4        1.0  0.7114906145631678  0.38370701699704307  0.8130752172164151  1.0000
  O   O5        1.0  0.3368638172509221  0.06316454935462452  0.2067063513898617  1.0000
  O   O6        1.0  0.8368648618049903  0.9368369580368064  0.793293569260136  1.0000
  O   O7        1.0  0.14614363097986424  0.18995517437470263  0.29859994682584556  1.0000
  O   O8        1.0  0.6461412509438701  0.8100484221644562  0.701401929923314  1.0000
  O   O9        1.0  0.337633680325986  0.08247873556944543  0.4893463461467036  1.0000
  O   O10       1.0  0.83763585968002  0.9175174054854623  0.5106534107990583  1.0000
