data_image0
_chemical_formula_structural       Cd10H48C44S8N16Cl20
_chemical_formula_sum              "Cd10 H48 C44 S8 N16 Cl20"
_cell_length_a       11.852862476452596
_cell_length_b       12.133912908
_cell_length_c       14.0287
_cell_angle_alpha    90.0
_cell_angle_beta     99.6943729440717
_cell_angle_gamma    90.0

_space_group_name_H-M_alt    "P 1"
_space_group_IT_number       1

loop_
  _space_group_symop_operation_xyz
  'x, y, z'

loop_
  _atom_site_type_symbol
  _atom_site_label
  _atom_site_symmetry_multiplicity
  _atom_site_fract_x
  _atom_site_fract_y
  _atom_site_fract_z
  _atom_site_occupancy
  Cd  Cd1       1.0  0.3163638618918085  0.117928982254071  0.1674846128523058  1.0000
  Cd  Cd2       1.0  0.816365413639062  0.3820737823940874  0.667482481306628  1.0000
  Cd  Cd3       1.0  0.6836366739017805  0.8820724263599615  0.8325207382784894  1.0000
  Cd  Cd4       1.0  0.1836376898554448  0.6179276262199451  0.3325189581974044  1.0000
  Cd  Cd5       1.0  0.49999812814603223  0.9999981120682051  0.9999988070101294  1.0000
  Cd  Cd6       1.0  0.0  0.5000002922387878  0.4999999999999999  1.0000
  Cd  Cd7       1.0  0.6734737136848494  0.1954035782172738  0.8477841199291374  1.0000
  Cd  Cd8       1.0  0.1734730178378996  0.3046008347037983  0.34778494759923007  1.0000
  Cd  Cd9       1.0  0.3265285339093467  0.8046035993519566  0.15221434650393917  1.0000
  Cd  Cd10      1.0  0.8265258061550824  0.6954013980466911  0.6522137445652375  1.0000
  H   H1        1.0  0.1459481199419699  0.4896903451550614  0.8580904014504752  1.0000
  H   H2        1.0  0.6459471039883128  0.0103140677660107  0.35809218153156047  1.0000
  H   H3        1.0  0.8540541276522263  0.5103127117318849  0.1419109162802954  1.0000
  H   H4        1.0  0.3540500082040623  0.9896898132573924  0.6419098312085082  1.0000
  H   H5        1.0  0.1483069811814772  0.5614297755103053  0.9704271205583905  1.0000
  H   H6        1.0  0.6483068211281164  0.9385719253425221  0.4704275967638836  1.0000
  H   H7        1.0  0.8516935546121119  0.4385716331037344  0.029574666450287196  1.0000
  H   H8        1.0  0.3516920028648657  0.061427834998596595  0.5295725210494239  1.0000
  H   H9        1.0  0.3198371053279132  0.3917598581794621  0.9181494901869414  1.0000
  H   H10       1.0  0.8198352334739454  0.1082420823322394  0.41815114849477186  1.0000
  H   H11       1.0  0.680165142266283  0.6082423745710273  0.08185182754382939  1.0000
  H   H12       1.0  0.18016016691781545  0.89176015041825  0.5818491950499264  1.0000
  H   H13       1.0  0.346765440711529  0.5147993106066906  0.9878064919159397  1.0000
  H   H14       1.0  0.846764424757872  0.9852032143825866  0.48780755917260166  1.0000
  H   H15       1.0  0.65323509508206  0.4852029221437988  0.012196007917161503  1.0000
  H   H16       1.0  0.15323354333480674  0.0147990183679028  0.5121917240430277  1.0000
  H   H17       1.0  0.5722189958489636  0.21521169797405548  0.24991847778203174  1.0000
  H   H18       1.0  0.0722200118026279  0.2847885942647324  0.7499188361742168  1.0000
  H   H19       1.0  0.4277832517452325  0.7847872382306063  0.7500807014754682  1.0000
  H   H20       1.0  0.9277788121903541  0.7152103419399296  0.2500798559902435  1.0000
  H   H21       1.0  0.5013418916242713  0.3086300378446722  0.3176420714048475  1.0000
  H   H22       1.0  0.0013437634782392  0.1913694302576587  0.817641838745871  1.0000
  H   H23       1.0  0.4986612118702355  0.6913688983599897  0.6823586552747611  1.0000
  H   H24       1.0  0.9986550605147431  0.8086295059470031  0.18235756624302008  1.0000
  H   H25       1.0  0.9074614507595414  0.24268511092233777  0.3190411915045813  1.0000
  H   H26       1.0  0.407458187211681  0.25731518131645  0.8190409410304722  1.0000
  H   H27       1.0  0.09253908503404772  0.7573154735552379  0.6809563185575552  1.0000
  H   H28       1.0  0.5925397808809976  0.7426845790246688  0.18095834218515705  1.0000
  H   H29       1.0  0.0140949662163052  0.1464300933648985  0.004548006750447099  1.0000
  H   H30       1.0  0.5140956620632551  0.35356855060097553  0.5045486047292016  1.0000
  H   H31       1.0  0.9859064254775873  0.8535680187033065  0.9954496250849443  1.0000
  H   H32       1.0  0.48590145012912  0.6464295614672295  0.4954484182398956  1.0000
  H   H33       1.0  0.7626628049266557  0.1430486614796465  0.19426351856468926  1.0000
  H   H34       1.0  0.2626603972790988  0.3569532790320551  0.6942612513905713  1.0000
  H   H35       1.0  0.2373377308669333  0.8569502747250155  0.8057354171462874  1.0000
  H   H36       1.0  0.7373332913120549  0.6430448330361429  0.30573599730991663  1.0000
  H   H37       1.0  0.8219253420178063  0.0891517854299764  0.03788581519278009  1.0000
  H   H38       1.0  0.3219263579714636  0.4108493309452754  0.5378833222872713  1.0000
  H   H39       1.0  0.17807433787547922  0.9108463266382287  0.9621137115693656  1.0000
  H   H40       1.0  0.6780698983206008  0.5891463087135591  0.4621128660841406  1.0000
  H   H41       1.0  0.6535937173096897  0.3596498535210984  0.16704612134871868  1.0000
  H   H42       1.0  0.1535964450639611  0.1403529111270601  0.6670467232874271  1.0000
  H   H43       1.0  0.3464068184838993  0.6403507309564773  0.8329513887134111  1.0000
  H   H44       1.0  0.8464032348293246  0.8596468492140588  0.33295351629914893  1.0000
  H   H45       1.0  0.638851690463099  0.4351547633508019  0.2744435200662068  1.0000
  H   H46       1.0  0.1388518505164598  0.064844704751529  0.7744423310362833  1.0000
  H   H47       1.0  0.3611531248320149  0.5648425245809392  0.7255560245110716  1.0000
  H   H48       1.0  0.8611469734765222  0.9351550555895898  0.22555778677703126  1.0000
  C   C1        1.0  0.05969305494436131  0.2263927572933895  0.14367285621100478  1.0000
  C   C2        1.0  0.5596928948910076  0.2736083590818552  0.6436733324165046  1.0000
  C   C3        1.0  0.9403066249489244  0.7736061789112653  0.8563245320778705  1.0000
  C   C4        1.0  0.4403042173013675  0.7263930495321772  0.3563236905525925  1.0000
  C   C5        1.0  0.3902742767960419  0.3658687872296369  0.12539662965082948  1.0000
  C   C6        1.0  0.8902749726429846  0.1341323291456078  0.6253965148051605  1.0000
  C   C7        1.0  0.6097271148978578  0.6341317972479388  0.874603853482256  1.0000
  C   C8        1.0  0.10972385134999743  0.8658674311955109  0.37460360300814693  1.0000
  C   C9        1.0  0.18496262352697812  0.33113555622695395  0.06723382701367339  1.0000
  C   C10       1.0  0.6849633193739282  0.1688655601482907  0.5672365634656982  1.0000
  C   C11       1.0  0.8150379122666109  0.6688642041141648  0.9327658215217338  1.0000
  C   C12       1.0  0.31503550461905416  0.8311358484657418  0.43276569282088667  1.0000
  C   C13       1.0  0.16658729988731844  0.48321592914469136  0.9370681000957501  1.0000
  C   C14       1.0  0.6665862839336612  0.016786835503467  0.4370705930012661  1.0000
  C   C15       1.0  0.8334140918065743  0.516786303605798  0.06293309586175866  1.0000
  C   C16       1.0  0.3334116841590173  0.9832145731105655  0.5629315415120573  1.0000
  C   C17       1.0  0.2884349790521057  0.4445589844676974  0.9718717473094002  1.0000
  C   C18       1.0  0.7884339630984414  0.0554429560440042  0.47187352739048544  1.0000
  C   C19       1.0  0.7115664126417869  0.555443248282792  0.028129448648115788  1.0000
  C   C20       1.0  0.2115631490939265  0.9445584525700284  0.5281277725251527  1.0000
  C   C21       1.0  0.5238614845388483  0.292706897348701  0.24593461605719108  1.0000
  C   C22       1.0  0.023863356392809  0.20729421902654369  0.7459343833982144  1.0000
  C   C23       1.0  0.4761416189556584  0.7072928629924177  0.7540653977979871  1.0000
  C   C24       1.0  0.9761363235004765  0.792705541314568  0.25406514336393116  1.0000
  C   C25       1.0  0.9258855607165586  0.21921782529411615  0.24802771965636333  1.0000
  C   C26       1.0  0.4258822971686982  0.2807832910811285  0.7480274691822542  1.0000
  C   C27       1.0  0.07411668687763752  0.7807811109105386  0.7519707467767134  1.0000
  C   C28       1.0  0.5741148150236768  0.7192164692599903  0.2519731179089604  1.0000
  C   C29       1.0  0.9864011358536546  0.16808345465009467  0.0723403854019935  1.0000
  C   C30       1.0  0.4864012959070081  0.3319184858616069  0.5723406220209171  1.0000
  C   C31       1.0  0.013600255840238202  0.8319163056910241  0.9276572464333979  1.0000
  C   C32       1.0  0.5135958162853598  0.668080450343048  0.42765782659702717  1.0000
  C   C33       1.0  0.8472377376263227  0.1647704260908185  0.1794749767698676  1.0000
  C   C34       1.0  0.34723704177937265  0.3352331626938039  0.6794736659666896  1.0000
  C   C35       1.0  0.1527636540675772  0.8352309825232211  0.8205226550655239  1.0000
  C   C36       1.0  0.6527592145126989  0.6647657735108581  0.3205239480535765  1.0000
  C   C37       1.0  0.8795317120195278  0.1365412800109738  0.09120854021384867  1.0000
  C   C38       1.0  0.3795310161725851  0.3634598363642709  0.5912072294106635  1.0000
  C   C39       1.0  0.1204688237740612  0.8634584803301449  0.9087896826727117  1.0000
  C   C40       1.0  0.6204635283188722  0.6365366274310134  0.4087894282386556  1.0000
  C   C41       1.0  0.5931534613994032  0.3883429884265297  0.21304006506837678  1.0000
  C   C42       1.0  0.0931561891536745  0.111658127948715  0.7130399541826549  1.0000
  C   C43       1.0  0.4068479302944966  0.611656771914582  0.7869589924158618  1.0000
  C   C44       1.0  0.9068434907396112  0.888340808255947  0.2869602854039144  1.0000
  S   S1        1.0  0.4874566209825915  0.47673986486140757  0.14115358111187956  1.0000
  S   S2        1.0  0.9874590286301484  0.023262075650293895  0.6411501456906092  1.0000
  S   S3        1.0  0.5125430589106942  0.523260719616168  0.8588502225968069  1.0000
  S   S4        1.0  0.012540651263137203  0.976736860554368  0.35884938107153624  1.0000
  S   S5        1.0  0.0761117904876869  0.3775121871016509  0.9762019367749843  1.0000
  S   S6        1.0  0.5761116304343261  0.12248810513713687  0.4762074027514557  1.0000
  S   S7        1.0  0.9238904571065165  0.6224875732394679  0.023797242482515888  1.0000
  S   S8        1.0  0.42388633765835243  0.8775116552039819  0.5237975830595686  1.0000
  N   N1        1.0  0.1700451371179454  0.2614688290624088  0.1347387049910793  1.0000
  N   N2        1.0  0.6700449770645847  0.2385339355857496  0.6347398940210026  1.0000
  N   N3        1.0  0.8299553986756507  0.7385301071422532  0.8652602307199044  1.0000
  N   N4        1.0  0.32995555872900445  0.7614707695741101  0.3652604673388281  1.0000
  N   N5        1.0  0.4178522405108538  0.279215783538902  0.1770132295802043  1.0000
  N   N6        1.0  0.9178537922581074  0.2207845086998859  0.6770139493322203  1.0000
  N   N7        1.0  0.5821500070833423  0.7207839768022168  0.8229873753261427  1.0000
  N   N8        1.0  0.0821467435354819  0.779214427504776  0.32298641202761047  1.0000
  N   N9        1.0  0.2889639254403562  0.37901211545435837  0.06037714995401439  1.0000
  N   N10       1.0  0.7889646212872989  0.1209898250573431  0.5603784607571923  1.0000
  N   N11       1.0  0.7110366103532402  0.620990117296131  0.9396246370546635  1.0000
  N   N12       1.0  0.21103420270568315  0.8790107594202253  0.4396230827049691  1.0000
  N   N13       1.0  0.030463203641652104  0.2470662203305807  0.23069796516407584  1.0000
  N   N14       1.0  0.5304613317876843  0.2529357201811209  0.7306981978230596  1.0000
  N   N15       1.0  0.969539043952544  0.752934364146995  0.76929978844457  1.0000
  N   N16       1.0  0.46953749220529784  0.7470665125693684  0.26930049434140807  1.0000
  Cl  Cl1       1.0  0.2997448456772105  0.1329760656956935  0.3527255503939699  1.0000
  Cl  Cl2       1.0  0.7997421179229393  0.3670258748160151  0.8527228099819977  1.0000
  Cl  Cl3       1.0  0.7002591137175997  0.867025342918339  0.647277436532164  1.0000
  Cl  Cl4       1.0  0.2002635532724781  0.6329771820709382  0.14727828201738896  1.0000
  Cl  Cl5       1.0  0.5031546884694293  0.9998151537746338  0.18982824851736518  1.0000
  Cl  Cl6       1.0  0.0031582721240113005  0.5001832505323591  0.6898311107025987  1.0000
  Cl  Cl7       1.0  0.4968424237229386  0.0001821341571144  0.8101723385738564  1.0000
  Cl  Cl8       1.0  0.9968491108720202  0.4998115649900114  0.31017022484330425  1.0000
  Cl  Cl9       1.0  0.5945571378989598  0.2072398260203485  0.0020028089898004846  1.0000
  Cl  Cl10      1.0  0.0945555861517064  0.2927612903548962  0.5020042277110548  1.0000
  Cl  Cl11      1.0  0.4054459655955398  0.7927549895020221  0.9979964920409541  1.0000
  Cl  Cl12      1.0  0.9054440937415791  0.7072392941226794  0.4979960118755144  1.0000
  Cl  Cl13      1.0  0.178397868190622  0.9500661565157174  0.15508282097765394  1.0000
  Cl  Cl14      1.0  0.6783977081372683  0.549935544337103  0.6550790202366058  1.0000
  Cl  Cl15      1.0  0.8216009558023601  0.049935252098315196  0.8449165840112371  1.0000
  Cl  Cl16      1.0  0.3216045394569349  0.4500642160040158  0.3449222974941647  1.0000
  Cl  Cl17      1.0  0.3035467548302861  0.1028959091322363  0.9746376562728826  1.0000
  Cl  Cl18      1.0  0.8035474506772361  0.3971027348336378  0.4746354029539431  1.0000
  Cl  Cl19      1.0  0.6964529250629994  0.8971054994818033  0.025366860260227473  1.0000
  Cl  Cl20      1.0  0.19645051741544256  0.6028994979168516  0.5253653059105332  1.0000
