data_image0
_chemical_formula_structural       Zn2H23C33I6N7O8
_chemical_formula_sum              "Zn2 H23 C33 I6 N7 O8"
_cell_length_a       10.851251458487003
_cell_length_b       10.801515547458742
_cell_length_c       14.020746556216293
_cell_angle_alpha    86.39552552188862
_cell_angle_beta     98.11928239392743
_cell_angle_gamma    106.01421347104973

_space_group_name_H-M_alt    "P 1"
_space_group_IT_number       1

loop_
  _space_group_symop_operation_xyz
  'x, y, z'

loop_
  _atom_site_type_symbol
  _atom_site_label
  _atom_site_symmetry_multiplicity
  _atom_site_fract_x
  _atom_site_fract_y
  _atom_site_fract_z
  _atom_site_occupancy
  Zn  Zn1       1.0  0.36835240719613443  0.5289215855760434  0.5368780270570214  1.0000
  Zn  Zn2       1.0  0.650485461202905  0.5957404836317651  0.5405542886800775  1.0000
  H   H1        1.0  0.3820295259262494  0.5769421459594284  0.019540297746246403  1.0000
  H   H2        1.0  0.9993030117870348  0.4888873424132216  0.05261625134835416  1.0000
  H   H3        1.0  0.0842620588340992  0.40793889328185884  0.9896650985376  1.0000
  H   H4        1.0  0.26047448939488055  0.42711498638855994  0.3320222073969036  1.0000
  H   H5        1.0  0.34730404688739475  0.2906661924575148  0.2653554866501366  1.0000
  H   H6        1.0  0.2636704349211243  0.3213861416437639  0.15258464637794592  1.0000
  H   H7        1.0  0.18973116747844193  0.19021204991561552  0.22940489665185743  1.0000
  H   H8        1.0  0.2295511577338374  0.6616819010670342  0.579299652247478  1.0000
  H   H9        1.0  0.09040490354436062  0.537787012032574  0.7019757923099876  1.0000
  H   H10       1.0  0.2622805033739509  0.5664276447050156  0.7302279934536244  1.0000
  H   H11       1.0  0.1672741758588785  0.4138148781374086  0.6880394629890247  1.0000
  H   H12       1.0  0.672665399158099  0.5904244025582275  0.05897458798948212  1.0000
  H   H13       1.0  0.7356236196160922  0.03809864528383141  0.7304503796377305  1.0000
  H   H14       1.0  0.8963781778835624  0.9641920128043966  0.6747447354594132  1.0000
  H   H15       1.0  0.8686144094680659  0.09506489827862911  0.5979107140324018  1.0000
  H   H16       1.0  0.8001272958614436  0.9331144596301404  0.5605070944545931  1.0000
  H   H17       1.0  0.362374005383721  0.8069516821197525  0.3992885918655276  1.0000
  H   H18       1.0  0.8051651719329415  0.24209495052091515  0.07925656091417474  1.0000
  H   H19       1.0  0.6195758768797432  0.2999128086423896  0.0286255053957163  1.0000
  H   H20       1.0  0.628190849348833  0.3648201855482682  0.1440139444373472  1.0000
  H   H21       1.0  0.5490507967591255  0.1996929715608502  0.12389150469594773  1.0000
  H   H22       1.0  0.051609657620908  0.2373348264711269  0.10490340098130703  1.0000
  H   H23       1.0  0.15647841975414423  0.4792317571442555  0.10361919339922573  1.0000
  C   C1        1.0  0.48499509614002534  0.32219131023800435  0.5501843049431018  1.0000
  C   C2        1.0  0.5845773397254774  0.14640595899841463  0.6218078775345577  1.0000
  C   C3        1.0  0.6078747631737259  0.0238894315748439  0.6125711058615124  1.0000
  C   C4        1.0  0.5060802495877539  0.5794063662375566  0.3542650358328957  1.0000
  C   C5        1.0  0.5261142863355772  0.9423763174478169  0.5432201045147877  1.0000
  C   C6        1.0  0.8034957416588075  0.3222108770930917  0.3009647619072525  1.0000
  C   C7        1.0  0.8395374005225521  0.2951233964616052  0.21357294399879834  1.0000
  C   C8        1.0  0.9747180254083859  0.31826457238153694  0.20278747149911425  1.0000
  C   C9        1.0  0.0722103867620874  0.36358086267512146  0.2788516700360475  1.0000
  C   C10       1.0  0.034770753765471306  0.40870755151561877  0.3622662301677835  1.0000
  C   C11       1.0  0.8999577405390442  0.39435528531643643  0.36920292151914685  1.0000
  C   C12       1.0  0.49260385070861906  0.5833480893658491  0.25040748621105996  1.0000
  C   C13       1.0  0.9651690616309098  0.5193987407317595  0.503151286022856  1.0000
  C   C14       1.0  0.09480869587775231  0.5149642487760034  0.5069244435895328  1.0000
  C   C15       1.0  0.5350210601843061  0.8062713579660185  0.5396211833626056  1.0000
  C   C16       1.0  0.5535000253780709  0.5642181626060818  0.724755595873937  1.0000
  C   C17       1.0  0.5662607527546442  0.5718648024412191  0.8284058278906984  1.0000
  C   C18       1.0  0.5789986367834743  0.5841807860715562  0.015851603202868606  1.0000
  C   C19       1.0  0.47578124770559077  0.5818593455105019  0.06209241787031062  1.0000
  C   C20       1.0  0.4845819671162488  0.5843998522435073  0.16264087673683042  1.0000
  C   C21       1.0  0.5716780695929415  0.5786450850028331  0.9155826982076933  1.0000
  C   C22       1.0  0.6312747140039789  0.27952278377603085  0.10665390852955882  1.0000
  C   C23       1.0  0.24719681567081156  0.0837041476891613  0.4890921182126321  1.0000
  C   C24       1.0  0.06500749271562971  0.42642016373896047  0.06155470835843601  1.0000
  C   C25       1.0  0.25124556021275174  0.2901040664093771  0.22799958202452333  1.0000
  C   C26       1.0  0.17690367398276413  0.5175601510285689  0.6816967160104143  1.0000
  C   C27       1.0  0.8248107474262342  0.9955017988923487  0.6227006757672414  1.0000
  C   C28       1.0  0.16721968015438904  0.001413257743926993  0.4188015814213771  1.0000
  C   C29       1.0  0.21508230648095153  0.9063864750883893  0.3813841542343681  1.0000
  C   C30       1.0  0.3321531257343011  0.887621771286277  0.42174595697506595  1.0000
  C   C31       1.0  0.414328999097556  0.9722182761356779  0.4920951999773138  1.0000
  C   C32       1.0  0.37991773006835683  0.0838652491183751  0.5162900368180915  1.0000
  C   C33       1.0  0.47929455706263013  0.18198019365937057  0.5703464519629904  1.0000
  I   I1        1.0  0.6195188634541965  0.23954580790404392  0.3436196487613543  1.0000
  I   I2        1.0  0.7198764788347704  0.2691485653716086  0.7236131266675231  1.0000
  I   I3        1.0  0.15926005020222084  0.16577847218037794  0.5846462435865122  1.0000
  I   I4        1.0  0.9761904909618196  0.008317743874407278  0.37305347077445833  1.0000
  I   I5        1.0  0.10896559316784499  0.7788253266512228  0.27239941393963113  1.0000
  I   I6        1.0  0.9188103393786875  0.6559577906536803  0.5884917589534454  1.0000
  N   N1        1.0  0.8718925446368929  0.4563151825848524  0.4415787378303122  1.0000
  N   N2        1.0  0.1251712863372134  0.46085964073005675  0.4345115837890604  1.0000
  N   N3        1.0  0.7548691354231567  0.2503721698093885  0.13396743244534556  1.0000
  N   N4        1.0  0.0013675373400091123  0.303681144876606  0.10739935125378251  1.0000
  N   N5        1.0  0.19985353966233532  0.37422718719319914  0.27791523030489884  1.0000
  N   N6        1.0  0.19956120204876987  0.5626497217428227  0.5816855606061182  1.0000
  N   N7        1.0  0.708856924120326  0.9854846341867045  0.6692043596186324  1.0000
  O   O1        1.0  0.38338889694634304  0.3522378741006592  0.5105925457471373  1.0000
  O   O2        1.0  0.5951938743131749  0.4018422600162738  0.567593606336459  1.0000
  O   O3        1.0  0.4068571855464287  0.5812050787911291  0.3933392243367139  1.0000
  O   O4        1.0  0.6160003210856644  0.5735370565081866  0.3968463621696827  1.0000
  O   O5        1.0  0.4378097971663806  0.7231429988123068  0.5675420553092749  1.0000
  O   O6        1.0  0.6315363361026698  0.7816914426485302  0.5118471499668686  1.0000
  O   O7        1.0  0.4438731826686393  0.5020352045383447  0.6836000113571076  1.0000
  O   O8        1.0  0.6534125639234318  0.6210766545226677  0.6847642848851763  1.0000
