data_image0
_chemical_formula_structural       Sm2H44C42S6N6O16
_chemical_formula_sum              "Sm2 H44 C42 S6 N6 O16"
_cell_length_a       9.07282381846912
_cell_length_b       11.733700307960166
_cell_length_c       12.058269564754966
_cell_angle_alpha    80.17861821937299
_cell_angle_beta     74.17167809750681
_cell_angle_gamma    84.41227406887249

_space_group_name_H-M_alt    "P 1"
_space_group_IT_number       1

loop_
  _space_group_symop_operation_xyz
  'x, y, z'

loop_
  _atom_site_type_symbol
  _atom_site_label
  _atom_site_symmetry_multiplicity
  _atom_site_fract_x
  _atom_site_fract_y
  _atom_site_fract_z
  _atom_site_occupancy
  Sm  Sm1       1.0  0.23308188412573833  0.5142711488417646  0.49162535831933946  1.0000
  Sm  Sm2       1.0  0.7669181207943083  0.4857291415061198  0.5083757160031296  1.0000
  H   H1        1.0  0.6072073925995342  0.36806146378609117  0.9216449539622785  1.0000
  H   H2        1.0  0.39279725343698874  0.63193793643417  0.07835366193624083  1.0000
  H   H3        1.0  0.4574725688907079  0.47063725330400535  0.792056627117951  1.0000
  H   H4        1.0  0.542529616789139  0.5293647603160281  0.20794370900223672  1.0000
  H   H5        1.0  0.04582971322397362  0.4099784745649727  0.044416641827758986  1.0000
  H   H6        1.0  0.9541738970815034  0.5900192008232497  0.9555833073638098  1.0000
  H   H7        1.0  0.1795492639326923  0.30967078919058366  0.1891539165703975  1.0000
  H   H8        1.0  0.8204554376602005  0.690327744877699  0.8108448345230385  1.0000
  H   H9        1.0  0.3087402782643451  0.1686325904327859  0.2930230271430503  1.0000
  H   H10       1.0  0.6912620221582985  0.8313676790592198  0.7069742633789956  1.0000
  H   H11       1.0  0.4763053350027704  0.1664031108712223  0.34298114207749814  1.0000
  H   H12       1.0  0.5236947272886711  0.8335963074126481  0.6570184094459037  1.0000
  H   H13       1.0  0.32967130215166673  0.9197606703305823  0.9958575872490413  1.0000
  H   H14       1.0  0.6703286490270415  0.08024048025724538  0.00414169388452018  1.0000
  H   H15       1.0  0.37542464067183806  0.0763879602799307  0.09484333804978458  1.0000
  H   H16       1.0  0.6245753660632404  0.9236123241559113  0.9051560782787005  1.0000
  H   H17       1.0  0.059055577926194834  0.9543184079003808  0.40148147912426413  1.0000
  H   H18       1.0  0.9409432828726095  0.04568188105137241  0.5985181711104417  1.0000
  H   H19       1.0  0.9933259147072564  0.7971125834378016  0.3167302377840783  1.0000
  H   H20       1.0  0.0066729469990676055  0.20288770255793054  0.683268583453632  1.0000
  H   H21       1.0  0.9037888426944177  0.6744828371931886  0.23390647440929516  1.0000
  H   H22       1.0  0.09621116313314809  0.3255174501986744  0.7660937709161786  1.0000
  H   H23       1.0  0.9991072645566489  0.5636529358217715  0.1557427670123772  1.0000
  H   H24       1.0  0.0008927403633975932  0.4363473545261132  0.8442583073100991  1.0000
  H   H25       1.0  0.38077203710477653  0.12417884007815158  0.5498390160268869  1.0000
  H   H26       1.0  0.6192268227865158  0.8758214518296158  0.4501614632048072  1.0000
  H   H27       1.0  0.30550597329794016  0.9793493007208555  0.45205829536455866  1.0000
  H   H28       1.0  0.694491685100715  0.020651861854794604  0.5479422825784397  1.0000
  H   H29       1.0  0.10848736625801082  0.7800780749155363  0.7672290208751987  1.0000
  H   H30       1.0  0.8915080011756161  0.2199230937358934  0.23277119588324516  1.0000
  H   H31       1.0  0.16376837018750487  0.9213693282690868  0.8794137826807427  1.0000
  H   H32       1.0  0.8362304332399051  0.07863183274668022  0.12058739035303032  1.0000
  H   H33       1.0  0.5437087295223719  0.2397465925754148  0.7605526891087706  1.0000
  H   H34       1.0  0.4562913309540448  0.760252831620491  0.23944852040862233  1.0000
  H   H35       1.0  0.562759783157702  0.14996424703833364  0.654830299130765  1.0000
  H   H36       1.0  0.43724147881135184  0.8500343064896969  0.3451708116753308  1.0000
  H   H37       1.0  0.3669760884149795  0.5925626282076379  0.6660225236236812  1.0000
  H   H38       1.0  0.6330227714763127  0.4074376637001293  0.333977955608013  1.0000
  H   H39       1.0  0.23160792412006267  0.5257949114040912  0.7578256274676034  1.0000
  H   H40       1.0  0.7683921372638667  0.4742045098358005  0.24217475305279387  1.0000
  H   H41       1.0  0.14545960532833396  0.7650439374738269  0.5448691177479715  1.0000
  H   H42       1.0  0.8545392545629584  0.23495635443394042  0.4551313614837226  1.0000
  H   H43       1.0  0.9922345147361826  0.7045935844184898  0.5463865643090672  1.0000
  H   H44       1.0  0.007765547555266002  0.29540583386538094  0.45361298721433485  1.0000
  C   C1        1.0  0.40728039538031174  0.3293898906427941  0.06827250872736104  1.0000
  C   C2        1.0  0.5927254512413357  0.6706086418656058  0.9317268374568499  1.0000
  C   C3        1.0  0.48272954734005685  0.3757942601801362  0.9537392042562941  1.0000
  C   C4        1.0  0.5172726975262166  0.6242068754638481  0.0462579510708352  1.0000
  C   C5        1.0  0.3973894143769954  0.4330646151185319  0.879989587889291  1.0000
  C   C6        1.0  0.6026116836454991  0.5669365279973704  0.12000863034105433  1.0000
  C   C7        1.0  0.17131769053841586  0.4008275605623268  0.019876533398822036  1.0000
  C   C8        1.0  0.8286846071616837  0.5991727177977353  0.9801232441142175  1.0000
  C   C9        1.0  0.24639842869977002  0.3429956223766553  0.10184958594656018  1.0000
  C   C10       1.0  0.7536039819280946  0.6570029177674144  0.8981488039623285  1.0000
  C   C11       1.0  0.40101649093289643  0.22167822437127438  0.2956261268436506  1.0000
  C   C12       1.0  0.5989846626459611  0.7783220525926494  0.7043722265816114  1.0000
  C   C13       1.0  0.3415223485929674  0.32510485344975143  0.3578698985730995  1.0000
  C   C14       1.0  0.6584788596347482  0.6748945603182152  0.6421294190440818  1.0000
  C   C15       1.0  0.15517588055606527  0.844685250486627  0.1470159526664716  1.0000
  C   C16       1.0  0.8448230357991096  0.1553141723131404  0.8529838327631507  1.0000
  C   C17       1.0  0.2643011377072427  0.9256906385531001  0.08531522715085761  1.0000
  C   C18       1.0  0.7356988134714655  0.07431051203472801  0.9146840539827039  1.0000
  C   C19       1.0  0.29097177846944783  0.012702128596231401  0.1413406944677149  1.0000
  C   C20       1.0  0.7090294306657795  0.9872972822157211  0.8586577941524708  1.0000
  C   C21       1.0  0.11624524276764704  0.9453812820485723  0.3108846687739799  1.0000
  C   C22       1.0  0.8837547084110611  0.05461986853924832  0.6891146123595816  1.0000
  C   C23       1.0  0.07921550565720284  0.8559416607694529  0.26294065107701664  1.0000
  C   C24       1.0  0.9207845010778757  0.144058623666389  0.7370587652514685  1.0000
  C   C25       1.0  0.018225994469645505  0.6369209376967078  0.19504146629294178  1.0000
  C   C26       1.0  0.9817751017378172  0.363080211331237  0.8049584099313948  1.0000
  C   C27       1.0  0.09784622849026904  0.5904699163109015  0.29060424107512256  1.0000
  C   C28       1.0  0.9021479911920594  0.4095312627684675  0.709397867583533  1.0000
  C   C29       1.0  0.28339342151799946  0.0343092775912908  0.7244422792726652  1.0000
  C   C30       1.0  0.7166065287531965  0.965691875952551  0.2755578308578919  1.0000
  C   C31       1.0  0.32237428237937155  0.0487118846314516  0.6021042921020907  1.0000
  C   C32       1.0  0.6776234324831665  0.9512884088361985  0.3978955920388356  1.0000
  C   C33       1.0  0.2799858937026585  0.9668175059004084  0.5471744176006438  1.0000
  C   C34       1.0  0.7200117646959967  0.0331836566752415  0.45282616034235446  1.0000
  C   C35       1.0  0.16731685349584785  0.858340818795888  0.7218469516227158  1.0000
  C   C36       1.0  0.832679604317683  0.1416612114916234  0.27815289603459087  1.0000
  C   C37       1.0  0.20064514026741875  0.9368262095330947  0.7845520794523252  1.0000
  C   C38       1.0  0.7993549211165104  0.0631732117067898  0.21544830106807208  1.0000
  C   C39       1.0  0.48128434467482617  0.20926245079403571  0.7057932665783112  1.0000
  C   C40       1.0  0.5187157158015837  0.7907369734018701  0.29420794293908153  1.0000
  C   C41       1.0  0.44153984787176626  0.3142530156607251  0.6228843481494906  1.0000
  C   C42       1.0  0.558460269068526  0.685745539427181  0.3771161675658234  1.0000
  S   S1        1.0  0.5276539944302598  0.25946554013791717  0.1526291196547689  1.0000
  S   S2        1.0  0.47234956031884684  0.740533001402291  0.8473706943418833  1.0000
  S   S3        1.0  0.12373998150118133  0.7352370587478917  0.07555056463476717  1.0000
  S   S4        1.0  0.8762635185990676  0.26476234598826653  0.9244482851699728  1.0000
  S   S5        1.0  0.32693604825738737  0.12924386078011446  0.8064498422968852  1.0000
  S   S6        1.0  0.6730652692680368  0.8707538265959373  0.19355140370412727  1.0000
  N   N1        1.0  0.24288944719982208  0.4468084064760873  0.9104069045369556  1.0000
  N   N2        1.0  0.7571093571351  0.5531927515836585  0.08959343949982217  1.0000
  N   N3        1.0  0.21969687088881787  0.023562315356720407  0.25290806690081513  1.0000
  N   N4        1.0  0.7803031349387413  0.9764379720351429  0.7470921784246656  1.0000
  N   N5        1.0  0.20575988523837208  0.8715106433584622  0.6044262492758676  1.0000
  N   N6        1.0  0.7942365725751585  0.1284913869290421  0.3955735983814392  1.0000
  O   O1        1.0  0.19938513626059523  0.3360418394270753  0.408825901121638  1.0000
  O   O2        1.0  0.8006161284310024  0.6639567052328984  0.5911727226934643  1.0000
  O   O3        1.0  0.4340909078653895  0.39875682459727824  0.3610651762893653  1.0000
  O   O4        1.0  0.5659101901571048  0.6012443185186243  0.6389330419409802  1.0000
  O   O5        1.0  0.01020788607367961  0.54475766653988  0.3879367836517886  1.0000
  O   O6        1.0  0.9897910840228336  0.4552408960199513  0.6120647949667486  1.0000
  O   O7        1.0  0.23921327138340592  0.5955596174383045  0.2780767979571905  1.0000
  O   O8        1.0  0.7607855311364844  0.40444154653347647  0.7219252040735782  1.0000
  O   O9        1.0  0.3053999344479692  0.3363032630951963  0.6150682062317614  1.0000
  O   O10       1.0  0.6946001269359596  0.6636961581446882  0.384932174288636  1.0000
  O   O11       1.0  0.5548485494564659  0.37344791147567225  0.5646903045115153  1.0000
  O   O12       1.0  0.4451527698839827  0.626549769988344  0.43530928349550624  1.0000
  O   O13       1.0  0.26059788705785536  0.5693962773780257  0.6775785462595465  1.0000
  O   O14       1.0  0.7394010283898068  0.430603148377763  0.32242206816707153  1.0000
  O   O15       1.0  0.10418771473906223  0.7052460959537044  0.5116827678545448  1.0000
  O   O16       1.0  0.8958112553574512  0.2947524666061269  0.4883188107639852  1.0000
