data_image0
_chemical_formula_structural       CdH16C16N6O8
_chemical_formula_sum              "Cd1 H16 C16 N6 O8"
_cell_length_a       7.398897547694722
_cell_length_b       7.660614964945236
_cell_length_c       8.985351483630554
_cell_angle_alpha    81.11134865302361
_cell_angle_beta     80.02465173384059
_cell_angle_gamma    64.09219200394374

_space_group_name_H-M_alt    "P 1"
_space_group_IT_number       1

loop_
  _space_group_symop_operation_xyz
  'x, y, z'

loop_
  _atom_site_type_symbol
  _atom_site_label
  _atom_site_symmetry_multiplicity
  _atom_site_fract_x
  _atom_site_fract_y
  _atom_site_fract_z
  _atom_site_occupancy
  Cd  Cd1       1.0  0.999998580365862  0.9999992970137012  5.98551110767435e-07  1.0000
  H   H1        1.0  0.9861363985780403  0.8042210107503036  0.7127849511167379  1.0000
  H   H2        1.0  0.013863867844087021  0.19577729320094042  0.28721558425239374  1.0000
  H   H3        1.0  0.1122179336333744  0.4780651921788532  0.6161588985681589  1.0000
  H   H4        1.0  0.8877795912900839  0.5219331048520599  0.38384204360582413  1.0000
  H   H5        1.0  0.43340678212481987  0.23107461006105007  0.011018047577756814  1.0000
  H   H6        1.0  0.5665948550466382  0.7689236973503594  0.98898228438896  1.0000
  H   H7        1.0  0.29441710105204083  0.5678898902180123  0.09118256531678529  1.0000
  H   H8        1.0  0.7055866295083034  0.43210987608198076  0.9088161443036494  1.0000
  H   H9        1.0  0.7030062211448037  0.09810711031101957  0.5110321773028159  1.0000
  H   H10       1.0  0.29699204029925863  0.9018926522039903  0.48896956840504635  1.0000
  H   H11       1.0  0.4797074884956557  0.31443965765690507  0.5498770351608824  1.0000
  H   H12       1.0  0.5202921506382693  0.6855601133460992  0.45012561838342424  1.0000
  H   H13       1.0  0.29874557150217373  0.22605563617393185  0.38711514547458126  1.0000
  H   H14       1.0  0.7012526899418889  0.7739441263410779  0.6128866002332882  1.0000
  H   H15       1.0  0.5278774370623154  0.22418024898679778  0.2824060043481324  1.0000
  H   H16       1.0  0.4721208243817472  0.775819513528205  0.7175957413597299  1.0000
  C   C1        1.0  0.08376343685566225  0.6727632991608201  0.7760911606191879  1.0000
  C   C2        1.0  0.9162348107073512  0.3272364532985107  0.22390836261094896  1.0000
  C   C3        1.0  0.15566081683994068  0.4897832101271503  0.7226548612590802  1.0000
  C   C4        1.0  0.8443380788328553  0.5102150903639354  0.27734587751248085  1.0000
  C   C5        1.0  0.28134094815924743  0.32669169554594635  0.808607647333346  1.0000
  C   C6        1.0  0.7186586909746709  0.6733080754570647  0.19139500621096053  1.0000
  C   C7        1.0  0.3325444681630785  0.35455545153525486  0.9431100506344516  1.0000
  C   C8        1.0  0.667454502039483  0.6454457563524867  0.056888053651839146  1.0000
  C   C9        1.0  0.25589889581169706  0.5413688807765238  0.9877458199072248  1.0000
  C   C10       1.0  0.7441034639993092  0.4586308820633035  0.012253093115638969  1.0000
  C   C11       1.0  0.35263577217784814  0.11876989126042044  0.7772851199893436  1.0000
  C   C12       1.0  0.6473624823256826  0.8812298662267537  0.2227155144796596  1.0000
  C   C13       1.0  0.536783226067513  0.16306824910311946  0.5247678140231355  1.0000
  C   C14       1.0  0.4632150353765497  0.8369315134118904  0.47523393168472666  1.0000
  C   C15       1.0  0.46471305876398367  0.15320437976386356  0.37809882466257233  1.0000
  C   C16       1.0  0.5352851957395545  0.8467953777233104  0.6219018098064237  1.0000
  N   N1        1.0  0.13105183288249833  0.6983990996252628  0.9067243835697878  1.0000
  N   N2        1.0  0.8689470627902905  0.30159920086581576  0.09327635520177326  1.0000
  N   N3        1.0  0.46935496796002946  0.050436413281509794  0.6494018239891728  1.0000
  N   N4        1.0  0.5306432865435083  0.9495633442056571  0.3505988104798304  1.0000
  N   N5        1.0  0.14153157359159965  0.7543097446955968  0.32475072983695685  1.0000
  N   N6        1.0  0.8584715019184301  0.24569146854480547  0.6752456530031947  1.0000
  O   O1        1.0  0.306681459287631  0.008534764168039997  0.8812328008675504  1.0000
  O   O2        1.0  0.6933167952158994  0.9914649933191265  0.11876783360145282  1.0000
  O   O3        1.0  0.19119299434182574  0.8546712233887915  0.20844586295134346  1.0000
  O   O4        1.0  0.8088034250647596  0.14533582253898197  0.7915540466024349  1.0000
  O   O5        1.0  0.2652756836082305  0.5816837755849419  0.3551714710321858  1.0000
  O   O6        1.0  0.7347308490994847  0.41831889497636604  0.6448219748204094  1.0000
  O   O7        1.0  0.9737841398754338  0.8313093084574203  0.4039559007234387  1.0000
  O   O8        1.0  0.026216767715951137  0.1686875384977354  0.5960447389482579  1.0000
