data_image0
_chemical_formula_structural       Zn8H64C96Cl8O26
_chemical_formula_sum              "Zn8 H64 C96 Cl8 O26"
_cell_length_a       23.8739943461682
_cell_length_b       23.875419579006895
_cell_length_c       23.873613572858662
_cell_angle_alpha    66.7452021273427
_cell_angle_beta     72.39228543692597
_cell_angle_gamma    107.61689618092561

_space_group_name_H-M_alt    "P 1"
_space_group_IT_number       1

loop_
  _space_group_symop_operation_xyz
  'x, y, z'

loop_
  _atom_site_type_symbol
  _atom_site_label
  _atom_site_symmetry_multiplicity
  _atom_site_fract_x
  _atom_site_fract_y
  _atom_site_fract_z
  _atom_site_occupancy
  Zn  Zn1       1.0  0.05764339758474089  0.9582000854427903  0.4841675665606503  1.0000
  Zn  Zn2       1.0  0.05764437815847863  0.09945195294186962  0.45819360347285004  1.0000
  Zn  Zn3       1.0  0.9423490326054704  0.9841657377617352  0.45819205725395323  1.0000
  Zn  Zn4       1.0  0.942370063767207  0.958196045711361  0.5994514083401229  1.0000
  Zn  Zn5       1.0  0.9423581557254935  0.5418050924169506  0.015832704352874438  1.0000
  Zn  Zn6       1.0  0.057652937644917274  0.515835174433427  0.041808935387763355  1.0000
  Zn  Zn7       1.0  0.9423540237912605  0.4005525331243047  0.04180922485741709  1.0000
  Zn  Zn8       1.0  0.05763077116733236  0.5417997893086836  0.9005530903020117  1.0000
  H   H1        1.0  0.9240544763344545  0.6519699321277627  0.11240532451373045  1.0000
  H   H2        1.0  0.075948081012136  0.6123991477835844  0.15201288144321276  1.0000
  H   H3        1.0  0.9240990281375194  0.8876604123511104  0.3479316024992085  1.0000
  H   H4        1.0  0.07585592018177337  0.8479170709135107  0.38770815799041014  1.0000
  H   H5        1.0  0.0759654157051061  0.46352055613516563  0.7720856922088546  1.0000
  H   H6        1.0  0.9240639720622287  0.2720502752140633  0.9635559461972675  1.0000
  H   H7        1.0  0.07586360029566214  0.22795852304668068  0.5364396853433605  1.0000
  H   H8        1.0  0.9241021359911414  0.03645080625882715  0.7279423083141623  1.0000
  H   H9        1.0  0.7356107146775203  0.4635542303260465  0.11232267506088084  1.0000
  H   H10       1.0  0.7356063692016266  0.2720492781568069  0.15206850081519002  1.0000
  H   H11       1.0  0.26439840259160974  0.22794598685674575  0.3479871476691799  1.0000
  H   H12       1.0  0.2643912079184716  0.03647454729092912  0.3875610022797744  1.0000
  H   H13       1.0  0.26440066181911714  0.6123056463474513  0.9635525892484936  1.0000
  H   H14       1.0  0.264389090787809  0.6520644155011723  0.7720366491330283  1.0000
  H   H15       1.0  0.735613466181235  0.8479966145517466  0.7279512017817354  1.0000
  H   H16       1.0  0.7356002465086392  0.8875737179678111  0.5364723581783508  1.0000
  H   H17       1.0  0.08025658833930993  0.6233076287523643  0.2606552843137707  1.0000
  H   H18       1.0  0.08670543577411398  0.7037847424546088  0.24852506679518888  1.0000
  H   H19       1.0  0.14312094270840703  0.7021843618651005  0.18148849481996637  1.0000
  H   H20       1.0  0.9197337119399762  0.7605921776357503  0.12331357290818101  1.0000
  H   H21       1.0  0.9132746456252576  0.7484705857783137  0.2037965788136306  1.0000
  H   H22       1.0  0.8568610446558513  0.6814297003811164  0.2021915726550744  1.0000
  H   H23       1.0  0.14306627715300374  0.8184584905210243  0.2975573494416326  1.0000
  H   H24       1.0  0.08628754060335814  0.7509720973279173  0.2967552481604727  1.0000
  H   H25       1.0  0.08041393149665062  0.7395966112756797  0.3768460132215096  1.0000
  H   H26       1.0  0.8568802175737392  0.7974749224620369  0.3184856297797082  1.0000
  H   H27       1.0  0.913673928777051  0.7966959038576108  0.2509975903870016  1.0000
  H   H28       1.0  0.9195354206144023  0.8767727174005345  0.23963373286771633  1.0000
  H   H29       1.0  0.919745964830625  0.15909992875327825  0.9569576524316048  1.0000
  H   H30       1.0  0.9132916374222335  0.16478089317722336  0.8829268382280943  1.0000
  H   H31       1.0  0.8568791458427469  0.17540343745850587  0.9409433445818395  1.0000
  H   H32       1.0  0.08027812254250924  0.45692730449002994  0.6591424726105971  1.0000
  H   H33       1.0  0.08672566391236099  0.3829019069862412  0.6648112052437369  1.0000
  H   H34       1.0  0.14314587196482623  0.44091048161728  0.6754432414458053  1.0000
  H   H35       1.0  0.856881271152659  0.05941123779862784  0.8246051418611845  1.0000
  H   H36       1.0  0.9136759614427207  0.11697950784989797  0.8353121783620594  1.0000
  H   H37       1.0  0.9195334208800503  0.04276200512722978  0.8408142613891486  1.0000
  H   H38       1.0  0.14307028349551834  0.3246143338942246  0.5594044576880607  1.0000
  H   H39       1.0  0.08628806275483919  0.3353186250810865  0.616979790170241  1.0000
  H   H40       1.0  0.08041960502114888  0.34082833649250693  0.5427561538856125  1.0000
  H   H41       1.0  0.615978299597792  0.17538529917005258  0.1815117720239101  1.0000
  H   H42       1.0  0.5477059864673564  0.16468711801514493  0.24900034458764259  1.0000
  H   H43       1.0  0.6164223026584282  0.15918498528796474  0.2603711983768733  1.0000
  H   H44       1.0  0.6159933394784929  0.440594146399647  0.20249172128696816  1.0000
  H   H45       1.0  0.5477111232912862  0.38302201102138866  0.20327580100474313  1.0000
  H   H46       1.0  0.6164235377283234  0.45723977762698087  0.12319453440093038  1.0000
  H   H47       1.0  0.383925601236662  0.04306804315976357  0.3766427080738168  1.0000
  H   H48       1.0  0.4522841823688922  0.11709469260191696  0.2961671520577056  1.0000
  H   H49       1.0  0.383641204240334  0.05908714741057955  0.29775636389236837  1.0000
  H   H50       1.0  0.38394884951529207  0.3408986930803407  0.23933684431310828  1.0000
  H   H51       1.0  0.45229790995776403  0.3352184441482605  0.2514734443208156  1.0000
  H   H52       1.0  0.3836586137905371  0.32459694698846425  0.31850860936990705  1.0000
  H   H53       1.0  0.38401464337118824  0.6815130385719856  0.6753705515106745  1.0000
  H   H54       1.0  0.45228740940910944  0.7490014745074802  0.6646781960518099  1.0000
  H   H55       1.0  0.3835701375683629  0.760364017808513  0.6591763004046243  1.0000
  H   H56       1.0  0.3840212114981228  0.7024661319962462  0.9406003512208799  1.0000
  H   H57       1.0  0.452300998859208  0.7032616477500966  0.8830244792130915  1.0000
  H   H58       1.0  0.3835905717189406  0.6231756586804097  0.957242075783512  1.0000
  H   H59       1.0  0.616063826166098  0.8766642772690008  0.5430649021683679  1.0000
  H   H60       1.0  0.5477076556292746  0.796185824368351  0.6170871038021204  1.0000
  H   H61       1.0  0.6163448592309423  0.797785040508991  0.5590734472236749  1.0000
  H   H62       1.0  0.6160690235277286  0.7393580972112445  0.8408995199806456  1.0000
  H   H63       1.0  0.54771724434697  0.7514867218204557  0.8352227484436554  1.0000
  H   H64       1.0  0.616363129169351  0.8185241216364222  0.8245987364175632  1.0000
  C   C1        1.0  0.1824447891761807  0.09123557521372308  0.40876572234000724  1.0000
  C   C2        1.0  0.9999863384526935  0.13661450723768812  0.3633789457058326  1.0000
  C   C3        1.0  0.9999825026194813  0.9087731714685886  0.40878627782613114  1.0000
  C   C4        1.0  0.8175564764472728  0.9087584274095948  0.5912369442585473  1.0000
  C   C5        1.0  1.870747141940433e-05  0.8633874357497933  0.6366165082735833  1.0000
  C   C6        1.0  0.9999956684760392  0.09123173537661716  0.5912161469303854  1.0000
  C   C7        1.0  0.9999978400603313  0.5912000570406234  0.0912418432342364  1.0000
  C   C8        1.0  0.999992462637245  0.36337662339248283  0.13662922191233673  1.0000
  C   C9        1.0  0.8175553937650124  0.4087753656979914  0.09121139783340478  1.0000
  C   C10       1.0  1.0056132325037326e-05  0.4087579226895314  0.9087965095741951  1.0000
  C   C11       1.0  0.9999911153284204  0.6366179054503931  0.8633819355274852  1.0000
  C   C12       1.0  0.18244479548233292  0.5912170314266164  0.9087662585035828  1.0000
  C   C13       1.0  1.100207823165397e-05  0.8052712399229663  0.6947287705508886  1.0000
  C   C14       1.0  0.9999997873955025  0.6947329860076792  0.8052677273049511  1.0000
  C   C15       1.0  0.9570895822677625  0.7769885991990931  0.7659133409809654  1.0000
  C   C16       1.0  0.04291964704998458  0.7230145870351308  0.7340836205344984  1.0000
  C   C17       1.0  0.9570862978036843  0.7230040999296179  0.8199006344834743  1.0000
  C   C18       1.0  0.04292268984747962  0.776999365087093  0.6800967088133875  1.0000
  C   C19       1.0  0.99998635323  0.19472821683412894  0.3052704099357726  1.0000
  C   C20       1.0  0.9999961149320102  0.3052704024000407  0.19473998942089565  1.0000
  C   C21       1.0  0.9570838193267621  0.18010016645234106  0.2769804623546506  1.0000
  C   C22       1.0  0.042897399568637716  0.31989858623911266  0.2230306644311426  1.0000
  C   C23       1.0  0.9570874117444249  0.23408809699357397  0.22299716525463242  1.0000
  C   C24       1.0  0.04289385099018972  0.2659096585934151  0.2770130856545592  1.0000
  C   C25       1.0  0.9999963104117031  0.628557498740591  0.1286024611386267  1.0000
  C   C26       1.0  0.9571556510060193  0.6573694866922182  0.13513948491648609  1.0000
  C   C27       1.0  0.9562502347047472  0.692535852373567  0.16979643394309807  1.0000
  C   C28       1.0  0.9999804194549501  0.6990143410562624  0.19907341746117185  1.0000
  C   C29       1.0  0.043727004583388435  0.6697620694055004  0.19259268731696721  1.0000
  C   C30       1.0  0.04283396353956472  0.6351098552900326  0.15742141406634863  1.0000
  C   C31       1.0  0.999968885321927  0.7346009244066918  0.2346780149513422  1.0000
  C   C32       1.0  0.9999637266630972  0.7653204282171941  0.26540137153966  1.0000
  C   C33       1.0  0.9999672232828449  0.8009199565360563  0.30099253961944317  1.0000
  C   C34       1.0  0.9562757132583928  0.8302427109482197  0.30740445646799947  1.0000
  C   C35       1.0  0.9571707977686549  0.864895407613986  0.34257575895509973  1.0000
  C   C36       1.0  0.9999724285201171  0.8713978878125275  0.3714420825479151  1.0000
  C   C37       1.0  0.04277120503760991  0.842534489814227  0.3649551933940245  1.0000
  C   C38       1.0  0.043664446639873254  0.8073528328337576  0.33031383175250534  1.0000
  C   C39       1.0  2.0374376376280187e-05  0.3713988645462507  0.8714393185372914  1.0000
  C   C40       1.0  0.04286134221483471  0.4076920156369398  0.7997891570123273  1.0000
  C   C41       1.0  0.04375761736883281  0.37393908257426023  0.7637194552883741  1.0000
  C   C42       1.0  1.2249516800051068e-05  0.3009403812207196  0.8009725018746537  1.0000
  C   C43       1.0  0.9562743882677226  0.26368177535449894  0.8739740207449315  1.0000
  C   C44       1.0  0.9571770963478059  0.29974749853906957  0.9077310132369334  1.0000
  C   C45       1.0  0.9999976551291072  0.2653502226531685  0.7653722068962877  1.0000
  C   C46       1.0  0.9999822928649209  0.23463829226891172  0.7346415903514867  1.0000
  C   C47       1.0  0.9999744252565822  0.19904947889824587  0.6990412268333304  1.0000
  C   C48       1.0  0.043668409792850665  0.23631987745410757  0.6260282082684016  1.0000
  C   C49       1.0  0.042777456624442295  0.20025290193221676  0.5922727641724778  1.0000
  C   C50       1.0  0.9999794176373201  0.12859006460983124  0.6285750008119422  1.0000
  C   C51       1.0  0.9571765041492243  0.09228710291457523  0.7002359637086286  1.0000
  C   C52       1.0  0.9562800749465057  0.12603832166772824  0.7363076460178561  1.0000
  C   C53       1.0  0.7428381856129106  0.3714171363391045  0.12857654602108695  1.0000
  C   C54       1.0  0.707479441283951  0.4077178941752991  0.1350767180854079  1.0000
  C   C55       1.0  0.6376559361390477  0.3739667715014504  0.16971666036531036  1.0000
  C   C56       1.0  0.6019110722959128  0.3009561147393213  0.1990272317424059  1.0000
  C   C57       1.0  0.637654210038143  0.26368695708315937  0.19260918919153613  1.0000
  C   C58       1.0  0.7074776982455476  0.2997553731565361  0.1574368657874814  1.0000
  C   C59       1.0  0.5307218028298737  0.26536500841876187  0.2346056801980793  1.0000
  C   C60       1.0  0.46927952434177206  0.2346512191454266  0.26531413275657917  1.0000
  C   C61       1.0  0.3980907379060312  0.19905956084453885  0.3009085704348138  1.0000
  C   C62       1.0  0.3623488059865708  0.23631693997265305  0.30739373345083726  1.0000
  C   C63       1.0  0.2925261967064899  0.20024940409521005  0.3425696320395631  1.0000
  C   C64       1.0  0.25716254731946014  0.12859695022070383  0.37138366661136507  1.0000
  C   C65       1.0  0.2925192942057394  0.09230510334887046  0.3648315693060837  1.0000
  C   C66       1.0  0.36234238274364833  0.12606048554420116  0.3301724772341004  1.0000
  C   C67       1.0  0.2571632981275373  0.628561469758843  0.8714116136558302  1.0000
  C   C68       1.0  0.29252608295319515  0.6350535976101528  0.9077180310029006  1.0000
  C   C69       1.0  0.3623486913832395  0.6696964819150254  0.8739675275538447  1.0000
  C   C70       1.0  0.3980898831476622  0.6990136358627268  0.8009549527530382  1.0000
  C   C71       1.0  0.3623445243749828  0.692598029571073  0.7636805040090169  1.0000
  C   C72       1.0  0.2925204473684462  0.6574248070985506  0.79974835674458  1.0000
  C   C73       1.0  0.4692800756906695  0.7346046195505097  0.7653620320004537  1.0000
  C   C74       1.0  0.5307222891677129  0.7653251061426262  0.7346484394862429  1.0000
  C   C75       1.0  0.6019143285954486  0.800926261990199  0.6990559673816678  1.0000
  C   C76       1.0  0.6376589051038197  0.8074118445107816  0.736316825047666  1.0000
  C   C77       1.0  0.7074826302569904  0.8425826339329419  0.7002492023432795  1.0000
  C   C78       1.0  0.7428404103183582  0.8713950945029156  0.6285970618142543  1.0000
  C   C79       1.0  0.707478673276029  0.8648478237984492  0.5923012261186998  1.0000
  C   C80       1.0  0.6376563928317723  0.8301922606649159  0.626054964820959  1.0000
  C   C81       1.0  0.09081015786996739  0.6752455106134222  0.22254425099331598  1.0000
  C   C82       1.0  0.9091717255011108  0.7224849623000792  0.17525998128886047  1.0000
  C   C83       1.0  0.09070858552083641  0.7773610411591746  0.3248905264345653  1.0000
  C   C84       1.0  0.9092393028587225  0.8248179604114014  0.2773954633757683  1.0000
  C   C85       1.0  0.909190095275399  0.1866567281341388  0.9155717319636665  1.0000
  C   C86       1.0  0.09083410367553316  0.4155408987186746  0.6866925969647399  1.0000
  C   C87       1.0  0.9092424117988502  0.0844248620253013  0.8133449597709586  1.0000
  C   C88       1.0  0.09071231949285169  0.3133555280572153  0.5844192488209288  1.0000
  C   C89       1.0  0.602228342303178  0.18665036474049393  0.2226069529959177  1.0000
  C   C90       1.0  0.6022332352251639  0.41557860392003215  0.1751478735823541  1.0000
  C   C91       1.0  0.397761569701217  0.08445553091910088  0.32469981586960023  1.0000
  C   C92       1.0  0.39777700041836533  0.3133423500349294  0.2774507871884354  1.0000
  C   C93       1.0  0.39776771631892444  0.7226051807938136  0.6866390593557129  1.0000
  C   C94       1.0  0.39777758527023377  0.6751280151431089  0.9155826448421251  1.0000
  C   C95       1.0  0.602227889412454  0.8247205361245166  0.5844484898263147  1.0000
  C   C96       1.0  0.6022387310618672  0.7774665028522707  0.8133459188864548  1.0000
  Cl  Cl1       1.0  0.902230792129885  0.8055765046871884  0.7921562977794208  1.0000
  Cl  Cl2       1.0  0.09777815167448972  0.6944279575736018  0.7078423402136736  1.0000
  Cl  Cl3       1.0  0.9022304989676329  0.6943962234507665  0.9033464875069017  1.0000
  Cl  Cl4       1.0  0.09777468721858915  0.8056050012764758  0.5966516337571761  1.0000
  Cl  Cl5       1.0  0.9022467321820645  0.09666110373623853  0.30555820899141384  1.0000
  Cl  Cl6       1.0  0.09773182839608552  0.40334071528329224  0.1944562797504688  1.0000
  Cl  Cl7       1.0  0.9022527173893381  0.2078528029701518  0.19437477164117914  1.0000
  Cl  Cl8       1.0  0.0977323030012869  0.2921481894523125  0.30563390189886525  1.0000
  O   O1        1.0  0.9999991553023125  3.345715818123191e-06  0.49999952806005143  1.0000
  O   O2        1.0  0.1532860316335629  0.02598989240981811  0.4328814660450888  1.0000
  O   O3        1.0  0.03990534615352459  0.1541591972816576  0.38568073811601533  1.0000
  O   O4        1.0  0.9588539626927287  0.9328880153083644  0.4138221405468344  1.0000
  O   O5        1.0  0.1532917440297439  0.1273182852501265  0.4138309897263923  1.0000
  O   O6        1.0  0.04112607434429806  0.9138311292893064  0.4328902053014547  1.0000
  O   O7        1.0  0.9600650843818316  0.07440076058938425  0.38574267814323077  1.0000
  O   O8        1.0  0.8467081784106228  0.9328712165053331  0.5259943894088509  1.0000
  O   O9        1.0  0.9601754036702773  0.885758654022574  0.6541650052608363  1.0000
  O   O10       1.0  0.8467190596487698  0.91380954210657  0.6273254340236392  1.0000
  O   O11       1.0  0.03986909210630073  0.8856901084574318  0.574402046612029  1.0000
  O   O12       1.0  0.04112500101547312  0.1273190201676044  0.5259724882860723  1.0000
  O   O13       1.0  0.9588779640509415  0.025981818588171262  0.6273091602030263  1.0000
  O   O14       1.0  8.944515742348989e-07  0.5000001863962994  2.7601359277396817e-06  1.0000
  O   O15       1.0  0.9588568643730683  0.586143475862194  0.06713698934422747  1.0000
  O   O16       1.0  0.03993777780616639  0.4256014182476521  0.1142504981346733  1.0000
  O   O17       1.0  0.8467076471249726  0.37268979116943524  0.08617053970316133  1.0000
  O   O18       1.0  0.04114167785059667  0.5671003273105271  0.08619034019216089  1.0000
  O   O19       1.0  0.846713053297812  0.47402515173406123  0.06709017603212429  1.0000
  O   O20       1.0  0.9600698961414127  0.34583982667575  0.11434214142296632  1.0000
  O   O21       1.0  0.958880175248659  0.37267789278228486  0.9740357918255999  1.0000
  O   O22       1.0  0.039817959889880766  0.6142297084070449  0.8458363275877688  1.0000
  O   O23       1.0  0.041136505396913436  0.4740072186033543  0.8727031920296613  1.0000
  O   O24       1.0  0.960156464903193  0.6143330484192262  0.9255963287642145  1.0000
  O   O25       1.0  0.1532928079601845  0.5671055191951311  0.9740130027487197  1.0000
  O   O26       1.0  0.15328305001925457  0.5861886069610662  0.8726752516008958  1.0000
