data_image0
_chemical_formula_structural       Zn2H24C28N8O8
_chemical_formula_sum              "Zn2 H24 C28 N8 O8"
_cell_length_a       8.307862236401201
_cell_length_b       9.860265413091426
_cell_length_c       9.97839309205449
_cell_angle_alpha    90.00024679432238
_cell_angle_beta     89.99966006186675
_cell_angle_gamma    103.96469393653906

_space_group_name_H-M_alt    "P 1"
_space_group_IT_number       1

loop_
  _space_group_symop_operation_xyz
  'x, y, z'

loop_
  _atom_site_type_symbol
  _atom_site_label
  _atom_site_symmetry_multiplicity
  _atom_site_fract_x
  _atom_site_fract_y
  _atom_site_fract_z
  _atom_site_occupancy
  Zn  Zn1       1.0  0.5973614152519247  0.3408918061514401  0.10261396556054342  1.0000
  Zn  Zn2       1.0  0.0973630264331149  0.8408909693170586  0.8973855225961599  1.0000
  H   H1        1.0  0.9066688439943391  0.6498351789083402  0.47880970114115234  1.0000
  H   H2        1.0  0.40666539487875764  0.14983526356259352  0.5211904446825316  1.0000
  H   H3        1.0  0.72475237829277  0.4068193572975788  0.415445723585293  1.0000
  H   H4        1.0  0.22475413266248276  0.9068196510166971  0.5845574231249486  1.0000
  H   H5        1.0  0.12593673198060176  0.5352108123530784  0.9345951995550267  1.0000
  H   H6        1.0  0.6259365551633849  0.035211532147521006  0.0654058486730946  1.0000
  H   H7        1.0  0.9775565047476533  0.35964250205986303  0.1120785151206647  1.0000
  H   H8        1.0  0.4775575758199865  0.8596437285177321  0.8879241791591356  1.0000
  H   H9        1.0  0.27620341604143317  0.6339902489870611  0.2334831519100149  1.0000
  H   H10       1.0  0.7762045927810846  0.13399207306435565  0.7665175730307823  1.0000
  H   H11       1.0  0.22478024449332426  0.238030382580405  0.21267146824538227  1.0000
  H   H12       1.0  0.7247805722725503  0.7380312512412817  0.7873279513726743  1.0000
  H   H13       1.0  0.4335794332254892  0.5346927902408894  0.917478453563568  1.0000
  H   H14       1.0  0.9335800509527133  0.0346925153915691  0.0825230716994483  1.0000
  H   H15       1.0  0.6555251079479661  0.011917036879587799  0.489857835386502  1.0000
  H   H16       1.0  0.15553182989639686  0.511911864204116  0.5101409623747344  1.0000
  H   H17       1.0  0.44677897996724175  0.5732160728198893  0.41955965438778264  1.0000
  H   H18       1.0  0.9467807045414603  0.07321105066037602  0.5804429720271216  1.0000
  H   H19       1.0  0.9641300624201817  0.8093603475329022  0.2714248041080438  1.0000
  H   H20       1.0  0.4641241259207405  0.30936525633976697  0.7285727313037071  1.0000
  H   H21       1.0  0.8043234672030125  0.6451365377055539  0.0598607250674732  1.0000
  H   H22       1.0  0.3043198242231071  0.14514209158883776  0.9401399080704563  1.0000
  H   H23       1.0  0.6360517373862892  0.7636112048071055  0.5490864591002449  1.0000
  H   H24       1.0  0.13605804213678144  0.26360582642550423  0.45091350953426007  1.0000
  C   C1        1.0  0.768616329101576  0.49305479817734016  0.3468225252302304  1.0000
  C   C2        1.0  0.26861735986198454  0.99305844093324  0.6531797699656536  1.0000
  C   C3        1.0  0.4768263998132484  0.9626247050694734  0.32965916218971364  1.0000
  C   C4        1.0  0.9768290704477137  0.4626210027133055  0.6703369601089548  1.0000
  C   C5        1.0  0.503300175395502  0.11377538143700153  0.2913374877131218  1.0000
  C   C6        1.0  0.0033044650732350148  0.613775005593155  0.708660495134481  1.0000
  C   C7        1.0  0.36889546023314074  0.8555928465826952  0.2571104458563269  1.0000
  C   C8        1.0  0.8688964818648942  0.3555935527722411  0.7428877589766145  1.0000
  C   C9        1.0  0.10849318243175081  0.3781510046371254  0.08984967433892173  1.0000
  C   C10       1.0  0.6084939495127771  0.8781522495357379  0.9101529241748025  1.0000
  C   C11       1.0  0.2588950570665177  0.8891290182503445  0.14834377820081104  1.0000
  C   C12       1.0  0.7588972094653174  0.38913214745804947  0.851652108591189  1.0000
  C   C13       1.0  0.35942528062428636  0.7159162724995269  0.2907729059916094  1.0000
  C   C14       1.0  0.8594265115639105  0.2159168749298318  0.7092257517539267  1.0000
  C   C15       1.0  0.23094704794996093  0.32002925994846276  0.1392149107097751  1.0000
  C   C16       1.0  0.7309490229599476  0.8200293052780624  0.8607858305029269  1.0000
  C   C17       1.0  0.34350213149632225  0.4712255298304983  0.9847368658244735  1.0000
  C   C18       1.0  0.8435015468919079  0.9712250755077254  0.015264964957893302  1.0000
  C   C19       1.0  0.5712635204631623  0.9283482710662695  0.4349894417893836  1.0000
  C   C20       1.0  0.07126941780839503  0.4283442894245156  0.5650075425304237  1.0000
  C   C21       1.0  0.45414043731504716  0.6824935874108179  0.39562615600832635  1.0000
  C   C22       1.0  0.9541429191640634  0.18249177418693566  0.6043738938650378  1.0000
  C   C23       1.0  0.8913380244917165  0.7022537219310935  0.2688431779544374  1.0000
  C   C24       1.0  0.39133297291618174  0.20225759129078116  0.7311542611293262  1.0000
  C   C25       1.0  0.8128527415549699  0.6209855019237764  0.1651120681486589  1.0000
  C   C26       1.0  0.3128467429544344  0.12098864596920582  0.8348884196208743  1.0000
  C   C27       1.0  0.5601784869675441  0.7888191477421175  0.468023548555351  1.0000
  C   C28       1.0  0.06018248573125361  0.2888161140326205  0.5319748994846023  1.0000
  N   N1        1.0  0.862185125804537  0.6196535711209991  0.38167987937568887  1.0000
  N   N2        1.0  0.36218318183257037  0.11965708798408066  0.6183203581433646  1.0000
  N   N3        1.0  0.37717706257345185  0.3790558314298452  0.0722229257765434  1.0000
  N   N4        1.0  0.8771759130022756  0.8790550428935973  0.9277773424847879  1.0000
  N   N5        1.0  0.7366634512803288  0.49039620708049375  0.21527837235663577  1.0000
  N   N6        1.0  0.23666396613836588  0.9904013003610218  0.7847250720613559  1.0000
  N   N7        1.0  0.18224083265047852  0.47238211309342426  0.9931073531701031  1.0000
  N   N8        1.0  0.6822406021177869  0.9723826780269537  0.006895281972795401  1.0000
  O   O1        1.0  0.5600148387164693  0.14511331227286214  0.1717349901618874  1.0000
  O   O2        1.0  0.06002048869941494  0.6451122553340414  0.828262845292187  1.0000
  O   O3        1.0  0.4803180424547548  0.20348343929632057  0.37385402832726566  1.0000
  O   O4        1.0  0.980320273428724  0.7034827637272232  0.6261439770414299  1.0000
  O   O5        1.0  0.1965343081538081  0.9921966818464373  0.1605505269402414  1.0000
  O   O6        1.0  0.6965377394537883  0.4921997710810688  0.8394461089264953  1.0000
  O   O7        1.0  0.23428275096537027  0.8029038336081558  0.0482253304402889  1.0000
  O   O8        1.0  0.7342818748239425  0.302907276118745  0.9517733168213168  1.0000
