data_image0
_chemical_formula_structural       Ag2H48C44N10O6
_chemical_formula_sum              "Ag2 H48 C44 N10 O6"
_cell_length_a       7.8159640593671025
_cell_length_b       12.171487389295399
_cell_length_c       12.310676912473914
_cell_angle_alpha    80.7151286480843
_cell_angle_beta     72.1287757877387
_cell_angle_gamma    71.31637995304486

_space_group_name_H-M_alt    "P 1"
_space_group_IT_number       1

loop_
  _space_group_symop_operation_xyz
  'x, y, z'

loop_
  _atom_site_type_symbol
  _atom_site_label
  _atom_site_symmetry_multiplicity
  _atom_site_fract_x
  _atom_site_fract_y
  _atom_site_fract_z
  _atom_site_occupancy
  Ag  Ag1       1.0  0.669069710627191  0.24984140568981414  0.7490395544057762  1.0000
  Ag  Ag2       1.0  0.3309287944732516  0.7501588972178084  0.2509606839456636  1.0000
  H   H1        1.0  0.7440770812157352  0.8615930816224731  0.030807841505676895  1.0000
  H   H2        1.0  0.6365888940454311  0.6385803882862503  0.46871461215211235  1.0000
  H   H3        1.0  0.2559207534977117  0.13840635186028288  0.9691921785698911  1.0000
  H   H4        1.0  0.36341081800900815  0.36142078404623124  0.5312880144808361  1.0000
  H   H5        1.0  0.6579805427179081  0.009602797587184898  0.7270402435752176  1.0000
  H   H6        1.0  0.3996191993758272  0.4894914131617014  0.7706829024307069  1.0000
  H   H7        1.0  0.34201702371203874  0.9903966358955784  0.2729586914975286  1.0000
  H   H8        1.0  0.6003770188232236  0.5105097591707803  0.22931780491231984  1.0000
  H   H9        1.0  0.6371236618780711  0.881491608410883  0.8161707493123985  1.0000
  H   H10       1.0  0.3381324630297581  0.6177054973792052  0.6815233751673945  1.0000
  H   H11       1.0  0.3628756528296435  0.1185069556470211  0.18382960867870682  1.0000
  H   H12       1.0  0.661866712457666  0.3822956749532763  0.31847708145991055  1.0000
  H   H13       1.0  0.8622221215642722  0.8942991060348575  0.7371411564646877  1.0000
  H   H14       1.0  0.49725794716545796  0.6050527573804416  0.7622022282210567  1.0000
  H   H15       1.0  0.13777719314344236  0.1056994580230395  0.2628592015264104  1.0000
  H   H16       1.0  0.5027374641264684  0.3949484149520401  0.2377992860290945  1.0000
  H   H17       1.0  0.9160984755228938  0.0449118800327071  0.1614714797559884  1.0000
  H   H18       1.0  0.11948000551032567  0.4552743283413108  0.3411940485912623  1.0000
  H   H19       1.0  0.08389976129404154  0.9550884228749152  0.8385276735926227  1.0000
  H   H20       1.0  0.8805187678736174  0.5447259745663118  0.6588072747629995  1.0000
  H   H21       1.0  0.7589128480555516  0.9597937502213937  0.21711135556660816  1.0000
  H   H22       1.0  0.9333386609742576  0.5404988308932559  0.2834725487821004  1.0000
  H   H23       1.0  0.2410884852700476  0.040203944411644  0.7828874484300742  1.0000
  H   H24       1.0  0.06665890069892531  0.4595023414392258  0.716529521659446  1.0000
  H   H25       1.0  0.6715747102964258  0.11402420106490038  0.2075980979765149  1.0000
  H   H26       1.0  0.9907228284322759  0.38632024263377923  0.2928298099952685  1.0000
  H   H27       1.0  0.3284250092149249  0.8859734935681374  0.7924023198344231  1.0000
  H   H28       1.0  0.00927500152440774  0.6136809296987025  0.7071733454490997  1.0000
  H   H29       1.0  0.8798361906732379  0.2622333182303436  0.9045217775657478  1.0000
  H   H30       1.0  0.0476948726337412  0.2379815811640782  0.5965002035048244  1.0000
  H   H31       1.0  0.12016312133432892  0.737766984677279  0.0954776538785609  1.0000
  H   H32       1.0  0.9523030911429301  0.7620204605932699  0.40350100020977214  1.0000
  H   H33       1.0  0.8361492446310949  0.2313913407194548  0.05396967747815037  1.0000
  H   H34       1.0  0.1193282946179791  0.26874357158777673  0.4471033040450934  1.0000
  H   H35       1.0  0.16385087698374393  0.7686072233384493  0.9460298736058236  1.0000
  H   H36       1.0  0.880672085123294  0.7312602090192897  0.5528986143169307  1.0000
  H   H37       1.0  0.42492047309696784  0.2191654883273273  0.03211692110512837  1.0000
  H   H38       1.0  0.674825707622176  0.28038951759776853  0.4680721663753645  1.0000
  H   H39       1.0  0.5750784368071107  0.780833945155436  0.9678833770661373  1.0000
  H   H40       1.0  0.32517790244775546  0.7196125241595721  0.5319274509049521  1.0000
  H   H41       1.0  0.11926637974493559  0.3723772761416342  0.0694315809484962  1.0000
  H   H42       1.0  0.5586850328448136  0.1269429850710537  0.43063237624005524  1.0000
  H   H43       1.0  0.8807337418699033  0.6276212879162628  0.9305679701354848  1.0000
  H   H44       1.0  0.4413201910393594  0.8730590566862871  0.5693656272260057  1.0000
  H   H45       1.0  0.8935857939599428  0.421992744671101  0.9415936603689518  1.0000
  H   H46       1.0  0.2588124465912784  0.0785342782483411  0.5584687869859479  1.0000
  H   H47       1.0  0.1064147324585321  0.5780049499619437  0.0584059505348549  1.0000
  H   H48       1.0  0.7411923751894135  0.9214668940841476  0.44153008320707704  1.0000
  C   C1        1.0  0.7326175278408583  0.9964504412011053  0.883128846286489  1.0000
  C   C2        1.0  0.6140917851350093  0.5033413511937397  0.61592916002121  1.0000
  C   C3        1.0  0.26738299587746894  0.0035489922816581  0.11686983807052802  1.0000
  C   C4        1.0  0.38590913863018966  0.4966589517138757  0.38407271952444694  1.0000
  C   C5        1.0  0.7470671057410024  0.9482269218737329  0.9933793640594856  1.0000
  C   C6        1.0  0.6891361723415698  0.5518961213930709  0.5062569674215283  1.0000
  C   C7        1.0  0.25293234548684046  0.0517707727593049  0.006619968748623286  1.0000
  C   C8        1.0  0.3108626010423661  0.4481041815145516  0.4937443559327336  1.0000
  C   C9        1.0  0.7621112846778573  0.03543775732491379  0.047701855715743605  1.0000
  C   C10       1.0  0.8445129708180655  0.4647519287485408  0.45251552915141957  1.0000
  C   C11       1.0  0.23788816654999315  0.964559937308124  0.9522974770923653  1.0000
  C   C12       1.0  0.15548606814922988  0.5352501130088  0.5474859526588746  1.0000
  C   C13       1.0  0.7213385348846512  0.9426886855106388  0.7859123560259675  1.0000
  C   C14       1.0  0.4534328202355768  0.5566857829510425  0.7125027898109053  1.0000
  C   C15       1.0  0.27866010673592007  0.05731074797212439  0.21408685714247613  1.0000
  C   C16       1.0  0.5465667600554909  0.4433145199565799  0.2874977266362251  1.0000
  C   C17       1.0  0.7775337564692179  0.038742441220698295  0.1644277985469529  1.0000
  C   C18       1.0  0.9784664510482627  0.4615802668564583  0.3365397364169382  1.0000
  C   C19       1.0  0.22246528995498926  0.9612561228372057  0.8355714744413235  1.0000
  C   C20       1.0  0.021531917532044306  0.5384209054760234  0.6634615271174839  1.0000
  C   C21       1.0  0.7753819592507796  0.24169489474441966  0.9819677685961851  1.0000
  C   C22       1.0  0.9986949652623592  0.2583817660971448  0.5186311252303213  1.0000
  C   C23       1.0  0.22461883275104813  0.7583045387383436  0.01803200076365392  1.0000
  C   C24       1.0  0.0013051461954204113  0.7416220145099215  0.48136970812887375  1.0000
  C   C25       1.0  0.5888657595789792  0.4554647323858134  0.9894276708397954  1.0000
  C   C26       1.0  0.034111325186117314  0.044581498585614596  0.5105188650130685  1.0000
  C   C27       1.0  0.41113543722648416  0.5445338316720835  0.010572158339876084  1.0000
  C   C28       1.0  0.9658965850027881  0.955422282021452  0.489476876187652  1.0000
  C   C29       1.0  0.5901300479273387  0.3366073985199094  0.00022637043431217153  1.0000
  C   C30       1.0  0.9265959409595652  0.163335370893094  0.49985988589652663  1.0000
  C   C31       1.0  0.40987034197100036  0.6633911655379947  0.9997742656524835  1.0000
  C   C32       1.0  0.07340954850796765  0.8366684097139724  0.5001382760255737  1.0000
  C   C33       1.0  0.4224236615986285  0.30950394791031494  0.028465723019507984  1.0000
  C   C34       1.0  0.7591149036778474  0.1901301756771119  0.4717286897574979  1.0000
  C   C35       1.0  0.5775773986866991  0.6904954855724412  0.9715351313431596  1.0000
  C   C36       1.0  0.24089180020059298  0.8098709966553699  0.5282696516241003  1.0000
  C   C37       1.0  0.24882732087879592  0.3967194333934286  0.04889876626127432  1.0000
  C   C38       1.0  0.6925055089349498  0.1027929707134945  0.45136487275828335  1.0000
  C   C39       1.0  0.7511719938289186  0.6032791306644754  0.9511015917298309  1.0000
  C   C40       1.0  0.3074976990314934  0.8972082016189872  0.5486356112489901  1.0000
  C   C41       1.0  0.7576257942478501  0.4879534005830024  0.9591419199976768  1.0000
  C   C42       1.0  0.2061568676265465  0.012445816881900397  0.5406355629233275  1.0000
  C   C43       1.0  0.24237446118696931  0.5120460328997538  0.04085567935651817  1.0000
  C   C44       1.0  0.7938498335517463  0.9875570943003067  0.45936185191147433  1.0000
  N   N1        1.0  0.7592023600650887  0.12907655367938278  0.9703565375129131  1.0000
  N   N2        1.0  0.8587490913791314  0.3709175118004068  0.5297122383045904  1.0000
  N   N3        1.0  0.24079668635911838  0.8709220103785213  0.029642735475363162  1.0000
  N   N4        1.0  0.14125035239180048  0.6290836605320748  0.4702893033255293  1.0000
  N   N5        1.0  0.7387527208189727  0.10725398967409919  0.870632425208548  1.0000
  N   N6        1.0  0.7182999739253475  0.392511417067304  0.628678689390796  1.0000
  N   N7        1.0  0.26124592080159903  0.8927454438086639  0.1293667879598956  1.0000
  N   N8        1.0  0.2816998746492202  0.6074888858403114  0.37132291205916357  1.0000
  N   N9        1.0  0.267961907547537  0.2500891917751317  0.7500822916120882  1.0000
  N   N10       1.0  0.7320380775471662  0.7499102417076244  0.2499182846548749  1.0000
  O   O1        1.0  0.4121481378172546  0.194163437606214  0.6774046402664952  1.0000
  O   O2        1.0  0.28662673655028187  0.30675917362486865  0.8218513937113983  1.0000
  O   O3        1.0  0.5878515789939415  0.8058359958765493  0.32259485099764623  1.0000
  O   O4        1.0  0.7133728464409329  0.6932393904330282  0.17815004928252884  1.0000
  O   O5        1.0  0.10577960835291836  0.24933887812029096  0.7509370185643647  1.0000
  O   O6        1.0  0.8942193015511606  0.7506605553624721  0.24906327960690078  1.0000
