data_image0
_chemical_formula_structural       Zn2H10C26N2O8
_chemical_formula_sum              "Zn2 H10 C26 N2 O8"
_cell_length_a       12.736115361383625
_cell_length_b       13.993754810082104
_cell_length_c       16.107020258222093
_cell_angle_alpha    90.00938237422537
_cell_angle_beta     86.9262636755256
_cell_angle_gamma    86.89650584040969

_space_group_name_H-M_alt    "P 1"
_space_group_IT_number       1

loop_
  _space_group_symop_operation_xyz
  'x, y, z'

loop_
  _atom_site_type_symbol
  _atom_site_label
  _atom_site_symmetry_multiplicity
  _atom_site_fract_x
  _atom_site_fract_y
  _atom_site_fract_z
  _atom_site_occupancy
  Zn  Zn1       1.0  0.6083168570612114  0.5073633849727059  0.49433954307406947  1.0000
  Zn  Zn2       1.0  0.3916847748606925  0.4926376422273364  0.5056672686562892  1.0000
  H   H1        1.0  0.42212480606936237  0.35620226519841214  0.9491116879944954  1.0000
  H   H2        1.0  0.0066406465056374165  0.5796895762508071  0.4326259390399017  1.0000
  H   H3        1.0  0.5778868407387063  0.6438017014659749  0.0508959678940357  1.0000
  H   H4        1.0  0.5986408563048469  0.35786475639747556  0.04956090639252861  1.0000
  H   H5        1.0  0.4013677506286584  0.642137754770879  0.9504456285649284  1.0000
  H   H6        1.0  0.31606816120457637  0.4980179021009761  0.053660051974034714  1.0000
  H   H7        1.0  0.6839422057857831  0.5019817594547148  0.9463482762833593  1.0000
  H   H8        1.0  0.6207544345494753  0.9814396104569381  0.49343802152495203  1.0000
  H   H9        1.0  0.3792160561094704  0.018557597090179498  0.5065588500787895  1.0000
  H   H10       1.0  0.9933606471634985  0.42031929348568303  0.5673355625363783  1.0000
  C   C1        1.0  0.5370423513292124  0.314275715420159  0.4982263980373035  1.0000
  C   C2        1.0  0.859651189048911  0.5283790616632729  0.4802858994042722  1.0000
  C   C3        1.0  0.50485970984667  0.5006126717707459  0.6612459549178453  1.0000
  C   C4        1.0  0.4951508100788827  0.4993848420783991  0.3387611259652843  1.0000
  C   C5        1.0  0.5549592867907476  0.42097930616993307  0.026562476493609197  1.0000
  C   C6        1.0  0.4450468696602953  0.5790246178917258  0.973442913646281  1.0000
  C   C7        1.0  0.45655792712629034  0.42006303979207615  0.9726734245169697  1.0000
  C   C8        1.0  0.5434517030764354  0.579935900274485  0.0273349330793735  1.0000
  C   C9        1.0  0.5055537790513112  0.5006023857344672  0.750807268042756  1.0000
  C   C10       1.0  0.49443959804126775  0.4993928523885528  0.24920049282936668  1.0000
  C   C11       1.0  0.6022395016489311  0.5011297538407007  0.970835294924548  1.0000
  C   C12       1.0  0.46298139291123847  0.6857240432638534  0.5017776747953349  1.0000
  C   C13       1.0  0.3977690014812295  0.49887418940078737  0.02917248558969731  1.0000
  C   C14       1.0  0.5041502058075409  0.5002031088303198  0.9144467129000732  1.0000
  C   C15       1.0  0.4958544251665628  0.49980008828965344  0.08555935869610921  1.0000
  C   C16       1.0  0.5055945391853099  0.5004753691746657  0.8265141309710202  1.0000
  C   C17       1.0  0.4944056655233381  0.4995234998168812  0.1734933585806502  1.0000
  C   C18       1.0  0.45293098014752087  0.7891285274446532  0.5025378616062568  1.0000
  C   C19       1.0  0.5470694105442248  0.21087964499255912  0.4974609269635408  1.0000
  C   C20       1.0  0.45428728590055556  0.9765458168365411  0.5025226371840361  1.0000
  C   C21       1.0  0.5456788276247833  0.023446346948745093  0.4974756505577248  1.0000
  C   C22       1.0  0.5473945522283044  0.12361600762260849  0.49739934535311653  1.0000
  C   C23       1.0  0.4525862728462967  0.8763912979501355  0.5025927687790245  1.0000
  C   C24       1.0  0.9707172809359575  0.5295174478413216  0.4760467228774985  1.0000
  C   C25       1.0  0.02928090452802929  0.47047922886453364  0.5239180083882573  1.0000
  C   C26       1.0  0.14034955255557688  0.4716255172866894  0.5196892835635439  1.0000
  N   N1        1.0  0.768447579248054  0.5275947631276311  0.4835743405454522  1.0000
  N   N2        1.0  0.23155590894964456  0.4724026919725474  0.5164237063318922  1.0000
  O   O1        1.0  0.6213725593440528  0.359438876125779  0.4943865593590999  1.0000
  O   O2        1.0  0.3786304563889613  0.6405535681196567  0.5056183365222966  1.0000
  O   O3        1.0  0.4427001527198156  0.3502547408202616  0.5028103251140266  1.0000
  O   O4        1.0  0.5573113300737376  0.6497513751633122  0.4972010619924063  1.0000
  O   O5        1.0  0.5937987705704371  0.5048305412203362  0.6213965732412703  1.0000
  O   O6        1.0  0.4061907260566001  0.4951639519906621  0.37861134159551574  1.0000
  O   O7        1.0  0.4151701369091753  0.49630354132812465  0.6301667817095764  1.0000
  O   O8        1.0  0.5848140740076528  0.5036995015272153  0.3698369951492282  1.0000
