data_image0
_chemical_formula_structural       Zn24H48C48O96
_chemical_formula_sum              "Zn24 H48 C48 O96"
_cell_length_a       9.879575467000063
_cell_length_b       18.14810630900009
_cell_length_c       18.270654728000046
_cell_angle_alpha    90.00000409358766
_cell_angle_beta     89.99999275021095
_cell_angle_gamma    90.00001074632378

_space_group_name_H-M_alt    "P 1"
_space_group_IT_number       1

loop_
  _space_group_symop_operation_xyz
  'x, y, z'

loop_
  _atom_site_type_symbol
  _atom_site_label
  _atom_site_symmetry_multiplicity
  _atom_site_fract_x
  _atom_site_fract_y
  _atom_site_fract_z
  _atom_site_occupancy
  Zn  Zn1       1.0  0.9235205338328002  0.9372295384363694  0.6789811429752962  1.0000
  Zn  Zn2       1.0  0.5764792033476455  0.4372291486184637  0.8210187399599038  1.0000
  Zn  Zn3       1.0  0.07647901216944321  0.5627700400457628  0.6789811586699276  1.0000
  Zn  Zn4       1.0  0.4235211494310392  0.06277023670312332  0.8210187319114444  1.0000
  Zn  Zn5       1.0  0.07647896796764542  0.0627702009854474  0.3210185995079443  1.0000
  Zn  Zn6       1.0  0.4235213106419737  0.5627705908034172  0.17898154984906264  1.0000
  Zn  Zn7       1.0  0.9235204896309313  0.4372296993760685  0.3210191311390745  1.0000
  Zn  Zn8       1.0  0.5764793645586437  0.9372295027187436  0.17898101057176066  1.0000
  Zn  Zn9       1.0  0.10877584349051973  0.037124017376690716  0.7858103702254698  1.0000
  Zn  Zn10      1.0  0.39122430927886853  0.5371244064289301  0.7141895185367421  1.0000
  Zn  Zn11      1.0  0.8912235053384167  0.4628759164328073  0.7858103585596299  1.0000
  Zn  Zn12      1.0  0.6087762406733078  0.9628757256086543  0.7141895261947585  1.0000
  Zn  Zn13      1.0  0.8912236583099188  0.9628757220451195  0.2141893722577636  1.0000
  Zn  Zn14      1.0  0.6087762047109067  0.4628758840146147  0.2858102239464771  1.0000
  Zn  Zn15      1.0  0.1087770086513586  0.5371243740107375  0.21418938392358922  1.0000
  Zn  Zn16      1.0  0.3912232611272231  0.0371245648348406  0.28581021628849623  1.0000
  Zn  Zn17      1.0  4.8371447299999976e-08  0.7500000396154151  0.6901909468342499  1.0000
  Zn  Zn18      1.0  0.5000001777009899  0.24999969225744684  0.8098089570279615  1.0000
  Zn  Zn19      1.0  6.792873799999977e-09  0.2500001997484205  0.3098093771826101  1.0000
  Zn  Zn20      1.0  0.500000336288693  0.7500000471644199  0.19019078545524348  1.0000
  Zn  Zn21      1.0  4.0032084310000014e-07  6.907059460000003e-08  0.5000001100671982  1.0000
  Zn  Zn22      1.0  0.5000003154993636  0.4999998517200838  6.29405899999998e-10  1.0000
  Zn  Zn23      1.0  2.758211080000002e-08  0.49999984417107884  0.5000001620084192  1.0000
  Zn  Zn24      1.0  0.5000001124036615  6.152156830000003e-08  0.9999997241204501  1.0000
  H   H1        1.0  0.17013796546866192  0.8660220648367131  0.5220190845284594  1.0000
  H   H2        1.0  0.3298623005555187  0.3660217121998031  0.9779813748893533  1.0000
  H   H3        1.0  0.8298616172656498  0.6339780533715713  0.5220190537308869  1.0000
  H   H4        1.0  0.6701390276804632  0.13397823543906642  0.9779808076936338  1.0000
  H   H5        1.0  0.8298625485210496  0.1339782256068531  0.47798120528052845  1.0000
  H   H6        1.0  0.6701382134341004  0.6339780272220851  0.022018914919605906  1.0000
  H   H7        1.0  0.17013788453482456  0.3660222370719382  0.47798123607813664  1.0000
  H   H8        1.0  0.3298624984984572  0.8660215039828573  0.022018934789528505  1.0000
  H   H9        1.0  0.21384932418594363  0.8792956393440222  0.8294289756843658  1.0000
  H   H10       1.0  0.28615094640890965  0.37929470909761426  0.6705709373492044  1.0000
  H   H11       1.0  0.7861501866088717  0.6207045009865269  0.8294289469357995  1.0000
  H   H12       1.0  0.7138494415772243  0.12070466539724828  0.670571460872978  1.0000
  H   H13       1.0  0.7861511898037676  0.12070465109954402  0.17057131412461504  1.0000
  H   H14       1.0  0.7138505797699182  0.6207044793026242  0.32942880513394374  1.0000
  H   H15       1.0  0.2138483030023579  0.3792957894569328  0.17057134287325235  1.0000
  H   H16       1.0  0.28615006022324263  0.8792956250462611  0.3294288289360382  1.0000
  H   H17       1.0  0.7436107985699538  0.0053036529665462006  0.8706518608937305  1.0000
  H   H18       1.0  0.7563898020674885  0.5053034711169744  0.6293479914034636  1.0000
  H   H19       1.0  0.25639055478304584  0.49469683797023833  0.870652442243419  1.0000
  H   H20       1.0  0.24360975555006095  0.9946972058367225  0.6293474789760014  1.0000
  H   H21       1.0  0.2563897154199211  0.9946971884986767  0.12934788158950997  1.0000
  H   H22       1.0  0.24360969973289312  0.49469626830485697  0.3706522984055313  1.0000
  H   H23       1.0  0.7436099592065731  0.5053029014516427  0.12934784756554765  1.0000
  H   H24       1.0  0.7563897462505339  0.005303084606744301  0.3706517161814987  1.0000
  H   H25       1.0  0.04313743002163761  0.1527718884075071  0.661344119951963  1.0000
  H   H26       1.0  0.4568627625706939  0.6527717421006474  0.8386552296877743  1.0000
  H   H27       1.0  0.9568619479345986  0.3472280364449959  0.6613446429178824  1.0000
  H   H28       1.0  0.5431367460648461  0.8472278478722047  0.8386557809590018  1.0000
  H   H29       1.0  0.9568620717789644  0.8472284020359668  0.3386550752055372  1.0000
  H   H30       1.0  0.5431377514189891  0.3472279973212197  0.16134451279543077  1.0000
  H   H31       1.0  0.0431365416766312  0.6527722539984638  0.3386556468911694  1.0000
  H   H32       1.0  0.4568627557355925  0.1527718915496123  0.16134396152423144  1.0000
  H   H33       1.0  0.7013945592940873  0.7501339736302627  0.6879660436279951  1.0000
  H   H34       1.0  0.7986061256499754  0.25013470790145936  0.8120343733616483  1.0000
  H   H35       1.0  0.2986059967948265  0.7498656054984921  0.6879655100712443  1.0000
  H   H36       1.0  0.20139422923130476  0.24986522779526146  0.8120343937814316  1.0000
  H   H37       1.0  0.29860595469553186  0.2498657657916254  0.3120342461809715  1.0000
  H   H38       1.0  0.20139438833973602  0.7498655825421068  0.18796591644733956  1.0000
  H   H39       1.0  0.7013945171949489  0.25013468494505275  0.3120342324119748  1.0000
  H   H40       1.0  0.7986062847583143  0.7501345116266267  0.18796589602753505  1.0000
  H   H41       1.0  0.5997758778968462  0.9888326973642239  0.5476092901351068  1.0000
  H   H42       1.0  0.9002238770529234  0.4888323500738709  0.9523911437862442  1.0000
  H   H43       1.0  0.4002236988488903  0.511167422685624  0.5476092800201402  1.0000
  H   H44       1.0  0.09977543279315172  0.011167595723328804  0.9523906069009133  1.0000
  H   H45       1.0  0.40022463609292913  0.0111675930793211  0.4523904523481195  1.0000
  H   H46       1.0  0.09977562474745841  0.5111673893479606  0.04760914602275792  1.0000
  H   H47       1.0  0.5997758029514915  0.4888323167362075  0.45239100978885477  1.0000
  H   H48       1.0  0.9002240690073507  0.9888321436984672  0.04760858825656562  1.0000
  C   C1        1.0  0.10553700493377964  0.861240848197788  0.5710780838156425  1.0000
  C   C2        1.0  0.39446325944406624  0.3612404986299964  0.9289218279372595  1.0000
  C   C3        1.0  0.8944625663197745  0.6387592735409697  0.571078596263256  1.0000
  C   C4        1.0  0.6055370680834358  0.1387594454783425  0.9289218128262039  1.0000
  C   C5        1.0  0.8944624968667587  0.13875944224570705  0.4289216586676121  1.0000
  C   C6        1.0  0.6055372545455527  0.6387592407918845  0.07107846187170003  1.0000
  C   C7        1.0  0.10553693548069995  0.36124101690253957  0.42892169354576054  1.0000
  C   C8        1.0  0.3944634459061831  0.8612402939435457  0.07107847698275553  1.0000
  C   C9        1.0  0.13864265413572247  0.8662259507585334  0.7863073704001524  1.0000
  C   C10       1.0  0.3613576119587593  0.3662261333417476  0.7136930890321412  1.0000
  C   C11       1.0  0.8613568667502424  0.6337736354471631  0.7863073374333286  1.0000
  C   C12       1.0  0.638642765936176  0.133773795277996  0.713693071302494  1.0000
  C   C13       1.0  0.8613578598538965  0.13377378866335476  0.21369291940881407  1.0000
  C   C14       1.0  0.6386429020308598  0.6337736060801334  0.2863072007768182  1.0000
  C   C15       1.0  0.13864162286083112  0.3662261039746398  0.2136934997014707  1.0000
  C   C16       1.0  0.3613567358642983  0.8662264951655204  0.2863072185065293  1.0000
  C   C17       1.0  0.017140354834992905  0.09813863784670934  0.6382442351674629  1.0000
  C   C18       1.0  0.48285981894455443  0.5981384958580449  0.861755110596953  1.0000
  C   C19       1.0  0.9828590285271234  0.40186183636512146  0.6382447602301158  1.0000
  C   C20       1.0  0.51713968428529  0.9018616467988282  0.8617556675221326  1.0000
  C   C21       1.0  0.9828591469655381  0.9018616525967789  0.361755507315799  1.0000
  C   C22       1.0  0.517140695045221  0.4018617945854999  0.13824463188627337  1.0000
  C   C23       1.0  0.017139461084106203  0.5981384540783381  0.36175552957893603  1.0000
  C   C24       1.0  0.48285880532584  0.09813809262295342  0.13824462228689788  1.0000
  C   C25       1.0  0.827798630358018  0.0006039919531844002  0.831250970976001  1.0000
  C   C26       1.0  0.6722019686611989  0.5006043553601388  0.6687488809878489  1.0000
  C   C27       1.0  0.17220374440480413  0.49939649614820786  0.8312510110930236  1.0000
  C   C28       1.0  0.3277955553571844  0.9993957734072225  0.6687489104597478  1.0000
  C   C29       1.0  0.17220188363166505  0.9993957474686753  0.16874877150720385  1.0000
  C   C30       1.0  0.32779652095012324  0.49939648610499904  0.331251408821224  1.0000
  C   C31       1.0  0.8277977817742439  0.5006043453170861  0.16874927871594292  1.0000
  C   C32       1.0  0.6722029342541093  0.0006045170362228  0.3312508320235424  1.0000
  C   C33       1.0  0.7182039958254123  0.8100311331445412  0.6923917212794638  1.0000
  C   C34       1.0  0.7817956975547702  0.31003131435826253  0.8076081526331368  1.0000
  C   C35       1.0  0.2817955470384419  0.689968446302679  0.6923922792755949  1.0000
  C   C36       1.0  0.2182036461730874  0.18996862101987938  0.8076081676541879  1.0000
  C   C37       1.0  0.28179550597502623  0.18996860627726875  0.3076080212037767  1.0000
  C   C38       1.0  0.2182038042457037  0.689968976085247  0.19239213717587947  1.0000
  C   C39       1.0  0.7182039547619327  0.3100312931191526  0.3076080105334072  1.0000
  C   C40       1.0  0.7817958556273865  0.8100316694236298  0.19239212215482845  1.0000
  C   C41       1.0  0.7100640159439423  0.9858660026542484  0.5579920559402469  1.0000
  C   C42       1.0  0.7899357379842515  0.4858656433497472  0.9420083777706627  1.0000
  C   C43       1.0  0.28993454618276365  0.5141335671210285  0.5579915062554194  1.0000
  C   C44       1.0  0.2100645864807548  0.014134301700345003  0.9420083808760543  1.0000
  C   C45       1.0  0.2899354858565318  0.0141342877892612  0.44200823386876936  1.0000
  C   C46       1.0  0.2100647760053675  0.5141340960721409  0.057991912038303915  1.0000
  C   C47       1.0  0.7100649556175825  0.4858656212791106  0.4420082362277997  1.0000
  C   C48       1.0  0.7899349153197833  0.9858659887431501  0.057991361607207616  1.0000
  O   O1        1.0  0.029051945251495702  0.9175861175168976  0.5841164827050849  1.0000
  O   O2        1.0  0.4709483385287569  0.4175863258461662  0.9158834330445987  1.0000
  O   O3        1.0  0.9709486351400685  0.5824140051602031  0.5841169859231246  1.0000
  O   O4        1.0  0.5290519920500644  0.08241416834555793  0.9158834191695464  1.0000
  O   O5        1.0  0.9709475565488789  0.0824136219049336  0.41588380710391715  1.0000
  O   O6        1.0  0.5290521754610538  0.5824145156190711  0.08411685676440332  1.0000
  O   O7        1.0  0.029051878849578803  0.4175862852833845  0.4158838512116249  1.0000
  O   O8        1.0  0.47094750975038124  0.9175855710762518  0.08411632331369392  1.0000
  O   O9        1.0  0.11349279812419871  0.8039483709304348  0.6085529290302889  1.0000
  O   O10       1.0  0.38650744652526475  0.30394856887474475  0.8914469786586783  1.0000
  O   O11       1.0  0.8865067643596235  0.6960517535051242  0.608552898760401  1.0000
  O   O12       1.0  0.6134928897720613  0.19605192355847126  0.8914475143930152  1.0000
  O   O13       1.0  0.8865067036762754  0.19605191951307435  0.3914473607787274  1.0000
  O   O14       1.0  0.6134930674646102  0.6960522725904781  0.10855276382456225  1.0000
  O   O15       1.0  0.11349273744075113  0.3039479859167145  0.391447391048601  1.0000
  O   O16       1.0  0.38650661202831327  0.8039478158633602  0.10855277541597994  1.0000
  O   O17       1.0  0.08535394049816601  0.9220730960417639  0.7542291586868404  1.0000
  O   O18       1.0  0.41464634482700563  0.42207273535570533  0.7457713047068639  1.0000
  O   O19       1.0  0.9146455878948387  0.5779270388771282  0.7542285707870565  1.0000
  O   O20       1.0  0.5853540255609461  0.07792664455081419  0.7457712866615867  1.0000
  O   O21       1.0  0.9146465734915525  0.07792719440179502  0.2457711311221474  1.0000
  O   O22       1.0  0.5853531569733691  0.5779270040661258  0.2542289851021381  1.0000
  O   O23       1.0  0.08535391390562812  0.42207325156638137  0.2457717190219598  1.0000
  O   O24       1.0  0.4146454762394925  0.922073094871003  0.2542284558216466  1.0000
  O   O25       1.0  0.11480659974364472  0.7997826530427546  0.7734889995401917  1.0000
  O   O26       1.0  0.3851946556605058  0.299782287961861  0.7265109078532321  1.0000
  O   O27       1.0  0.885192924142075  0.7002174832621789  0.7734895169814354  1.0000
  O   O28       1.0  0.6148057192348163  0.2002176415803021  0.7265108964675024  1.0000
  O   O29       1.0  0.8851939142460665  0.20021763740080445  0.226511290268789  1.0000
  O   O30       1.0  0.6148058583291134  0.7002174514600271  0.27348938195572714  1.0000
  O   O31       1.0  0.11480556546905525  0.2997822561596024  0.22651077282759505  1.0000
  O   O32       1.0  0.3851937825656507  0.7997826488632145  0.2734893933415138  1.0000
  O   O33       1.0  0.008119709763541002  0.04524441507528111  0.6847592607105784  1.0000
  O   O34       1.0  0.4918804458019893  0.5452442706607955  0.8152406286276278  1.0000
  O   O35       1.0  0.9918806749023618  0.45475551146230236  0.6847597889079966  1.0000
  O   O36       1.0  0.5081200805023017  0.9547553176270898  0.8152406425961093  1.0000
  O   O37       1.0  0.9918797920369968  0.9547558753682068  0.31524048177267633  1.0000
  O   O38       1.0  0.5081200681876937  0.45475546876107154  0.1847591138555772  1.0000
  O   O39       1.0  0.008119839087349598  0.5452447789812641  0.3152405009009841  1.0000
  O   O40       1.0  0.49187942129817236  0.0452449728164268  0.18475964721290697  1.0000
  O   O41       1.0  0.9987007570614068  0.09293869397482273  0.5707184329884003  1.0000
  O   O42       1.0  0.5012988615637894  0.5929390586712632  0.9292808781993361  1.0000
  O   O43       1.0  0.0012986421028742005  0.40706122435594233  0.5707190255740502  1.0000
  O   O44       1.0  0.4987006258638971  0.907061639866676  0.9292814367548705  1.0000
  O   O45       1.0  0.0012997569282760001  0.907061045447037  0.42928130949479754  1.0000
  O   O46       1.0  0.4987006402367486  0.4070612317722322  0.07071886428391852  1.0000
  O   O47       1.0  0.9987008596974436  0.5929385150659102  0.42928181156071354  1.0000
  O   O48       1.0  0.5012998881258781  0.09293865057686901  0.07071830572834872  1.0000
  O   O49       1.0  0.8017430287945616  0.9689970373008027  0.7700233153254248  1.0000
  O   O50       1.0  0.6982567193250162  0.4689972043935883  0.7299765698631691  1.0000
  O   O51       1.0  0.19825852028071012  0.5310025477331237  0.7700227731093539  1.0000
  O   O52       1.0  0.3017426425701331  0.031003276419596708  0.7299765678928625  1.0000
  O   O53       1.0  0.19825647300597643  0.0310032531426856  0.2299764271578298  1.0000
  O   O54       1.0  0.30174278247552183  0.5310030860498998  0.2700231726200856  1.0000
  O   O55       1.0  0.8017430058982172  0.4689971916887999  0.22997696937381568  1.0000
  O   O56       1.0  0.6982568592303979  0.9689970140238983  0.2700231745903921  1.0000
  O   O57       1.0  0.9404694657015259  0.026167547148048705  0.8509546954185726  1.0000
  O   O58       1.0  0.5595321543098493  0.5261689996700768  0.6490451583585897  1.0000
  O   O59       1.0  0.05953290445005171  0.47383128930623303  0.8509541941049296  1.0000
  O   O60       1.0  0.4404663865086462  0.973830576657726  0.6490457256344231  1.0000
  O   O61       1.0  0.0595320604770535  0.9738305392088482  0.14904559439029444  1.0000
  O   O62       1.0  0.44046835968011794  0.47383239281682427  0.3509545841246721  1.0000
  O   O63       1.0  0.9404686217289041  0.5261690011373831  0.14904609570402275  1.0000
  O   O64       1.0  0.5595321031025551  0.02616916276403461  0.35095401684885286  1.0000
  O   O65       1.0  0.842024097937106  0.8314802091192918  0.6866311141717534  1.0000
  O   O66       1.0  0.6579756028289907  0.3314803780981777  0.8133687612622968  1.0000
  O   O67       1.0  0.15797544627489665  0.6685193699133621  0.6866311317919129  1.0000
  O   O68       1.0  0.3420237395507116  0.16851955769453755  0.813369313616413  1.0000
  O   O69       1.0  0.15797641605250595  0.16851953030259645  0.313369175637206  1.0000
  O   O70       1.0  0.3420238989715473  0.6685199123453176  0.18663098122095798  1.0000
  O   O71       1.0  0.8420240555254782  0.3314803695084692  0.3133691580170891  1.0000
  O   O72       1.0  0.6579757622496916  0.8314807327489933  0.18663152351836498  1.0000
  O   O73       1.0  0.7886999929535109  0.990171137116377  0.5043897050153563  1.0000
  O   O74       1.0  0.7112997624573012  0.4901713246575383  0.9956101816751829  1.0000
  O   O75       1.0  0.21129959390638933  0.50982897982324  0.5043897077308375  1.0000
  O   O76       1.0  0.28870054946401075  0.009829175271605102  0.9956101790952449  1.0000
  O   O77       1.0  0.21130052103626443  0.0098291533271677  0.4956100374678629  1.0000
  O   O78       1.0  0.28869973934317283  0.5098289657859781  0.0043901081338333005  1.0000
  O   O79       1.0  0.7886999078940563  0.49017075959857004  0.49561003475240295  1.0000
  O   O80       1.0  0.7112999645257647  0.9901711151719396  0.0043895633879742005  1.0000
  O   O81       1.0  0.6164395074285098  0.8502424863108616  0.7022337380181514  1.0000
  O   O82       1.0  0.8835601997983532  0.3502432282342198  0.7977666860725566  1.0000
  O   O83       1.0  0.3835600331321701  0.6497565428229066  0.7022331915481249  1.0000
  O   O84       1.0  0.11643914623257962  0.14975670643569572  0.797766705203529  1.0000
  O   O85       1.0  0.3835599943717725  0.1497567020892916  0.29776655179082934  1.0000
  O   O86       1.0  0.11643930200211373  0.6497570622092964  0.20223360373645966  1.0000
  O   O87       1.0  0.6164394686682685  0.35024319659890324  0.29776655093511567  1.0000
  O   O88       1.0  0.8835603555677951  0.8502430329861356  0.20223358460546595  1.0000
  O   O89       1.0  0.7448661094980694  0.9786454187859306  0.625500855812618  1.0000
  O   O90       1.0  0.7551346541329808  0.4786450510679573  0.8744995773860754  1.0000
  O   O91       1.0  0.2551344612087051  0.5213541558476464  0.6255014036724378  1.0000
  O   O92       1.0  0.24486568613043866  0.0213548891239341  0.8744984839711808  1.0000
  O   O93       1.0  0.2551344044917698  0.021354871657592898  0.37449833934483945  1.0000
  O   O94       1.0  0.2448658598565743  0.5213546883539453  0.12550125974865275  1.0000
  O   O95       1.0  0.7448660527808145  0.4786450325525564  0.3744988861365074  1.0000
  O   O96       1.0  0.7551338156701562  0.9786454013195396  0.12550071118631226  1.0000
