data_image0
_chemical_formula_structural       CoP4H26C16N4O12
_chemical_formula_sum              "Co1 P4 H26 C16 N4 O12"
_cell_length_a       8.814163532456725
_cell_length_b       8.702836200277995
_cell_length_c       9.074463518707962
_cell_angle_alpha    78.89005034208733
_cell_angle_beta     65.64266107129882
_cell_angle_gamma    68.8659247902248

_space_group_name_H-M_alt    "P 1"
_space_group_IT_number       1

loop_
  _space_group_symop_operation_xyz
  'x, y, z'

loop_
  _atom_site_type_symbol
  _atom_site_label
  _atom_site_symmetry_multiplicity
  _atom_site_fract_x
  _atom_site_fract_y
  _atom_site_fract_z
  _atom_site_occupancy
  Co  Co1       1.0  0.49999860155962494  1.4575942230128027e-07  0.9999999847875002  1.0000
  P   P1        1.0  0.6551310366776093  0.29094161614376196  0.7963012955203864  1.0000
  P   P2        1.0  0.3448681596136611  0.7090587745583931  0.2036978075028343  1.0000
  P   P3        1.0  0.9350411541197943  0.7140661717953946  0.7816157708622241  1.0000
  P   P4        1.0  0.06495195975426779  0.2859365805761628  0.21838830440599818  1.0000
  H   H1        1.0  0.9570426244710789  0.3776367038959735  0.9390080325196378  1.0000
  H   H2        1.0  0.04296027146938995  0.6223637635200917  0.0609898166679699  1.0000
  H   H3        1.0  0.5305005889237081  0.7625896350245895  0.7887180053498068  1.0000
  H   H4        1.0  0.46949605206745565  0.23741691864749734  0.21128537404872103  1.0000
  H   H5        1.0  0.38703553592853257  0.7657386126524346  0.6045400741494972  1.0000
  H   H6        1.0  0.6129582533584071  0.234254218662663  0.39546980559880024  1.0000
  H   H7        1.0  0.16226779964364377  0.03148971204048219  0.5595733896041961  1.0000
  H   H8        1.0  0.8377264542690314  0.9685068500279215  0.4404290985397238  1.0000
  H   H9        1.0  0.2722743548569255  0.2592405821530265  0.8693995103363362  1.0000
  H   H10       1.0  0.727726778602616  0.74076109210953  0.1305998392021193  1.0000
  H   H11       1.0  0.025382429734136718  0.3261306434137481  0.5957871187086496  1.0000
  H   H12       1.0  0.9746202915189952  0.6738673335954248  0.4042089836128823  1.0000
  H   H13       1.0  0.14081918667888965  0.42218496109451564  0.6488766212384147  1.0000
  H   H14       1.0  0.8591817720933079  0.5778142227611482  0.35112098143396514  1.0000
  H   H15       1.0  0.7032582628045175  0.3340919236497086  0.02506704137137918  1.0000
  H   H16       1.0  0.2967444510908593  0.6659085420044448  0.9749330791220315  1.0000
  H   H17       1.0  0.8707893822654215  0.16015544349159683  0.9231670692205255  1.0000
  H   H18       1.0  0.12921289338797246  0.8398462554613103  0.07683299802562257  1.0000
  H   H19       1.0  0.7028907086510116  0.6017302432823046  0.9324313305508978  1.0000
  H   H20       1.0  0.29710408403919086  0.39826881271682163  0.06756836184750627  1.0000
  H   H21       1.0  0.7687201395209798  0.5784476871473105  0.7233094514436899  1.0000
  H   H22       1.0  0.2312794039897241  0.4215514693751317  0.2766908404796878  1.0000
  H   H23       1.0  0.7934138203487109  0.036722693531388  0.7114087741286851  1.0000
  H   H24       1.0  0.20659152515380455  0.9632765873237616  0.28859397068026726  1.0000
  H   H25       1.0  0.11824021757426814  0.7661154957476981  0.5194708583303153  1.0000
  H   H26       1.0  0.8817591629173339  0.2338911117098732  0.4805282782191041  1.0000
  C   C1        1.0  0.4378143944433359  0.8755862928307893  0.7636446034247157  1.0000
  C   C2        1.0  0.5621877806745063  0.1244116788926419  0.2363583128142038  1.0000
  C   C3        1.0  0.3551036752654115  0.878658131589681  0.6612845219668768  1.0000
  C   C4        1.0  0.6448919865510023  0.1213409464569253  0.3387192950979169  1.0000
  C   C5        1.0  0.23083997741956347  0.024600622639027795  0.6379119223170234  1.0000
  C   C6        1.0  0.769156826590702  0.9753984800979223  0.3620926124554629  1.0000
  C   C7        1.0  0.19720267255453902  0.1645657477974538  0.7147753928554863  1.0000
  C   C8        1.0  0.802796277052842  0.8354396043138836  0.28521967227480616  1.0000
  C   C9        1.0  0.2891265166874391  0.15217407459834223  0.8123809202100745  1.0000
  C   C10       1.0  0.7108729358007222  0.8478250810431405  0.18762050736620478  1.0000
  C   C11       1.0  0.07339648505598015  0.32888075331406713  0.6886449508711294  1.0000
  C   C12       1.0  0.9266035877192563  0.6711171707905804  0.3113542586466096  1.0000
  C   C13       1.0  0.7934068065094023  0.2880183893248259  0.9048669354774077  1.0000
  C   C14       1.0  0.20659537812144185  0.7119833087471295  0.09513426742164195  1.0000
  C   C15       1.0  0.8174872204047433  0.5674042171718555  0.8194365311885787  1.0000
  C   C16       1.0  0.18251295290603758  0.4325974341622683  0.18055982933638154  1.0000
  N   N1        1.0  0.40404853980585653  0.009716143037351802  0.8408056088926299  1.0000
  N   N2        1.0  0.5959548853991451  0.9902830919609261  0.1591911578893386  1.0000
  N   N3        1.0  0.9160463921044337  0.3898177176301658  0.8399749743483084  1.0000
  N   N4        1.0  0.08395096755410962  0.61018511674105  0.16002103316690602  1.0000
  O   O1        1.0  0.5905792036265538  0.4574072587371418  0.7227914633434267  1.0000
  O   O2        1.0  0.4094208691486828  0.5425906653674986  0.27720774617431937  1.0000
  O   O3        1.0  0.5170427312622865  0.2189899866084133  0.9274640315238825  1.0000
  O   O4        1.0  0.4829561178095502  0.7810116382734479  0.07253388259918117  1.0000
  O   O5        1.0  0.7766266865860771  0.1574673913729328  0.6591491755497074  1.0000
  O   O6        1.0  0.2233806034424647  0.8425306843976372  0.3408497976026012  1.0000
  O   O7        1.0  0.048132926123187786  0.6622223120141228  0.880641903650023  1.0000
  O   O8        1.0  0.9518633654933025  0.3377792608441652  0.11935798201635352  1.0000
  O   O9        1.0  0.7937562196221464  0.8831176679304421  0.8085066849952439  1.0000
  O   O10       1.0  0.2062440278404267  0.11688274658110492  0.1914942713885708  1.0000
  O   O11       1.0  0.048731868075989844  0.6933977081630402  0.5932585004361499  1.0000
  O   O12       1.0  0.9512657404216964  0.30660637979249816  0.40674384980399475  1.0000
