data_image0
_chemical_formula_structural       Zn2H28C26N4Cl4
_chemical_formula_sum              "Zn2 H28 C26 N4 Cl4"
_cell_length_a       5.294034870742203
_cell_length_b       9.71011709988352
_cell_length_c       13.163590100432268
_cell_angle_alpha    89.99696347730777
_cell_angle_beta     89.99818286950808
_cell_angle_gamma    91.31731112370568

_space_group_name_H-M_alt    "P 1"
_space_group_IT_number       1

loop_
  _space_group_symop_operation_xyz
  'x, y, z'

loop_
  _atom_site_type_symbol
  _atom_site_label
  _atom_site_symmetry_multiplicity
  _atom_site_fract_x
  _atom_site_fract_y
  _atom_site_fract_z
  _atom_site_occupancy
  Zn  Zn1       1.0  0.5758662830464517  0.2882115486053465  0.2500008458484189  1.0000
  Zn  Zn2       1.0  0.42412206474237735  0.7117863557409051  0.7500005762164786  1.0000
  H   H1        1.0  0.0386913384494392  0.42313821112758626  0.3486948732937875  1.0000
  H   H2        1.0  0.961252964898996  0.5768778232465479  0.8487071044122061  1.0000
  H   H3        1.0  0.9612956598688028  0.576865897301964  0.6513073083273822  1.0000
  H   H4        1.0  0.03871336300040441  0.4231275923683314  0.15129203862390733  1.0000
  H   H5        1.0  0.2926552628345647  0.3891763183517511  0.5047935168445576  1.0000
  H   H6        1.0  0.7072931460641668  0.6108338264275659  0.0048105323224163  1.0000
  H   H7        1.0  0.7073393743510509  0.610828719128584  0.4952071453694059  1.0000
  H   H8        1.0  0.29269214431303675  0.3891723668969649  0.9951901299254045  1.0000
  H   H9        1.0  0.7755573414967927  0.058372939286421406  0.5877038608261245  1.0000
  H   H10       1.0  0.2244427501623676  0.9416119077591107  0.0876915861958096  1.0000
  H   H11       1.0  0.2244368475763636  0.9416269491880558  0.4122945224791933  1.0000
  H   H12       1.0  0.7755599789411747  0.058377556513292496  0.9123067972644631  1.0000
  H   H13       1.0  0.5378078452178343  0.10612481853331698  0.4261268562523027  1.0000
  H   H14       1.0  0.46221054015913404  0.8938577705353623  0.9261120609402551  1.0000
  H   H15       1.0  0.46219982374687163  0.8938779829018915  0.5738730462556632  1.0000
  H   H16       1.0  0.5377868857722419  0.10613588873233942  0.0738832837842907  1.0000
  H   H17       1.0  0.3881809623415293  0.2436242744075443  0.6513151241321964  1.0000
  H   H18       1.0  0.6118240147126529  0.7563661742836345  0.15133815955768876  1.0000
  H   H19       1.0  0.6118267964928207  0.7563795570361906  0.34867946065654104  1.0000
  H   H20       1.0  0.3881819459533062  0.24363871174643487  0.8486685799598986  1.0000
  H   H21       1.0  0.23394218352613197  0.0794152350658166  0.6593065024675294  1.0000
  H   H22       1.0  0.7660474602920077  0.9205799912045904  0.15930519366747117  1.0000
  H   H23       1.0  0.7660672830541415  0.9205865113192361  0.3406941597216289  1.0000
  H   H24       1.0  0.23397341967076105  0.07942263376600782  0.8406954684349016  1.0000
  H   H25       1.0  0.8691692599486699  0.1897640648218797  0.7500029127869251  1.0000
  H   H26       1.0  0.1308422731731724  0.8102397159656363  0.24999850902048584  1.0000
  H   H27       1.0  0.041812356281838  0.34784255537746134  0.7499941678002882  1.0000
  H   H28       1.0  0.9582045697842431  0.6521580603414353  0.2500072540371576  1.0000
  C   C1        1.0  0.9840616632887347  0.34357600005385797  0.403387032676349  1.0000
  C   C2        1.0  0.015910853304944822  0.6564232943261887  0.9033969594978898  1.0000
  C   C3        1.0  0.01593423359538801  0.6564218034164996  0.5966159086870418  1.0000
  C   C4        1.0  0.9840699455186622  0.34357471100509684  0.09659990458379747  1.0000
  C   C5        1.0  0.1259635583587766  0.32386023767489297  0.4908877658144774  1.0000
  C   C6        1.0  0.8739999380593773  0.6761369157532542  0.990903195190455  1.0000
  C   C7        1.0  0.8740310787618029  0.6761447997508655  0.5091144157418411  1.0000
  C   C8        1.0  0.125977355012509  0.3238642293594651  0.00909594786377  1.0000
  C   C9        1.0  0.056349411024797305  0.21939713381885892  0.5592842175247837  1.0000
  C   C10       1.0  0.9436574254508088  0.780595882523457  0.059288584813451485  1.0000
  C   C11       1.0  0.9436601451974765  0.7806056423837334  0.4407164446433994  1.0000
  C   C12       1.0  0.05635168256145562  0.21940174459142991  0.9407120774596293  1.0000
  C   C13       1.0  0.8384234916692674  0.1403916872636586  0.5362819882915416  1.0000
  C   C14       1.0  0.1615693198679651  0.8595928852358128  0.0362744923329998  1.0000
  C   C15       1.0  0.16158022339875092  0.859609104919848  0.46371867395149735  1.0000
  C   C16       1.0  0.8384349379251289  0.14039243453381545  0.9637246508714056  1.0000
  C   C17       1.0  0.706474069159249  0.16564881573211923  0.44767272325889707  1.0000
  C   C18       1.0  0.2935161388689735  0.8343336081087005  0.9476653787491712  1.0000
  C   C19       1.0  0.293525960970605  0.8343530566795961  0.5523279389851012  1.0000
  C   C20       1.0  0.7064807491128349  0.1656538721719087  0.0523322451147834  1.0000
  C   C21       1.0  0.20256238342407326  0.19095006270789844  0.6541075694277936  1.0000
  C   C22       1.0  0.7974351645113559  0.8090444059479867  0.15411790232175795  1.0000
  C   C23       1.0  0.7974470832212361  0.8090516837317241  0.3458915734190028  1.0000
  C   C24       1.0  0.20257600997743447  0.1909552555148011  0.8458850389119303  1.0000
  C   C25       1.0  0.06136576458408171  0.2354575299385644  0.7499977983796385  1.0000
  C   C26       1.0  0.9386473868693128  0.7645431361637166  0.2500043831509231  1.0000
  N   N1        1.0  0.7784593257619362  0.26503129786588187  0.3813502602730167  1.0000
  N   N2        1.0  0.22151849395055478  0.7349654101405036  0.8813492537607883  1.0000
  N   N3        1.0  0.22154268123496476  0.7349715791034725  0.6186519212813975  1.0000
  N   N4        1.0  0.7784713826904195  0.2650283498393904  0.11864912969234347  1.0000
  Cl  Cl1       1.0  0.29368672716103117  0.1091946326780473  0.2500015546052267  1.0000
  Cl  Cl2       1.0  0.7063035976249239  0.8908042763349827  0.7499983480853627  1.0000
  Cl  Cl3       1.0  0.45078678551801926  0.507910709697363  0.24999800605009165  1.0000
  Cl  Cl4       1.0  0.5492168399730345  0.49208905272316633  0.7500011368715676  1.0000
