data_image0
_chemical_formula_structural       Cd3H28C38N8O12
_chemical_formula_sum              "Cd3 H28 C38 N8 O12"
_cell_length_a       9.92440932933953
_cell_length_b       10.419388578709455
_cell_length_c       11.805281448254826
_cell_angle_alpha    100.336031691358
_cell_angle_beta     112.95430619309494
_cell_angle_gamma    109.20576779361735

_space_group_name_H-M_alt    "P 1"
_space_group_IT_number       1

loop_
  _space_group_symop_operation_xyz
  'x, y, z'

loop_
  _atom_site_type_symbol
  _atom_site_label
  _atom_site_symmetry_multiplicity
  _atom_site_fract_x
  _atom_site_fract_y
  _atom_site_fract_z
  _atom_site_occupancy
  Cd  Cd1       1.0  0.06396985371905853  0.8790553806734495  0.7161117030461882  1.0000
  Cd  Cd2       1.0  0.9360298248145397  0.12094445478530963  0.28388788321827724  1.0000
  Cd  Cd3       1.0  0.0  0.0  0.0  1.0000
  H   H1        1.0  0.0738141608949335  0.5171015774207036  0.35234461266590245  1.0000
  H   H2        1.0  0.9261855179192438  0.48289826056561963  0.6476558211666729  1.0000
  H   H3        1.0  0.5497606236251257  0.032490470837167613  0.7292278947967717  1.0000
  H   H4        1.0  0.45023958970714556  0.967510453769059  0.2707728843859913  1.0000
  H   H5        1.0  0.6803071480444842  0.9327765185147997  0.4292846126616824  1.0000
  H   H6        1.0  0.3196930652877937  0.06722440609143382  0.5707161665210734  1.0000
  H   H7        1.0  0.49654880743578644  0.2983315310165296  0.8477988588816247  1.0000
  H   H8        1.0  0.5034519670167229  0.7016683117156294  0.15220278274047427  1.0000
  H   H9        1.0  0.29643896477903553  0.444372926608331  0.07856701379604666  1.0000
  H   H10       1.0  0.7035607140351418  0.5556269113779921  0.9214334200365359  1.0000
  H   H11       1.0  0.1677163555250943  0.7686326203373498  0.10149945155730938  1.0000
  H   H12       1.0  0.8322838575265976  0.23136830174131975  0.8985004800573293  1.0000
  H   H13       1.0  0.800736403505361  0.3871908319271853  0.7614593593171932  1.0000
  H   H14       1.0  0.19926217938989788  0.6128089987857381  0.23853901915774872  1.0000
  H   H15       1.0  0.7869907879076907  0.7418527039358624  0.35570847383906584  1.0000
  H   H16       1.0  0.21300942542458756  0.258148220670364  0.6442923053436971  1.0000
  H   H17       1.0  0.8193634982410742  0.5302476632118244  0.20100765891460534  1.0000
  H   H18       1.0  0.18063618001193774  0.4697521697193708  0.7989910797817432  1.0000
  H   H19       1.0  0.4548284813978257  0.8673926696146382  0.941354143029379  1.0000
  H   H20       1.0  0.5451701017780194  0.13260716362584185  0.05864508301368693  1.0000
  H   H21       1.0  0.5922417079511746  0.739188033812141  0.8202604750822645  1.0000
  H   H22       1.0  0.40775960045827025  0.2608128904848074  0.17973981675377362  1.0000
  H   H23       1.0  0.3204616570662254  0.49569092214587596  0.5083816019572965  1.0000
  H   H24       1.0  0.6795374872298512  0.5043078292205367  0.4916184865251055  1.0000
  H   H25       1.0  0.5280490784510691  0.6321001442294688  0.595806805450451  1.0000
  H   H26       1.0  0.47195113460062993  0.36790077784919367  0.4041931261641879  1.0000
  H   H27       1.0  0.37862433827583447  0.6559054819705282  0.46830545879533503  1.0000
  H   H28       1.0  0.6213759013779949  0.3440932716141561  0.5316949899084662  1.0000
  C   C1        1.0  0.7666043482784846  0.9563453110151204  0.6817030072266805  1.0000
  C   C2        1.0  0.23339639957188751  0.04365670021101661  0.3182981173062558  1.0000
  C   C3        1.0  0.6292062752834298  0.980725467090714  0.5888410224254557  1.0000
  C   C4        1.0  0.3707939380488483  0.019275457515512105  0.41115975675730004  1.0000
  C   C5        1.0  0.5279636920103811  0.0195107668096881  0.628967716808809  1.0000
  C   C6        1.0  0.47203652132189  0.9804901577965454  0.3710330623739468  1.0000
  C   C7        1.0  0.6000582549758064  0.9616218339693249  0.4591308429161245  1.0000
  C   C8        1.0  0.39994195835647156  0.0383790906369015  0.5408699362666383  1.0000
  C   C9        1.0  0.26144320805628507  0.20313196880591283  0.9163468538663437  1.0000
  C   C10       1.0  0.7385564707578922  0.7968678691804103  0.08365357996623866  1.0000
  C   C11       1.0  0.38467514100022987  0.3568279908272417  0.9591147783680896  1.0000
  C   C12       1.0  0.6153250986535994  0.6431707627574499  0.04088567033571173  1.0000
  C   C13       1.0  0.49884718874563566  0.3875995214477116  0.9140337534553709  1.0000
  C   C14       1.0  0.5011536117478458  0.6123981477353412  0.08596671011965647  1.0000
  C   C15       1.0  0.3866959434739954  0.4699887858269349  0.045272837816135315  1.0000
  C   C16       1.0  0.6133032008220808  0.5300099655394775  0.9547272506662736  1.0000
  C   C17       1.0  0.9743246716637018  0.6801517362707161  0.8404299766146154  1.0000
  C   C18       1.0  0.02567444574965804  0.31984918106211074  0.159568747210507  1.0000
  C   C19       1.0  0.9838789225928862  0.5873465314929548  0.9232354756925646  1.0000
  C   C20       1.0  0.01612075594071178  0.41265330396579714  0.07676411057190083  1.0000
  C   C21       1.0  0.09559663318945177  0.6510610759663822  0.05810105992114261  1.0000
  C   C22       1.0  0.9044030450635602  0.34893875696481313  0.9418976787751988  1.0000
  C   C23       1.0  0.8884418215332843  0.43617646956615647  0.8660021108434678  1.0000
  C   C24       1.0  0.11155785700031395  0.5638233658926028  0.13399747542099766  1.0000
  C   C25       1.0  0.8792010287325738  0.7024183371457939  0.38200136341037466  1.0000
  C   C26       1.0  0.12079918403853188  0.2975825824053119  0.6179977206361472  1.0000
  C   C27       1.0  0.8944970083438832  0.5985236297561444  0.3039808918577621  1.0000
  C   C28       1.0  0.10550266990912868  0.4014762031750508  0.6960178468385791  1.0000
  C   C29       1.0  0.10098307958333691  0.6893022828351082  0.506093494391486  1.0000
  C   C30       1.0  0.8990165992308405  0.310697555151208  0.4939069394410966  1.0000
  C   C31       1.0  0.24251327594691938  0.719733805704614  0.6266899508203566  1.0000
  C   C32       1.0  0.7574858683491569  0.28026494566179855  0.3733101376620453  1.0000
  C   C33       1.0  0.40900745013494355  0.8113111697440802  0.8378682091815011  1.0000
  C   C34       1.0  0.5909933237564005  0.1886886679329507  0.1621317373043638  1.0000
  C   C35       1.0  0.4775680318883248  0.7462058764677838  0.7796016387914622  1.0000
  C   C36       1.0  0.5224311121271725  0.253792872371065  0.22039760212282292  1.0000
  C   C37       1.0  0.40026077619359063  0.6127105407880009  0.5484812246783051  1.0000
  C   C38       1.0  0.5997399979783324  0.3872892994165938  0.4515195693756767  1.0000
  N   N1        1.0  0.00800895565544848  0.7581487076115467  0.5070295674902567  1.0000
  N   N2        1.0  0.9919907228781426  0.24185112784720542  0.4929700187742085  1.0000
  N   N3        1.0  0.263387797694165  0.7941157579268463  0.7422925690082282  1.0000
  N   N4        1.0  0.7366113466019114  0.205882993439559  0.2577075194741738  1.0000
  N   N5        1.0  0.03493276810299768  0.591778663356891  0.38371918714412356  1.0000
  N   N6        1.0  0.9650669104305933  0.40822117210186804  0.6162803991203418  1.0000
  N   N7        1.0  0.3717623644406629  0.6888110273831315  0.6463945156299076  1.0000
  N   N8        1.0  0.6282367798554132  0.31118772398327366  0.3536055728524943  1.0000
  O   O1        1.0  0.8377684605831348  0.9066347763196919  0.6288202025545503  1.0000
  O   O2        1.0  0.1622344513806055  0.09336940783698111  0.37118112533202213  1.0000
  O   O3        1.0  0.7973030422146723  0.9840470024163399  0.8007704291686583  1.0000
  O   O4        1.0  0.20269554124175215  0.015952833351704505  0.19922964444251792  1.0000
  O   O5        1.0  0.24880502396230503  0.11049007937167232  0.821532696843512  1.0000
  O   O6        1.0  0.7511957502096254  0.8895097608329225  0.1784680972104696  1.0000
  O   O7        1.0  0.18352863704658526  0.1797786049467973  0.9799549228864421  1.0000
  O   O8        1.0  0.8164705072494911  0.820220146419608  0.020045165595959716  1.0000
  O   O9        1.0  0.898987373817505  0.6204493013719202  0.7159281456192518  1.0000
  O   O10       1.0  0.10101067455966031  0.3795494427210927  0.2840698875055098  1.0000
  O   O11       1.0  0.052024930529683176  0.8191208536254353  0.8976630880340936  1.0000
  O   O12       1.0  0.9479741871642559  0.18088006623495545  0.10233648335914583  1.0000
