data_image0
_chemical_formula_structural       Zr6H70C156O32
_chemical_formula_sum              "Zr6 H70 C156 O32"
_cell_length_a       22.11741793140855
_cell_length_b       22.12281588331878
_cell_length_c       22.12873025016545
_cell_angle_alpha    89.96833440523996
_cell_angle_beta     90.03035849978527
_cell_angle_gamma    89.93201680077637

_space_group_name_H-M_alt    "P 1"
_space_group_IT_number       1

loop_
  _space_group_symop_operation_xyz
  'x, y, z'

loop_
  _atom_site_type_symbol
  _atom_site_label
  _atom_site_symmetry_multiplicity
  _atom_site_fract_x
  _atom_site_fract_y
  _atom_site_fract_z
  _atom_site_occupancy
  Zr  Zr1       1.0  0.4981957515674366  0.6136890680376865  0.4998387098358421  1.0000
  Zr  Zr2       1.0  0.498446753958902  0.5010069224842371  0.38682380948441863  1.0000
  Zr  Zr3       1.0  0.6119396307480968  0.5009215497380952  0.4995146832688633  1.0000
  Zr  Zr4       1.0  0.4994316049209005  0.38762939863149626  0.4994391381775641  1.0000
  Zr  Zr5       1.0  0.3859208712869204  0.5000918842347348  0.5004508569685839  1.0000
  Zr  Zr6       1.0  0.4995255542538715  0.5007016700863431  0.6127657951149601  1.0000
  H   H1        1.0  0.41090749528951415  0.41151804490414196  0.589348161895721  1.0000
  H   H2        1.0  0.5067843239616394  0.0006186656639784  0.20820188560360717  1.0000
  H   H3        1.0  0.49508595589541937  0.15408390347641193  0.0556570265462781  1.0000
  H   H4        1.0  0.4926267111453839  0.1541095100996728  0.9435013071769447  1.0000
  H   H5        1.0  0.5274954383106448  0.7265508952291101  0.1641164645673854  1.0000
  H   H6        1.0  0.5220093324880536  0.6405565017411449  0.237419970342124  1.0000
  H   H7        1.0  0.48998075612485803  0.7653366571152207  0.38243479788452817  1.0000
  H   H8        1.0  0.4938142394278414  0.8517461333282129  0.3097405177580654  1.0000
  H   H9        1.0  0.49119265485693125  0.36161252469859323  0.23388260559321583  1.0000
  H   H10       1.0  0.4926345031435844  0.275023152089787  0.1612813375990214  1.0000
  H   H11       1.0  0.5015073244070224  0.15038356420899393  0.3110997324574853  1.0000
  H   H12       1.0  0.4992931216810774  0.23751754005066067  0.3828840235265715  1.0000
  H   H13       1.0  0.4950034458135875  0.0006886040010556003  0.7907359782045088  1.0000
  H   H14       1.0  0.5045796335254663  0.8472389853785461  0.94331341538836  1.0000
  H   H15       1.0  0.508669285394916  0.8472011222143364  0.05542766066598399  1.0000
  H   H16       1.0  0.51358226662704  0.27392121766931155  0.836466035785733  1.0000
  H   H17       1.0  0.5162234665543011  0.36035962026547713  0.7634854058169506  1.0000
  H   H18       1.0  0.4861976614918787  0.2377863582702844  0.6161843019948066  1.0000
  H   H19       1.0  0.4817804828498282  0.1510070946529254  0.6884948134876152  1.0000
  H   H20       1.0  0.4956711679505545  0.639868787443227  0.7639289133569704  1.0000
  H   H21       1.0  0.49681920653973327  0.725951468439199  0.8372980819963516  1.0000
  H   H22       1.0  0.5006145608792636  0.8518081008094995  0.6883275862895244  1.0000
  H   H23       1.0  0.4992052670951352  0.7652097776749757  0.6157919154822622  1.0000
  H   H24       1.0  0.7897562405483073  0.5038907965178155  0.0007684648065833  1.0000
  H   H25       1.0  0.9416736531945773  0.48878828435663735  0.8471845088650981  1.0000
  H   H26       1.0  0.053927780066978015  0.4885486766593274  0.846605608797077  1.0000
  H   H27       1.0  0.8362627726199889  0.501277368754856  0.27394990325335294  1.0000
  H   H28       1.0  0.7634943783603492  0.49982067689185794  0.3604441585237552  1.0000
  H   H29       1.0  0.6152331316104452  0.5219765649092524  0.23712623206979083  1.0000
  H   H30       1.0  0.6872458743426576  0.5243711546687282  0.15008994972356499  1.0000
  H   H31       1.0  0.7642577635844532  0.48974512336484816  0.6399103712954143  1.0000
  H   H32       1.0  0.8364238164170887  0.48843128595378005  0.7270701695802799  1.0000
  H   H33       1.0  0.6858931293074307  0.4964831488144484  0.8507836880940686  1.0000
  H   H34       1.0  0.6145569562825913  0.497253117939735  0.7631484639053028  1.0000
  H   H35       1.0  0.2075694732506577  0.4994075957221329  0.9989624613482491  1.0000
  H   H36       1.0  0.0556070584998807  0.5076602237271788  0.1530287204908021  1.0000
  H   H37       1.0  0.9433861672331929  0.5096604431736225  0.15349436875895606  1.0000
  H   H38       1.0  0.1622887403369546  0.4907004382621097  0.7250058950213116  1.0000
  H   H39       1.0  0.2360605670193436  0.4946984824508505  0.6393673245930245  1.0000
  H   H40       1.0  0.38295725900830757  0.5090492194853626  0.7653899095653429  1.0000
  H   H41       1.0  0.3099690218397768  0.5057563764768319  0.8515576542374532  1.0000
  H   H42       1.0  0.23321041985612115  0.5060664748527586  0.3602649953375874  1.0000
  H   H43       1.0  0.1611586043279161  0.5094591667830529  0.27315626977391355  1.0000
  H   H44       1.0  0.3108308414464886  0.4891593693951748  0.14975741981272248  1.0000
  H   H45       1.0  0.3820952895325931  0.48668753666017767  0.2373833669908194  1.0000
  H   H46       1.0  0.9967077646574296  0.7919701840698822  0.49694159370361746  1.0000
  H   H47       1.0  0.1518440574545963  0.942757600745054  0.5058264461244802  1.0000
  H   H48       1.0  0.1530072441019072  0.0549280435899675  0.5088452915324808  1.0000
  H   H49       1.0  0.7223608627605531  0.8392693749344746  0.49241203320194415  1.0000
  H   H50       1.0  0.6365188358402136  0.7656658385073386  0.49232571774215467  1.0000
  H   H51       1.0  0.7623520415651656  0.6178357790322977  0.49416325078212237  1.0000
  H   H52       1.0  0.8487923767889071  0.690537970396271  0.4942862466864995  1.0000
  H   H53       1.0  0.3577508219551078  0.7639984363119581  0.49800501839716543  1.0000
  H   H54       1.0  0.2709726281865485  0.8367025629658542  0.49581734130670435  1.0000
  H   H55       1.0  0.1464891958774217  0.6872035925601594  0.5084268638802314  1.0000
  H   H56       1.0  0.23378916002890548  0.6153107592795523  0.5100589199629013  1.0000
  H   H57       1.0  0.0010383228173936  0.2095333676923019  0.5074557895267658  1.0000
  H   H58       1.0  0.8459227239151234  0.05868249760947462  0.5007500606869043  1.0000
  H   H59       1.0  0.8447306013107935  0.94648994636551  0.4980389574021586  1.0000
  H   H60       1.0  0.27541793071933535  0.16212745282392402  0.5116320560401917  1.0000
  H   H61       1.0  0.3614221155163406  0.23541441754149162  0.5070613925293869  1.0000
  H   H62       1.0  0.23579847155724562  0.3830003910741483  0.49485166537154157  1.0000
  H   H63       1.0  0.14925762672588413  0.3105134517138097  0.49888459675166524  1.0000
  H   H64       1.0  0.6406451183150281  0.23757555358432825  0.48151781143795347  1.0000
  H   H65       1.0  0.7278470339920843  0.1654545034887747  0.48006031461838444  1.0000
  H   H66       1.0  0.8485390084120752  0.31150500521930985  0.5260032155707393  1.0000
  H   H67       1.0  0.7610411218666827  0.38322937258087114  0.5253960653871202  1.0000
  H   H68       1.0  0.4090118076887066  0.5894155749417891  0.4112687991746071  1.0000
  H   H69       1.0  0.5878811143498907  0.4124860058457002  0.40996499787992485  1.0000
  H   H70       1.0  0.5882903063830156  0.5895631342503121  0.5883852422018876  1.0000
  C   C1        1.0  0.4954697509303898  0.3553461617152323  0.35711391600384695  1.0000
  C   C2        1.0  0.5017850146085223  0.6472437026483676  0.35840818885345266  1.0000
  C   C3        1.0  0.5018164782976413  0.056033631662110395  0.12825679180423313  1.0000
  C   C4        1.0  0.5053360569813847  0.0006444262669518001  0.15900520904881427  1.0000
  C   C5        1.0  0.5069206990177477  0.9452637535937927  0.1281573914811176  1.0000
  C   C6        1.0  0.504935087262453  0.944600468200726  0.0636233291746322  1.0000
  C   C7        1.0  0.501469824197713  0.0006664735936042  0.0317754668836514  1.0000
  C   C8        1.0  0.4999563477217351  0.05672505134491251  0.06370290251366839  1.0000
  C   C9        1.0  0.49653960781077444  0.1117193216711385  0.0305113875484722  1.0000
  C   C10       1.0  0.495142412473264  0.1117292579118896  0.9685919265527828  1.0000
  C   C11       1.0  0.5097636865268101  0.8910235158760571  0.16167928525057107  1.0000
  C   C12       1.0  0.5113147231127043  0.8449762896037145  0.19223710908134709  1.0000
  C   C13       1.0  0.5105221386498471  0.7949570473649173  0.23201228286414724  1.0000
  C   C14       1.0  0.5188307719808876  0.7348966917796389  0.21186917785043843  1.0000
  C   C15       1.0  0.5159982748259607  0.6870617962353692  0.2525399951945957  1.0000
  C   C16       1.0  0.5053940247885579  0.6978932982574548  0.3140832090504801  1.0000
  C   C17       1.0  0.4979005764933149  0.7575531730408331  0.33449144749501153  1.0000
  C   C18       1.0  0.5001868152779565  0.8054319804347756  0.2942070938548226  1.0000
  C   C19       1.0  0.5002213201687127  0.1102861363068115  0.16177564951109955  1.0000
  C   C20       1.0  0.4987175902262138  0.1564876996105014  0.19205901770759223  1.0000
  C   C21       1.0  0.49525363054205235  0.3046234957094854  0.31269485039105394  1.0000
  C   C22       1.0  0.4932937868347338  0.3151376295236332  0.2501772472057837  1.0000
  C   C23       1.0  0.4941789490752271  0.2669549246113618  0.20985270319328458  1.0000
  C   C24       1.0  0.4972942317128712  0.20683230722664095  0.23133425157661944  1.0000
  C   C25       1.0  0.4991170445710651  0.19669840174680084  0.2944195515702432  1.0000
  C   C26       1.0  0.4979524393931741  0.24493710221606343  0.334256285231092  1.0000
  C   C27       1.0  0.4965963041483193  0.6468732379236002  0.6413415262891461  1.0000
  C   C28       1.0  0.5029382421539025  0.3547097079090733  0.6412942821763038  1.0000
  C   C29       1.0  0.4983039251046861  0.9453086950213534  0.8708205634775934  1.0000
  C   C30       1.0  0.49612704463302754  0.0006931413064066  0.8399568383747179  1.0000
  C   C31       1.0  0.4957348124122091  0.0560861687025636  0.870793619661292  1.0000
  C   C32       1.0  0.4967777512523099  0.05672778697051942  0.9353510714848454  1.0000
  C   C33       1.0  0.4995144673780699  0.0006684033274666  0.9672468445595611  1.0000
  C   C34       1.0  0.5004887073408995  0.9446014417373763  0.9353470959705632  1.0000
  C   C35       1.0  0.5037915371045258  0.8895868278508917  0.9684938169830417  1.0000
  C   C36       1.0  0.506039638808275  0.8895854508841907  0.030375832388344296  1.0000
  C   C37       1.0  0.4951822863143819  0.11036340462560901  0.837254572304438  1.0000
  C   C38       1.0  0.4961084533686702  0.15643406972966295  0.80673078307953  1.0000
  C   C39       1.0  0.497511136247077  0.20667166485451105  0.7672911439010262  1.0000
  C   C40       1.0  0.5071770864945222  0.26623393540741364  0.7882445333392809  1.0000
  C   C41       1.0  0.5088577632764882  0.31426190184919994  0.747762227121839  1.0000
  C   C42       1.0  0.5014764745153357  0.30400174324614687  0.6856436608229257  1.0000
  C   C43       1.0  0.49191805937778815  0.24490187073781305  0.6645526438032616  1.0000
  C   C44       1.0  0.48960443441924895  0.19686935139163356  0.7046432199074033  1.0000
  C   C45       1.0  0.4986647821010806  0.8910345360068205  0.8373592615713505  1.0000
  C   C46       1.0  0.4987728128270348  0.8448009245996174  0.8071193487027983  1.0000
  C   C47       1.0  0.49711497410634553  0.6975380270199381  0.6856880601475837  1.0000
  C   C48       1.0  0.496647889168642  0.6865371242524321  0.7481276890852936  1.0000
  C   C49       1.0  0.4973645168305012  0.7344065733675008  0.7887724677517907  1.0000
  C   C50       1.0  0.4985863467077892  0.7946755607249543  0.7675885612533405  1.0000
  C   C51       1.0  0.4994138077018704  0.8053043632683199  0.704566453700039  1.0000
  C   C52       1.0  0.4986362026589504  0.7573504470745079  0.6643799232068728  1.0000
  C   C53       1.0  0.6412614692083382  0.4963741990241672  0.6454853334660413  1.0000
  C   C54       1.0  0.6405975177205292  0.5065336471213442  0.3541734376586305  1.0000
  C   C55       1.0  0.8695524823158253  0.49803199257469544  0.9452527352145026  1.0000
  C   C56       1.0  0.8389986302346558  0.5025622335627773  0.0006232190062718  1.0000
  C   C57       1.0  0.87009592681855  0.5052404038716034  0.05583560934702088  1.0000
  C   C58       1.0  0.9347031410021388  0.5038626612160755  0.0562886130852362  1.0000
  C   C59       1.0  0.9663404339329277  0.49980888656448746  0.00017644421406969998  1.0000
  C   C60       1.0  0.934140972668523  0.4965216298341701  0.9443315863495271  1.0000
  C   C61       1.0  0.9670681450644595  0.49204848154963093  0.8893000836503404  1.0000
  C   C62       1.0  0.0290396931737078  0.49181215504609815  0.8890076906959267  1.0000
  C   C63       1.0  0.836636310322163  0.5088473834509487  0.11002638919408267  1.0000
  C   C64       1.0  0.8059241975005024  0.5111794076780144  0.1558997640408464  1.0000
  C   C65       1.0  0.7665397596767889  0.5123984653658341  0.2061651455354933  1.0000
  C   C66       1.0  0.7878385348646476  0.5060809223552312  0.2660801669321913  1.0000
  C   C67       1.0  0.7474520393338508  0.5052253968318399  0.314177676891596  1.0000
  C   C68       1.0  0.6850757386441017  0.5103490464650309  0.30372787892243014  1.0000
  C   C69       1.0  0.6637562909967656  0.5176891378466948  0.24437657221073286  1.0000
  C   C70       1.0  0.7036965903828332  0.5188895596183657  0.19620489451001077  1.0000
  C   C71       1.0  0.83571648668336  0.4953847921863785  0.8912303137728728  1.0000
  C   C72       1.0  0.805161788673459  0.4935869797003463  0.845199835465287  1.0000
  C   C73       1.0  0.6852486326195901  0.4938654024024063  0.696487928059291  1.0000
  C   C74       1.0  0.7477979771681051  0.49107829461507185  0.6863363214698238  1.0000
  C   C75       1.0  0.7878044941981772  0.4903719475937933  0.7347955697052627  1.0000
  C   C76       1.0  0.7659489407937342  0.4927182033443103  0.7947759241285509  1.0000
  C   C77       1.0  0.7028012988525844  0.4948602435018189  0.8045516232031531  1.0000
  C   C78       1.0  0.6632440314948979  0.49532744974479215  0.7560299982901525  1.0000
  C   C79       1.0  0.3562039966866379  0.4967080912886674  0.3547167472592746  1.0000
  C   C80       1.0  0.3581311160510268  0.5029625433256867  0.6467823868206466  1.0000
  C   C81       1.0  0.1278104248741627  0.5012384698731297  0.054811300206615995  1.0000
  C   C82       1.0  0.15832887740673843  0.4991757995789571  0.9992804947563271  1.0000
  C   C83       1.0  0.1271685350043725  0.4966689490159695  0.9440792465942919  1.0000
  C   C84       1.0  0.06257574689581702  0.49573370731915395  0.9437408042593987  1.0000
  C   C85       1.0  0.030952734497908793  0.4991664075988069  0.999890461283222  1.0000
  C   C86       1.0  0.0632019744287362  0.5020246948911194  0.0557451320160993  1.0000
  C   C87       1.0  0.03023699499887301  0.5055662309038524  0.1108143028035542  1.0000
  C   C88       1.0  0.9682735735958589  0.5065954002356534  0.11107362317611089  1.0000
  C   C89       1.0  0.1605738873141149  0.49580934732968274  0.8897649986533691  1.0000
  C   C90       1.0  0.1913976131830211  0.4962626841866609  0.8439074167453952  1.0000
  C   C91       1.0  0.23129537095962863  0.49800577088308273  0.7940746060219794  1.0000
  C   C92       1.0  0.21059937446165122  0.4949152956629704  0.7337108521007776  1.0000
  C   C93       1.0  0.2514666980874694  0.49711563617423593  0.6860917341777366  1.0000
  C   C94       1.0  0.3136783380020702  0.5021522070314149  0.6973718759660912  1.0000
  C   C95       1.0  0.33453759370703307  0.5052421639241517  0.7572598780198729  1.0000
  C   C96       1.0  0.2940850189938402  0.503300382813265  0.804990240757192  1.0000
  C   C97       1.0  0.1616128224582809  0.5020486648647235  0.10893256448252228  1.0000
  C   C98       1.0  0.19211602662135624  0.5014580008712031  0.1550292619627811  1.0000
  C   C99       1.0  0.3119036568937119  0.4963434110356673  0.3038745381242691  1.0000
  C   C100      1.0  0.2495553911560791  0.5023611078804109  0.3139526641686601  1.0000
  C   C101      1.0  0.209559757958111  0.5042106180499033  0.2654836050068354  1.0000
  C   C102      1.0  0.23121213579167232  0.499664833040228  0.20555026837158857  1.0000
  C   C103      1.0  0.29406754999541823  0.49296055583206305  0.19590584178389747  1.0000
  C   C104      1.0  0.3336060930617535  0.49148398400403454  0.2444272397655638  1.0000
  C   C105      1.0  0.3518364843449647  0.6414407165797941  0.503881516621874  1.0000
  C   C106      1.0  0.6440772010990089  0.6428727527663584  0.4952569826494865  1.0000
  C   C107      1.0  0.05293149672373691  0.8713266434487963  0.5006002278326349  1.0000
  C   C108      1.0  0.997199067073673  0.8411721073335774  0.4984823137819347  1.0000
  C   C109      1.0  0.9420987462649606  0.8726683044936439  0.49817862084085357  1.0000
  C   C110      1.0  0.9421115125025636  0.9372277337700227  0.49995260248280715  1.0000
  C   C111      1.0  0.9985442300689938  0.9684539279232638  0.502176040740288  1.0000
  C   C112      1.0  0.054318291356509  0.9358688915232779  0.5026434901171155  1.0000
  C   C113      1.0  0.10971316569029449  0.9684123554423394  0.5052278206928023  1.0000
  C   C114      1.0  0.11035052430995049  0.030338535909002897  0.5068883000126333  1.0000
  C   C115      1.0  0.8875430214330109  0.8397017972006114  0.4961622275405232  1.0000
  C   C116      1.0  0.8413748450584535  0.8093966244603622  0.4946552740030227  1.0000
  C   C117      1.0  0.7913562519270485  0.7697410888275656  0.49363587821514426  1.0000
  C   C118      1.0  0.7309831476776909  0.7907522545439254  0.49279428378274287  1.0000
  C   C119      1.0  0.6832373102831467  0.7499549732084959  0.4927617481048329  1.0000
  C   C120      1.0  0.6944745301985691  0.6875354246194122  0.4935175017511638  1.0000
  C   C121      1.0  0.7543952216393777  0.6664175181507163  0.4937696133386494  1.0000
  C   C122      1.0  0.8022343042852285  0.7067324900509036  0.4938111210167618  1.0000
  C   C123      1.0  0.10684943418830528  0.8371572027314544  0.500775325580392  1.0000
  C   C124      1.0  0.15267905293968914  0.8062082124707431  0.5010404435922737  1.0000
  C   C125      1.0  0.3007993353295504  0.6855094183355279  0.5041081397189301  1.0000
  C   C126      1.0  0.3112520662538003  0.747925238691359  0.5002909064405259  1.0000
  C   C127      1.0  0.2630158618693059  0.7882034717617401  0.4991236435178051  1.0000
  C   C128      1.0  0.20292590005153244  0.766715060793324  0.502021312652566  1.0000
  C   C129      1.0  0.19282737175810638  0.7037342333929005  0.5060786553050888  1.0000
  C   C130      1.0  0.24116934843587504  0.6638862913018997  0.5070039222828839  1.0000
  C   C131      1.0  0.6450101995262613  0.35887064359954485  0.5021976544381559  1.0000
  C   C132      1.0  0.35394172132740215  0.35801921546592314  0.49875629439957686  1.0000
  C   C133      1.0  0.9447973967505449  0.13013587090819104  0.5045391946730859  1.0000
  C   C134      1.0  0.0005040330974707999  0.16031300185129993  0.5066028494087504  1.0000
  C   C135      1.0  0.0556088572869982  0.1288118699072101  0.5071966690477153  1.0000
  C   C136      1.0  0.0556480479686456  0.0642367081865842  0.5061159463484728  1.0000
  C   C137      1.0  0.9992196820851263  0.0330081746259623  0.5039052477802883  1.0000
  C   C138      1.0  0.9434566809890869  0.06558240299332142  0.5031290818004805  1.0000
  C   C139      1.0  0.8880586038331728  0.0330349385332411  0.5010662459994819  1.0000
  C   C140      1.0  0.8874008862248175  0.9711060721579232  0.49960368880360295  1.0000
  C   C141      1.0  0.11019499958826628  0.1617596798794807  0.5079509335875514  1.0000
  C   C142      1.0  0.15644528276867217  0.19197553598442602  0.5074059147803567  1.0000
  C   C143      1.0  0.20654474393231234  0.23149825406827063  0.5055490993123044  1.0000
  C   C144      1.0  0.2668901189621025  0.21051259239761322  0.5078570788559915  1.0000
  C   C145      1.0  0.3147168357639529  0.2511450035219625  0.5053293040927187  1.0000
  C   C146      1.0  0.303556520320555  0.3134171290231579  0.500609620500569  1.0000
  C   C147      1.0  0.24367351338621293  0.3345320774773272  0.4984681349717377  1.0000
  C   C148      1.0  0.1957897698104105  0.29435527850159815  0.5007791035122438  1.0000
  C   C149      1.0  0.8907951149004703  0.1641818145421823  0.5036126178794902  1.0000
  C   C150      1.0  0.8446035638618242  0.19458740743327502  0.5027552067700327  1.0000
  C   C151      1.0  0.6958643389834974  0.3146091230865694  0.5034343071394005  1.0000
  C   C152      1.0  0.6864011009806391  0.2531309421844696  0.4911448424949468  1.0000
  C   C153      1.0  0.7348736620822649  0.21307486090717023  0.4904868693400032  1.0000
  C   C154      1.0  0.7940333287316574  0.23370328584061184  0.5029800698204028  1.0000
  C   C155      1.0  0.8029905141662752  0.2956200388419391  0.5160095922600405  1.0000
  C   C156      1.0  0.7545631330764166  0.3353731559767041  0.5158353975808865  1.0000
  O   O1        1.0  0.5454395081735938  0.5479471574217667  0.4527339223848088  1.0000
  O   O2        1.0  0.562753889099632  0.5643888321892518  0.5632389543266498  1.0000
  O   O3        1.0  0.4963597133204872  0.4096396506220543  0.3376944887035975  1.0000
  O   O4        1.0  0.5009781654409408  0.5930274348222468  0.3388936130822842  1.0000
  O   O5        1.0  0.4958192421993957  0.33971386543728244  0.41297480906231937  1.0000
  O   O6        1.0  0.49896682026692213  0.6628733591203613  0.4141988302248264  1.0000
  O   O7        1.0  0.4970775777984784  0.5926430062158374  0.6608629742225459  1.0000
  O   O8        1.0  0.5030348057586451  0.4089115348771558  0.6608364516486134  1.0000
  O   O9        1.0  0.4965560758691226  0.6625041648183301  0.5854460267467871  1.0000
  O   O10       1.0  0.5028971071488542  0.33912306574406875  0.5854304638794048  1.0000
  O   O11       1.0  0.4344231883997054  0.5640723115851572  0.4364612093181106  1.0000
  O   O12       1.0  0.6608549217248552  0.49759070028840574  0.5913370195518368  1.0000
  O   O13       1.0  0.6601358057182694  0.5040304819642644  0.4083637127821618  1.0000
  O   O14       1.0  0.5853569086538357  0.4981840825347277  0.6609623516846951  1.0000
  O   O15       1.0  0.5847708176781766  0.5049958755142542  0.3384471997108847  1.0000
  O   O16       1.0  0.33675225124994057  0.49727346862152205  0.4089439191699497  1.0000
  O   O17       1.0  0.3385065460580706  0.5022789528426017  0.5925924245008858  1.0000
  O   O18       1.0  0.4120959220360731  0.49762026572774687  0.33907382493624977  1.0000
  O   O19       1.0  0.41407241272763434  0.5031650114090738  0.6623080574286319  1.0000
  O   O20       1.0  0.5625908109929297  0.4374552474519646  0.4355919199660576  1.0000
  O   O21       1.0  0.4059306685194741  0.661261159786072  0.5031124873183614  1.0000
  O   O22       1.0  0.5897022648721517  0.662059133688615  0.4959671556453813  1.0000
  O   O23       1.0  0.33660665627260034  0.5854567520858467  0.5033784995835973  1.0000
  O   O24       1.0  0.6600825134478471  0.587096125475334  0.49706088639632634  1.0000
  O   O25       1.0  0.5908513795706227  0.3392270390725472  0.5002194161605047  1.0000
  O   O26       1.0  0.4083184805507969  0.33878182686823527  0.4985934096741359  1.0000
  O   O27       1.0  0.6604811648830874  0.4147523928737727  0.5023050230616661  1.0000
  O   O28       1.0  0.3380216985731437  0.413831292468018  0.4984527306334882  1.0000
  O   O29       1.0  0.4360179721606131  0.4367716828046611  0.563860411706642  1.0000
  O   O30       1.0  0.4519816879641213  0.45369866918174756  0.4530429552422746  1.0000
  O   O31       1.0  0.4519553134231416  0.5475009794132931  0.5470092222950811  1.0000
  O   O32       1.0  0.5462368256325476  0.4537699930960884  0.5463417313339036  1.0000
