data_image0
_chemical_formula_structural       Zn4Fe2H32C24Cl4O12
_chemical_formula_sum              "Zn4 Fe2 H32 C24 Cl4 O12"
_cell_length_a       9.637505813476423
_cell_length_b       10.853131733767023
_cell_length_c       10.865438453316798
_cell_angle_alpha    119.52823281173578
_cell_angle_beta     110.19725055541811
_cell_angle_gamma    94.53505029980835

_space_group_name_H-M_alt    "P 1"
_space_group_IT_number       1

loop_
  _space_group_symop_operation_xyz
  'x, y, z'

loop_
  _atom_site_type_symbol
  _atom_site_label
  _atom_site_symmetry_multiplicity
  _atom_site_fract_x
  _atom_site_fract_y
  _atom_site_fract_z
  _atom_site_occupancy
  Zn  Zn1       1.0  0.3626771424127853  0.8480079979831956  0.3716216907413071  1.0000
  Zn  Zn2       1.0  0.6373089338615471  0.1519817243060047  0.6283722339974319  1.0000
  Zn  Zn3       1.0  0.45558216701374477  0.5091689229598587  0.1327960755679457  1.0000
  Zn  Zn4       1.0  0.5444056535040217  0.49082639425280655  0.867203849693851  1.0000
  Fe  Fe1       1.0  0.28727670863960236  0.583967592063793  0.26048248619203207  1.0000
  Fe  Fe2       1.0  0.7127190140897283  0.4160245749842133  0.7395265957101811  1.0000
  H   H1        1.0  0.4802373303732209  0.1720285250711342  0.9788349845417343  1.0000
  H   H2        1.0  0.5197599071993223  0.8279723141024248  0.021162190122389245  1.0000
  H   H3        1.0  0.4430252082552428  0.19520184210787053  0.13866477509959912  1.0000
  H   H4        1.0  0.5569738195675029  0.8048012188624583  0.8613330986928958  1.0000
  H   H5        1.0  0.6892690297667982  0.0853204282961002  0.06780046218556615  1.0000
  H   H6        1.0  0.3107361770652161  0.914688267072684  0.9322047774294474  1.0000
  H   H7        1.0  0.6657503776190479  0.1388983170057116  0.2403834549145784  1.0000
  H   H8        1.0  0.33424208807615935  0.8611013826473339  0.7596126397314362  1.0000
  H   H9        1.0  0.9058552914931394  0.32705157188217265  0.3614716129770128  1.0000
  H   H10       1.0  0.09413747065019608  0.6729560569286619  0.6385412977406444  1.0000
  H   H11       1.0  0.8626208515857666  0.3261221656353542  0.18775884285989955  1.0000
  H   H12       1.0  0.13738409882785868  0.6738855598947354  0.8122568940650507  1.0000
  H   H13       1.0  0.7233384984579413  0.46402716844170294  0.4215108857971685  1.0000
  H   H14       1.0  0.27664897664649857  0.5359813808640865  0.5784898209862277  1.0000
  H   H15       1.0  0.7979246034783072  0.5454974942593012  0.33850507845316  1.0000
  H   H16       1.0  0.2020703560330758  0.4545066746294849  0.6614948582234419  1.0000
  H   H17       1.0  0.16393420974718959  0.0841972288884705  0.505064007025986  1.0000
  H   H18       1.0  0.836074371158304  0.9158046788112701  0.49492608357685713  1.0000
  H   H19       1.0  0.05006515956718253  0.89429927518794  0.40265736740767716  1.0000
  H   H20       1.0  0.9499311263830065  0.1057092583719594  0.597338643044779  1.0000
  H   H21       1.0  0.8670444178125574  0.9036400349402738  0.19097078315878233  1.0000
  H   H22       1.0  0.13296030320084634  0.0963707677919103  0.8090270460050136  1.0000
  H   H23       1.0  0.9099890519648708  0.0875785351815281  0.3537293959650184  1.0000
  H   H24       1.0  0.09002260695860534  0.9124333439497717  0.6462636973029772  1.0000
  H   H25       1.0  0.10622210190544477  0.18739973416391106  0.30551062368161297  1.0000
  H   H26       1.0  0.8937887277182595  0.8125987964726634  0.6944729914438097  1.0000
  H   H27       1.0  0.9633820379278573  0.052820699012428904  0.10971011178038739  1.0000
  H   H28       1.0  0.03662744324982014  0.9471734314420744  0.8902746444704872  1.0000
  H   H29       1.0  0.11032060098508376  0.879212311293948  0.07517149493413905  1.0000
  H   H30       1.0  0.8896892613185298  0.12078299022797981  0.924818546232771  1.0000
  H   H31       1.0  0.27040588891576073  0.04659146381283111  0.2259669321765969  1.0000
  H   H32       1.0  0.7296070357080991  0.9534028856396689  0.7740337019086068  1.0000
  C   C1        1.0  0.1592109234061211  0.6318311717394137  0.34713006452097506  1.0000
  C   C2        1.0  0.8407875035509986  0.3681698075097233  0.6528776634965752  1.0000
  C   C3        1.0  0.22305768526091893  0.3903714980643613  0.17197240894743965  1.0000
  C   C4        1.0  0.7769586054670582  0.6096298403134881  0.8280565624939412  1.0000
  C   C5        1.0  0.4696960697408698  0.6447599715064597  0.42193604932955947  1.0000
  C   C6        1.0  0.5303060590731618  0.35523875243075753  0.5780661876203154  1.0000
  C   C7        1.0  0.2051789500832655  0.6013814389134284  0.09860194516134874  1.0000
  C   C8        1.0  0.7948076633598404  0.3986062588712683  0.9014058885922436  1.0000
  C   C9        1.0  0.5323294488954102  0.22053144361021282  0.10616218304147641  1.0000
  C   C10       1.0  0.467669234480091  0.7794705054776117  0.8938350476661441  1.0000
  C   C11       1.0  0.6760248669069353  0.1763311365025686  0.16581354004586749  1.0000
  C   C12       1.0  0.3239756360617319  0.8236730817299643  0.8341881032550659  1.0000
  C   C13       1.0  0.8135583306836194  0.3192493978634304  0.2620913136011038  1.0000
  C   C14       1.0  0.18643891223231884  0.6807548972957065  0.7379176610213349  1.0000
  C   C15       1.0  0.7390074343684532  0.4415866892747361  0.3173438605581039  1.0000
  C   C16       1.0  0.2609889929531022  0.5584186250392734  0.6826589172607028  1.0000
  C   C17       1.0  0.08946594578075916  0.9818608293275732  0.3883793720361196  1.0000
  C   C18       1.0  0.9105352480747297  0.0181421685213579  0.6116126858424663  1.0000
  C   C19       1.0  0.960015568917548  0.008509744948931103  0.28572983701082677  1.0000
  C   C20       1.0  0.03999175993278207  0.9914988162765539  0.7142640164928833  1.0000
  C   C21       1.0  0.043330569165526384  0.06835259015946353  0.2198935039878975  1.0000
  C   C22       1.0  0.9566747756867923  0.9316459858292419  0.7800958314430629  1.0000
  C   C23       1.0  0.15758992497661245  0.9798794154134005  0.19492628511346077  1.0000
  C   C24       1.0  0.8424170603925559  0.0201136899539591  0.8050655006989088  1.0000
  Cl  Cl1       1.0  0.5473174994033554  0.9831089105335094  0.35180701903988143  1.0000
  Cl  Cl2       1.0  0.4526746301464258  0.0168753450983985  0.6481879362810261  1.0000
  Cl  Cl3       1.0  0.6570664919053468  0.6595785722563221  0.14667653104991257  1.0000
  Cl  Cl4       1.0  0.34291679648965356  0.3404199957491585  0.8533208317434741  1.0000
  O   O1        1.0  0.07172428935506756  0.660438552136668  0.4022463908718449  1.0000
  O   O2        1.0  0.9282667138733556  0.3395634580767393  0.5977586625902873  1.0000
  O   O3        1.0  0.17734608204302296  0.2623871734224394  0.11376869608928075  1.0000
  O   O4        1.0  0.82267818624625  0.7376076890119946  0.8862678440627574  1.0000
  O   O5        1.0  0.5874530638426805  0.6818442210598407  0.5307446641576091  1.0000
  O   O6        1.0  0.4125562959785041  0.31815660830011433  0.4692469814176973  1.0000
  O   O7        1.0  0.143919107788605  0.609957253203781  0.9903948750199945  1.0000
  O   O8        1.0  0.856056957901053  0.3900248772403216  0.009612582907713812  1.0000
  O   O9        1.0  0.5870127209045747  0.3815754372003326  0.1840769572746979  1.0000
  O   O10       1.0  0.41298406019230766  0.6184275566845585  0.815916520403128  1.0000
  O   O11       1.0  0.18214570559926097  0.9296451720324798  0.3019816545194941  1.0000
  O   O12       1.0  0.817845159216219  0.070342269302607  0.6980043353777248  1.0000
