data_image0
_chemical_formula_structural       ZnSiH16C24N4F6
_chemical_formula_sum              "Zn1 Si1 H16 C24 N4 F6"
_cell_length_a       7.776269438181249
_cell_length_b       13.999820214056614
_cell_length_c       13.999964495316858
_cell_angle_alpha    90.00023534085348
_cell_angle_beta     90.0007458773819
_cell_angle_gamma    89.99978957398929

_space_group_name_H-M_alt    "P 1"
_space_group_IT_number       1

loop_
  _space_group_symop_operation_xyz
  'x, y, z'

loop_
  _atom_site_type_symbol
  _atom_site_label
  _atom_site_symmetry_multiplicity
  _atom_site_fract_x
  _atom_site_fract_y
  _atom_site_fract_z
  _atom_site_occupancy
  Zn  Zn1       1.0  0.5000342528188212  0.49999411685597295  0.4999998453990172  1.0000
  Si  Si1       1.0  1.8142105019999997e-05  0.49999959058207816  0.4999987235625411  1.0000
  H   H1        1.0  0.23276027411350947  0.6622478821669516  0.49995848277464455  1.0000
  H   H2        1.0  0.22146117015984856  0.8394394541246442  0.49999309099828787  1.0000
  H   H3        1.0  0.7785136274986044  0.8394574980939637  0.49999156517910837  1.0000
  H   H4        1.0  0.7672376391077407  0.6622616617345115  0.4999483025972182  1.0000
  H   H5        1.0  0.22148414944715716  0.16056502173834286  0.4999588395903415  1.0000
  H   H6        1.0  0.23282314986968797  0.3377558579372178  0.499984245205212  1.0000
  H   H7        1.0  0.7672992316173931  0.3377096371814191  0.5001912083076832  1.0000
  H   H8        1.0  0.7785353232649115  0.16051449379137495  0.5001480283949957  1.0000
  H   H9        1.0  0.23277300823502148  0.5000475610632266  0.6622507041385075  1.0000
  H   H10       1.0  0.2214637157534227  0.500007220861349  0.8394425404689014  1.0000
  H   H11       1.0  0.7785161735078246  0.5000102647025814  0.8394724432700541  1.0000
  H   H12       1.0  0.7672465157621814  0.5000556263472262  0.662275524023947  1.0000
  H   H13       1.0  0.22147388855041325  0.5000458271771605  0.16056581890568816  1.0000
  H   H14       1.0  0.23281813201997886  0.50002260858723  0.3377548813083777  1.0000
  H   H15       1.0  0.767282637818184  0.4998142423954591  0.33771470055140884  1.0000
  H   H16       1.0  0.7785199163018461  0.4998567255458113  0.16052072109839338  1.0000
  C   C1        1.0  0.350908038641279  0.7039761632510063  0.4999547166072204  1.0000
  C   C2        1.0  0.3452288722757118  0.8030967272815918  0.4999763279511454  1.0000
  C   C3        1.0  0.49997898354573767  0.8553622518797472  0.4999784321346111  1.0000
  C   C4        1.0  0.6547526122705135  0.8031035770157476  0.49997460743338695  1.0000
  C   C5        1.0  0.6490947228770451  0.7039837380151324  0.4999508115969744  1.0000
  C   C6        1.0  0.49997605364509917  0.9564342641166023  0.49997649684205914  1.0000
  C   C7        1.0  0.4999844307570313  0.04355825541858141  0.49999962207976256  1.0000
  C   C8        1.0  0.5000085066182721  0.14463098201862581  0.5000434012894954  1.0000
  C   C9        1.0  0.34525673884444785  0.19690679987319024  0.5000150831675467  1.0000
  C   C10       1.0  0.35095063526699016  0.29602521025725537  0.5000424505708734  1.0000
  C   C11       1.0  0.6491488948543918  0.2959984991330841  0.5001735458750928  1.0000
  C   C12       1.0  0.6547779083902371  0.1968800779921267  0.5001312200131521  1.0000
  C   C13       1.0  0.3509124001779327  0.500052534916435  0.7039819580926049  1.0000
  C   C14       1.0  0.34522958413229077  0.5000270292410463  0.8031007599730412  1.0000
  C   C15       1.0  0.4999804833936209  0.5000169898568246  0.8553678893444354  1.0000
  C   C16       1.0  0.6547558962286857  0.5000288789364262  0.8031126109174451  1.0000
  C   C17       1.0  0.6490990846158409  0.5000565382398606  0.7039944816881202  1.0000
  C   C18       1.0  0.49996621770388566  0.50000148295063  0.9564395741566398  1.0000
  C   C19       1.0  0.4999698337002556  0.49998675089118194  0.04356225901758389  1.0000
  C   C20       1.0  0.49999929080189526  0.4999591009275549  0.14463251539035574  1.0000
  C   C21       1.0  0.345247025370952  0.49999364103329924  0.19690707976089775  1.0000
  C   C22       1.0  0.3509411299245713  0.4999652673981815  0.29602449483817844  1.0000
  C   C23       1.0  0.6491342442660084  0.4998335546165507  0.2960027323773388  1.0000
  C   C24       1.0  0.6547681936288754  0.4998769177104024  0.19688393035412588  1.0000
  N   N1        1.0  0.500002841090712  0.6547225323465325  0.4999458772115303  1.0000
  N   N2        1.0  0.500059235316719  0.34526713006689386  0.5001052422676935  1.0000
  N   N3        1.0  0.5000116040442536  0.5000594354801393  0.6547316664323829  1.0000
  N   N4        1.0  0.5000478999628157  0.4999009407426627  0.3452694528504451  1.0000
  F   F1        1.0  0.22663451829631504  0.49999509014418225  0.5000009842981683  1.0000
  F   F2        1.0  0.7734056960924035  0.49999742935801095  0.4999958492546809  1.0000
  F   F3        1.0  1.8132963098999997e-05  0.5858926600416154  0.4140908249570429  1.0000
  F   F4        1.0  1.5579389334199995e-05  0.4141100926140809  0.5859137650411909  1.0000
  F   F5        1.0  1.7542641160199998e-05  0.5859087273538963  0.5858926892611009  1.0000
  F   F6        1.0  2.5171470852599996e-05  0.41408545375169575  0.4141104721775335  1.0000
