data_image0
_chemical_formula_structural       Co2H28C40S2N4O14
_chemical_formula_sum              "Co2 H28 C40 S2 N4 O14"
_cell_length_a       8.931762279125524
_cell_length_b       10.089012685140432
_cell_length_c       12.758204158762632
_cell_angle_alpha    110.6000712587036
_cell_angle_beta     93.83433385118775
_cell_angle_gamma    111.10681626438813

_space_group_name_H-M_alt    "P 1"
_space_group_IT_number       1

loop_
  _space_group_symop_operation_xyz
  'x, y, z'

loop_
  _atom_site_type_symbol
  _atom_site_label
  _atom_site_symmetry_multiplicity
  _atom_site_fract_x
  _atom_site_fract_y
  _atom_site_fract_z
  _atom_site_occupancy
  Co  Co1       1.0  0.6603034105219266  0.10607164744116199  0.2013628052735186  1.0000
  Co  Co2       1.0  0.33969834634038426  0.8939330525930061  0.7986397762118573  1.0000
  H   H1        1.0  0.32342819309699433  0.033182681589316594  0.2809618748636282  1.0000
  H   H2        1.0  0.6765759020396943  0.9668196304555468  0.7190362553344728  1.0000
  H   H3        1.0  0.2431923376579945  0.0781061270776888  0.4719518889293822  1.0000
  H   H4        1.0  0.7568124683850854  0.9218927022636053  0.5280461159599881  1.0000
  H   H5        1.0  0.463147161888344  0.20776180216399356  0.6510398227198806  1.0000
  H   H6        1.0  0.5368556044396869  0.7922323818629876  0.3489568220895194  1.0000
  H   H7        1.0  0.7735002438186882  0.33875682007202107  0.7420435681399198  1.0000
  H   H8        1.0  0.2264988549790559  0.6612316135793962  0.2579552558951193  1.0000
  H   H9        1.0  0.06116239117975643  0.4229938064813296  0.7159716895996269  1.0000
  H   H10       1.0  0.9388403782790249  0.5770004499745482  0.28403046192040904  1.0000
  H   H11       1.0  0.2576342988811575  0.43319778017149707  0.581734824639291  1.0000
  H   H12       1.0  0.7423690889271412  0.5668080973528119  0.41826972425112524  1.0000
  H   H13       1.0  0.29284504945334794  0.36085881876001485  0.3768818605442306  1.0000
  H   H14       1.0  0.707161597563413  0.6391493516626667  0.6231219031185731  1.0000
  H   H15       1.0  0.04354399969412266  0.21907893972365136  0.21654285272079218  1.0000
  H   H16       1.0  0.9564627466933332  0.7809268828154928  0.78345871159528  1.0000
  H   H17       1.0  0.9699125358168886  0.0812080442871732  0.9501980510570293  1.0000
  H   H18       1.0  0.030082702181246552  0.9187920596032555  0.04980531421062301  1.0000
  H   H19       1.0  0.12032040844335512  0.1774075863455664  0.884037072519604  1.0000
  H   H20       1.0  0.8796711584464845  0.8225866843934284  0.11596217859008819  1.0000
  H   H21       1.0  0.9241385580983849  0.3097673119086295  0.9391636939393138  1.0000
  H   H22       1.0  0.07585565825321774  0.6902304279367042  0.060835844596560634  1.0000
  H   H23       1.0  0.9798581385212659  0.33429924235814923  0.08265530267762955  1.0000
  H   H24       1.0  0.02013648704665627  0.6657019756583437  0.9173444152061235  1.0000
  H   H25       1.0  0.6768424921118881  0.9712797420283368  0.9877545701287005  1.0000
  H   H26       1.0  0.32314887424757194  0.028719183089783898  0.012245932982665403  1.0000
  H   H27       1.0  0.6931013579308997  0.13627872658254597  0.0070652802224415966  1.0000
  H   H28       1.0  0.306897139722949  0.8637236805532494  0.9929380864905468  1.0000
  C   C1        1.0  0.4156628055288963  0.0895306375016389  0.3611507047518572  1.0000
  C   C2        1.0  0.5843407801262757  0.9104705235616278  0.6388478720992055  1.0000
  C   C3        1.0  0.3726522826388604  0.1158129912418957  0.468243817767842  1.0000
  C   C4        1.0  0.6273502831587833  0.8841858471642181  0.5317540790432247  1.0000
  C   C5        1.0  0.494718520491773  0.18855951199961402  0.5675889199566839  1.0000
  C   C6        1.0  0.5052851649813448  0.8114393115271027  0.4324082442205892  1.0000
  C   C7        1.0  0.6614185425002505  0.23734392318602465  0.5597591672340911  1.0000
  C   C8        1.0  0.33858636425527067  0.7626525893126939  0.4402389983273949  1.0000
  C   C9        1.0  0.7983663068413807  0.314942410288367  0.6563333542954837  1.0000
  C   C10       1.0  0.20163371110145076  0.6850506628627854  0.3436659891074143  1.0000
  C   C11       1.0  0.9570295617055252  0.35928132899169896  0.6423108130709565  1.0000
  C   C12       1.0  0.04297208673604294  0.6407129113026144  0.3576897110640331  1.0000
  C   C13       1.0  0.9916959324849871  0.3274285646848227  0.5299385298753805  1.0000
  C   C14       1.0  0.008307145030421645  0.6725714764378026  0.4700628536474767  1.0000
  C   C15       1.0  0.15213476473840612  0.3700673948917839  0.5090090437231538  1.0000
  C   C16       1.0  0.8478702526741204  0.6299396290817114  0.49099511255345624  1.0000
  C   C17       1.0  0.17123112970098478  0.3313879161471363  0.39665294982094684  1.0000
  C   C18       1.0  0.8287760272445439  0.6686214156041218  0.6033511538618512  1.0000
  C   C19       1.0  0.03152973345414269  0.2516232429017791  0.30565301464348243  1.0000
  C   C20       1.0  0.9684775224148228  0.7483837306189541  0.6943481030196282  1.0000
  C   C21       1.0  0.8583543892134458  0.24858678072980925  0.43292849702682906  1.0000
  C   C22       1.0  0.14165255770438268  0.751414387430202  0.5670718152875764  1.0000
  C   C23       1.0  0.692854697676971  0.20498015442490214  0.4481048222565178  1.0000
  C   C24       1.0  0.3071493974597175  0.795022157619954  0.5518933079415831  1.0000
  C   C25       1.0  0.5546175126360141  0.3016152928652147  0.17558909889169882  1.0000
  C   C26       1.0  0.4453809845705763  0.6983871039235936  0.8244134811483478  1.0000
  C   C27       1.0  0.4832371823675814  0.3993683752642454  0.1504520236521572  1.0000
  C   C28       1.0  0.5167585637703098  0.6006328485668248  0.8495485349436934  1.0000
  C   C29       1.0  0.32498347940597233  0.3570385478996698  0.0922844964491532  1.0000
  C   C30       1.0  0.6750102252278651  0.6429579892291457  0.9077115553749381  1.0000
  C   C31       1.0  0.07325990389948338  0.18929556329174343  0.9628962787926412  1.0000
  C   C32       1.0  0.9267359433980998  0.8107033540437314  0.037105227148273856  1.0000
  C   C33       1.0  0.02319697014996786  0.32332152185562524  0.002578962033105401  1.0000
  C   C34       1.0  0.9767977556831512  0.6766773689713047  0.9974201298498145  1.0000
  C   C35       1.0  0.3041184647331434  0.4831873867236213  0.07614241126001535  1.0000
  C   C36       1.0  0.6958779896276398  0.5168102923219706  0.923853301989418  1.0000
  C   C37       1.0  0.44796157270011616  0.6192586282777627  0.12102031269834161  1.0000
  C   C38       1.0  0.5520353911421907  0.3807402017494256  0.8789749538981297  1.0000
  C   C39       1.0  0.4741195801475086  0.7732557804912046  0.12300722713516168  1.0000
  C   C40       1.0  0.5258761664376339  0.2267454536868456  0.8769941181336379  1.0000
  S   S1        1.0  0.6062234121573981  0.5917295165597095  0.18310501207272978  1.0000
  S   S2        1.0  0.39377508191844873  0.408272807800202  0.8168920612566666  1.0000
  N   N1        1.0  0.5719154552180897  0.1321073282611351  0.35119140843998053  1.0000
  N   N2        1.0  0.42808752113763404  0.8678950193570856  0.648809027737812  1.0000
  N   N3        1.0  0.8786161813173409  0.21177414031084402  0.3230486272571511  1.0000
  N   N4        1.0  0.1213901554065372  0.7882281937101608  0.6769519710380933  1.0000
  O   O1        1.0  0.46168448953362445  0.1573985313852404  0.14921484840869684  1.0000
  O   O2        1.0  0.5383123771742362  0.8426026982604072  0.8507865508992579  1.0000
  O   O3        1.0  0.7063335784296569  0.3571109661236278  0.22220300614316807  1.0000
  O   O4        1.0  0.29366623898279437  0.6428867614066577  0.7777975892614037  1.0000
  O   O5        1.0  0.2026656054432507  0.21149917826220133  0.051760133211040206  1.0000
  O   O6        1.0  0.7973302405125792  0.7884997080323188  0.9482390127110278  1.0000
  O   O7        1.0  0.1598383943053818  0.4687809740357096  0.022298485260570485  1.0000
  O   O8        1.0  0.8401560194458499  0.5312120390015949  0.977694294562994  1.0000
  O   O9        1.0  0.3543417509934841  0.7895199568784294  0.079506800098315  1.0000
  O   O10       1.0  0.6456545041786727  0.21048240758725  0.9204925251716319  1.0000
  O   O11       1.0  0.6195573581782198  0.88189994565311  0.1730802812135011  1.0000
  O   O12       1.0  0.38043787713640853  0.11810009615540912  0.8269183640164641  1.0000
  O   O13       1.0  0.7279187519172723  0.0791704933213353  0.047351653008910005  1.0000
  O   O14       1.0  0.2720765850042992  0.9208272523385758  0.9526487262390616  1.0000
