data_image0
_chemical_formula_structural       Zn2H42C44N6O8
_chemical_formula_sum              "Zn2 H42 C44 N6 O8"
_cell_length_a       13.781977229942
_cell_length_b       15.970967129770084
_cell_length_c       17.124030844133333
_cell_angle_alpha    91.35183270000299
_cell_angle_beta     91.17652031396989
_cell_angle_gamma    94.7435217470982

_space_group_name_H-M_alt    "P 1"
_space_group_IT_number       1

loop_
  _space_group_symop_operation_xyz
  'x, y, z'

loop_
  _atom_site_type_symbol
  _atom_site_label
  _atom_site_symmetry_multiplicity
  _atom_site_fract_x
  _atom_site_fract_y
  _atom_site_fract_z
  _atom_site_occupancy
  Zn  Zn1       1.0  0.5093672748233901  0.4110287205134355  0.5062191287260942  1.0000
  Zn  Zn2       1.0  0.49170173741735823  0.5898483799626604  0.4923818153240234  1.0000
  H   H1        1.0  0.42830158030187704  0.4037491663682786  0.8927183505513623  1.0000
  H   H2        1.0  0.6377387823420406  0.13019160635901267  0.6046055266330582  1.0000
  H   H3        1.0  0.8848801640969839  0.3649782194065523  0.4278036487330893  1.0000
  H   H4        1.0  0.9912038073715195  0.3103663199258192  0.441865308604413  1.0000
  H   H5        1.0  0.8805230401291837  0.2746910855034556  0.48681108390682226  1.0000
  H   H6        1.0  0.9927818781179238  0.35179204342802706  0.5859707446615587  1.0000
  H   H7        1.0  0.8883001256452232  0.4078134275294899  0.5692852099853238  1.0000
  H   H8        1.0  0.09363979727390871  0.5642749150422119  0.3716496657733258  1.0000
  H   H9        1.0  0.9871223502566836  0.6198117923025918  0.36405733040870547  1.0000
  H   H10       1.0  0.1034411241906668  0.6760948243217726  0.37729073980131017  1.0000
  H   H11       1.0  0.017399904375977788  0.673199663325029  0.5043477965760131  1.0000
  H   H12       1.0  0.571119139614396  0.5959939304938403  0.10584537825211977  1.0000
  H   H13       1.0  0.12073746102101518  0.6136650706499296  0.5102837791715229  1.0000
  H   H14       1.0  0.4229037179528774  0.39981236069811377  0.7455931938036784  1.0000
  H   H15       1.0  0.5767194089054187  0.5999469888700232  0.25293778641196946  1.0000
  H   H16       1.0  0.45794833458399603  0.22201821996542037  0.17566244592460825  1.0000
  H   H17       1.0  0.338724664168339  0.2563527455848841  0.18059556281711756  1.0000
  H   H18       1.0  0.3693446215237942  0.19013171611301513  0.10186967464243678  1.0000
  H   H19       1.0  0.3670960430099017  0.3362541928751456  0.05607423252212128  1.0000
  H   H20       1.0  0.4834169682538559  0.3023496640993243  0.049649706605755684  1.0000
  H   H21       1.0  0.660856964935043  0.7437539680977993  0.8181005489662494  1.0000
  H   H22       1.0  0.5413322185750077  0.7773762816645868  0.8229681880943287  1.0000
  H   H23       1.0  0.45043936191570577  0.34553893737278674  0.2532545881305026  1.0000
  H   H24       1.0  0.6296624782794566  0.8097211496151572  0.8968043227701159  1.0000
  H   H25       1.0  0.516552561738969  0.6970201388419354  0.9491054837507631  1.0000
  H   H26       1.0  0.6330411955879072  0.6635573352558379  0.9424354734652451  1.0000
  H   H27       1.0  0.3842628040517154  0.7728368339251901  0.27338640476544634  1.0000
  H   H28       1.0  0.45754334831183024  0.6873259245577401  0.2882035076317847  1.0000
  H   H29       1.0  0.3357407434667863  0.6676552652097526  0.253166022102583  1.0000
  H   H30       1.0  0.3456474649831947  0.6337520637090178  0.39469326347924744  1.0000
  H   H31       1.0  0.2746224758538034  0.7195986785628249  0.3810654437994359  1.0000
  H   H32       1.0  0.5427928757743672  0.3125499732880569  0.7111957095423873  1.0000
  H   H33       1.0  0.6166660299796688  0.2274689053089105  0.7260384188320186  1.0000
  H   H34       1.0  0.5505183562735071  0.6537195320108464  0.7453672676665235  1.0000
  H   H35       1.0  0.6644378694333994  0.3328225472521281  0.7464890657206738  1.0000
  H   H36       1.0  0.7261308625560972  0.28118988225862296  0.61838503059122  1.0000
  H   H37       1.0  0.6548253345060644  0.36694496631692175  0.6049875654066594  1.0000
  H   H38       1.0  0.4201857193972316  0.2693817815785025  0.4287864596461261  1.0000
  H   H39       1.0  0.58021951829393  0.731451350111648  0.5708849525735786  1.0000
  H   H40       1.0  0.4148128989336826  0.11107957432891169  0.4236376161917759  1.0000
  H   H41       1.0  0.5851216878421397  0.8897748899121254  0.576261604734988  1.0000
  H   H42       1.0  0.36259483262853814  0.8704704554148462  0.39495311750678025  1.0000
  C   C1        1.0  0.5087267193906159  0.4782136328915526  0.34832822223530957  1.0000
  C   C2        1.0  0.463704275055008  0.14853733533945498  0.4639498072976734  1.0000
  C   C3        1.0  0.4738783782118148  0.890727554334383  0.48462535890554637  1.0000
  C   C4        1.0  0.5262844773841452  0.1100400268918591  0.5150931673853734  1.0000
  C   C5        1.0  0.41178659252126687  0.8406509707816383  0.4342248313543706  1.0000
  C   C6        1.0  0.5885690911974777  0.1600775127116236  0.5653739770813075  1.0000
  C   C7        1.0  0.4133341120256233  0.7529819833367313  0.4337854867192944  1.0000
  C   C8        1.0  0.5872781008357534  0.24776086215740634  0.5657281786658571  1.0000
  C   C9        1.0  0.3120644296483448  0.4632117462447169  0.49886749293391114  1.0000
  C   C10       1.0  0.6888809454744302  0.5396512899813641  0.5051855767105451  1.0000
  C   C11       1.0  0.7940059633718733  0.5482192446792309  0.5071916704018731  1.0000
  C   C12       1.0  0.49220686827101184  0.5212258785582834  0.6503550417544943  1.0000
  C   C13       1.0  0.2076393781413444  0.45475475954124517  0.5068476815645011  1.0000
  C   C14       1.0  0.9837224777395478  0.5402847425389721  0.5061296946132926  1.0000
  C   C15       1.0  0.019371267141785595  0.46411076433001597  0.5218714074387236  1.0000
  C   C16       1.0  0.11994012653159561  0.45676689631541467  0.514655159204622  1.0000
  C   C17       1.0  0.8824293447011158  0.5463930795185943  0.5074019923442348  1.0000
  C   C18       1.0  0.5111582171276297  0.4733434662516699  0.2609371927424958  1.0000
  C   C19       1.0  0.4892903152835473  0.526134275189122  0.737707845489666  1.0000
  C   C20       1.0  0.5466094580988354  0.544233591531686  0.22006366827367424  1.0000
  C   C21       1.0  0.4532215903595258  0.4554157526981584  0.7785215934279462  1.0000
  C   C22       1.0  0.5434821160309866  0.5422387460697637  0.1392192485061656  1.0000
  C   C23       1.0  0.4704608576822053  0.3964370778209626  0.13814885576333316  1.0000
  C   C24       1.0  0.45623468209859647  0.4574150677434119  0.8593697025609969  1.0000
  C   C25       1.0  0.503523203276238  0.4697728306379715  0.09808286730110889  1.0000
  C   C26       1.0  0.49632676427622613  0.529818965051767  0.9005670382940778  1.0000
  C   C27       1.0  0.9544265761741572  0.3873417316879256  0.5424857789702812  1.0000
  C   C28       1.0  0.926220884887556  0.33091382147124904  0.4704223612354283  1.0000
  C   C29       1.0  0.0484446997773773  0.6161225677289508  0.48253246706065056  1.0000
  C   C30       1.0  0.0586369077410751  0.6192765867924948  0.3935333731670454  1.0000
  C   C31       1.0  0.4289983990769742  0.3190456153524366  0.09230282580315219  1.0000
  C   C32       1.0  0.39717874869218417  0.24292996425554483  0.14056681051145145  1.0000
  C   C33       1.0  0.5709278016757365  0.6805711673726265  0.9063290602604965  1.0000
  C   C34       1.0  0.5296260758652025  0.6031023176155229  0.8605141752776289  1.0000
  C   C35       1.0  0.6022639943796763  0.7568131908789015  0.8580918524183543  1.0000
  C   C36       1.0  0.34895612735466136  0.699485645986627  0.3773210679134849  1.0000
  C   C37       1.0  0.3838191555762408  0.70772834970726  0.29300693221387764  1.0000
  C   C38       1.0  0.6517138666867552  0.30118048114322693  0.6222391715437253  1.0000
  C   C39       1.0  0.616715015495963  0.2925843709984548  0.7065039270617246  1.0000
  C   C40       1.0  0.47558545038226907  0.39993750796972455  0.21975863377331709  1.0000
  C   C41       1.0  0.5249768740363551  0.5994814793079329  0.7789173807304903  1.0000
  C   C42       1.0  0.5337824437714788  0.7655479757797392  0.5328804802905366  1.0000
  C   C43       1.0  0.46665506467940077  0.235273540166844  0.4667665541532385  1.0000
  C   C44       1.0  0.5364582467321739  0.8522732186891558  0.5358224880493478  1.0000
  N   N1        1.0  0.49618183129553023  0.4646179979325921  0.015993432711212594  1.0000
  N   N2        1.0  0.5035859023458827  0.5349634018655748  0.9826508725237911  1.0000
  N   N3        1.0  0.4743918428668719  0.7169034176192141  0.4830037145823737  1.0000
  N   N4        1.0  0.5262860584908111  0.28390917673608124  0.5164638412093792  1.0000
  N   N5        1.0  0.467647263561787  0.9786833436713279  0.4799116169884526  1.0000
  N   N6        1.0  0.5324431729484118  0.0220775272988618  0.5198196622287765  1.0000
  O   O1        1.0  0.510566869382231  0.4102389420509239  0.3854667582019998  1.0000
  O   O2        1.0  0.49770190531590686  0.5896321183007415  0.6134331709750427  1.0000
  O   O3        1.0  0.5037030600853143  0.5515297810699805  0.3784767554080729  1.0000
  O   O4        1.0  0.4902826433697385  0.4473746537686409  0.6198682655104546  1.0000
  O   O5        1.0  0.35719005051961267  0.3969913355611752  0.49619390136532343  1.0000
  O   O6        1.0  0.6438941844521863  0.6054492336445277  0.49804644851180035  1.0000
  O   O7        1.0  0.3491337806530552  0.5391400898234975  0.4956623921451779  1.0000
  O   O8        1.0  0.6511103500356513  0.4641624705840001  0.5106358142176859  1.0000
