data_image0
_chemical_formula_structural       Cd4H24C8N20Cl12
_chemical_formula_sum              "Cd4 H24 C8 N20 Cl12"
_cell_length_a       6.567935821120379
_cell_length_b       11.733578421490932
_cell_length_c       11.407691424014914
_cell_angle_alpha    90.00015428823673
_cell_angle_beta     90.0000661019089
_cell_angle_gamma    101.73183477413777

_space_group_name_H-M_alt    "P 1"
_space_group_IT_number       1

loop_
  _space_group_symop_operation_xyz
  'x, y, z'

loop_
  _atom_site_type_symbol
  _atom_site_label
  _atom_site_symmetry_multiplicity
  _atom_site_fract_x
  _atom_site_fract_y
  _atom_site_fract_z
  _atom_site_occupancy
  Cd  Cd1       1.0  0.26261632956278197  0.5548405432557147  0.9409440840610938  1.0000
  Cd  Cd2       1.0  0.7373829770629073  0.9451617220183836  0.440948781647762  1.0000
  Cd  Cd3       1.0  0.7373791194883452  0.44516284150217444  0.0590539875064877  1.0000
  Cd  Cd4       1.0  0.26261997936371273  0.05483728485405949  0.5590554261268605  1.0000
  H   H1        1.0  0.7112045975119302  0.7232401091897103  0.7761512542598721  1.0000
  H   H2        1.0  0.28878657050275075  0.7767616891220611  0.2761560835545466  1.0000
  H   H3        1.0  0.2887844439567857  0.27676242230290177  0.22384155769525182  1.0000
  H   H4        1.0  0.7112163859252904  0.22323731775167494  0.72384900082163  1.0000
  H   H5        1.0  0.36153943495146723  0.397241175845636  0.6919548661037209  1.0000
  H   H6        1.0  0.6384577972850141  0.1027654502788948  0.1919524103398018  1.0000
  H   H7        1.0  0.6384618717805566  0.6027656777483444  0.3080449586736051  1.0000
  H   H8        1.0  0.3615430882737769  0.8972361764608364  0.8080509208363011  1.0000
  H   H9        1.0  0.05183294824544049  0.6745561098673107  0.6742977737273107  1.0000
  H   H10       1.0  0.9481626789819018  0.8254418876787569  0.17430051256455664  1.0000
  H   H11       1.0  0.9481575167136214  0.32544206090757655  0.3256994212299134  1.0000
  H   H12       1.0  0.05184147471945981  0.17455624446939316  0.8257010654045586  1.0000
  H   H13       1.0  0.9484908629460804  0.703932961715459  0.5456760965732383  1.0000
  H   H14       1.0  0.05150619234118646  0.796065520746268  0.04567820485650029  1.0000
  H   H15       1.0  0.05150264394988109  0.2960652004703661  0.4543184685802544  1.0000
  H   H16       1.0  0.9485026217592322  0.2039369549557719  0.954323373120104  1.0000
  H   H17       1.0  0.8415306646780962  0.4327404828169962  0.5004851218399153  1.0000
  H   H18       1.0  0.15846953923504972  0.0672629516571916  0.00048490308836339984  1.0000
  H   H19       1.0  0.15846436319269946  0.5672576750801426  0.49951207311868717  1.0000
  H   H20       1.0  0.8415414432233702  0.9327412606117776  0.9995193046959866  1.0000
  H   H21       1.0  0.6194899407645735  0.3310255336269918  0.533545062747599  1.0000
  H   H22       1.0  0.3805048362385294  0.16897540042378978  0.0335426341887484  1.0000
  H   H23       1.0  0.3804959612926879  0.6689726500347392  0.46645826841911014  1.0000
  H   H24       1.0  0.6195048514521491  0.831025330132647  0.9664606969887896  1.0000
  C   C1        1.0  0.654068396359385  0.6392942070569633  0.7357240091697931  1.0000
  C   C2        1.0  0.34592807720957813  0.8607057134053377  0.23572735474697734  1.0000
  C   C3        1.0  0.345926081608475  0.3607065664096963  0.2642688027845422  1.0000
  C   C4        1.0  0.6540748792142067  0.1392932934645046  0.7642750998245444  1.0000
  C   C5        1.0  0.6506495788988148  0.48603561435993475  0.6222336975776128  1.0000
  C   C6        1.0  0.3493478799281036  0.0139638331179555  0.12223519988178567  1.0000
  C   C7        1.0  0.34935023808370863  0.5139590446517416  0.37776086757290966  1.0000
  C   C8        1.0  0.6506584421312526  0.986036035597131  0.8777690078950681  1.0000
  N   N1        1.0  0.7617832531724531  0.5945708392747449  0.6493427861625419  1.0000
  N   N2        1.0  0.23820773031304296  0.9054270971839884  0.14934443759661054  1.0000
  N   N3        1.0  0.23821025372634347  0.405427322913681  0.3506535321940517  1.0000
  N   N4        1.0  0.7617940288303232  0.0945727844049458  0.8506571403742098  1.0000
  N   N5        1.0  0.4831829501192431  0.564998886139385  0.7618009960687002  1.0000
  N   N6        1.0  0.5168075240360609  0.935001128787846  0.2618081601537767  1.0000
  N   N7        1.0  0.5168069649340482  0.43500190020242263  0.23819006268114856  1.0000
  N   N8        1.0  0.4831893485153529  0.0649978952614134  0.7382004306267687  1.0000
  N   N9        1.0  0.4817719283596846  0.4704918516925148  0.6908715256865603  1.0000
  N   N10       1.0  0.5182321603555238  0.029508652475755105  0.19087229812168255  1.0000
  N   N11       1.0  0.5182279861186885  0.5295071637585949  0.30912829907938283  1.0000
  N   N12       1.0  0.4817768799519939  0.9704903372250583  0.8091310330532264  1.0000
  N   N13       1.0  0.9599616167760415  0.6388289036565739  0.6047072342060814  1.0000
  N   N14       1.0  0.04003498233243616  0.8611680129146323  0.1047121471696215  1.0000
  N   N15       1.0  0.040034608368067465  0.3611683795149788  0.3952864543454594  1.0000
  N   N16       1.0  0.9599713397269201  0.1388318558004542  0.8952920606072393  1.0000
  N   N17       1.0  0.699012168859234  0.41541707066059536  0.5409042749840011  1.0000
  N   N18       1.0  0.3009816609134219  0.0845812739259131  0.040906821605503296  1.0000
  N   N19       1.0  0.3009786197928292  0.5845819705433969  0.45909379657609134  1.0000
  N   N20       1.0  0.6990222665893668  0.9154203442312581  0.9590982627746168  1.0000
  Cl  Cl1       1.0  0.38852512109870935  0.3482883924175794  0.960520099871871  1.0000
  Cl  Cl2       1.0  0.6114752780879158  0.15171292383382004  0.4605212707701653  1.0000
  Cl  Cl3       1.0  0.6114715252342509  0.6517141176225111  0.03947972489795858  1.0000
  Cl  Cl4       1.0  0.3885295229994483  0.8482869491725467  0.5394820604046799  1.0000
  Cl  Cl5       1.0  0.9223481491558942  0.43330758503199013  0.8551651478526523  1.0000
  Cl  Cl6       1.0  0.0776515850957367  0.06669254853051139  0.35516487807645797  1.0000
  Cl  Cl7       1.0  0.07764752610090402  0.5666923137233724  0.14483380031168738  1.0000
  Cl  Cl8       1.0  0.9223504977420518  0.933308203488835  0.644838453098785  1.0000
  Cl  Cl9       1.0  0.16470110803928875  0.7467630703460417  0.8613515311595845  1.0000
  Cl  Cl10      1.0  0.8352933778635647  0.7532389718909799  0.3613478630113107  1.0000
  Cl  Cl11      1.0  0.8352916227636772  0.2532411934261205  0.13864741700994898  1.0000
  Cl  Cl12      1.0  0.16470469195122212  0.24675917742359843  0.6386510851513093  1.0000
