data_image0
_chemical_formula_structural       Zn8H8C116Cl48O26F8
_chemical_formula_sum              "Zn8 H8 C116 Cl48 O26 F8"
_cell_length_a       21.549202047479046
_cell_length_b       21.549106179076666
_cell_length_c       34.44200204575076
_cell_angle_alpha    89.99979388797473
_cell_angle_beta     90.00072906633329
_cell_angle_gamma    90.00022547571176

_space_group_name_H-M_alt    "P 1"
_space_group_IT_number       1

loop_
  _space_group_symop_operation_xyz
  'x, y, z'

loop_
  _atom_site_type_symbol
  _atom_site_label
  _atom_site_symmetry_multiplicity
  _atom_site_fract_x
  _atom_site_fract_y
  _atom_site_fract_z
  _atom_site_occupancy
  Zn  Zn1       1.0  0.5526534401066954  0.5521538244248986  0.03304814976934271  1.0000
  Zn  Zn2       1.0  0.4473430149215218  0.5521509361114809  0.9669530807378949  1.0000
  Zn  Zn3       1.0  0.44734399904162103  0.44784813087913733  0.0330458151400848  1.0000
  Zn  Zn4       1.0  0.5526487971667393  0.44785029755097117  0.966955650432908  1.0000
  Zn  Zn5       1.0  0.4478467987716215  0.4473503458690898  0.4669549725933281  1.0000
  Zn  Zn6       1.0  0.44784535685963783  0.5526547558238517  0.5330468307160885  1.0000
  Zn  Zn7       1.0  0.5521520282391918  0.5526546867605616  0.46695294694682593  1.0000
  Zn  Zn8       1.0  0.5521543484386982  0.44734850515798996  0.5330456231098779  1.0000
  H   H1        1.0  0.5694098256506094  0.5718230108897873  0.15141965243935832  1.0000
  H   H2        1.0  0.4305960503488393  0.42817919289296213  0.15141722859019066  1.0000
  H   H3        1.0  0.4281743016790287  0.43059681984917836  0.3485808419253047  1.0000
  H   H4        1.0  0.5718142322607562  0.5694126048651569  0.3485830001094214  1.0000
  H   H5        1.0  0.43059273944415816  0.5718198081931405  0.8485777593006318  1.0000
  H   H6        1.0  0.5694073416905497  0.4281774645866817  0.8485831199869553  1.0000
  H   H7        1.0  0.571826315515537  0.4305920566180745  0.6514168881067945  1.0000
  H   H8        1.0  0.42818461093681043  0.5694072763447835  0.6514170301392638  1.0000
  C   C1        1.0  0.5000068292561934  0.6648373757482416  3.728181781000003e-07  1.0000
  C   C2        1.0  0.33445554121040283  0.49999717985733105  0.9999995489618102  1.0000
  C   C3        1.0  0.5000024596277228  0.5000037894375139  0.1043112776370165  1.0000
  C   C4        1.0  0.5000029322310694  0.335161520926505  1.0346604852999995e-06  1.0000
  C   C5        1.0  0.6655365321531406  0.49999977404218043  7.025250390300001e-06  1.0000
  C   C6        1.0  0.4999961104535728  0.5000015175061209  0.8956894897282981  1.0000
  C   C7        1.0  0.3351618589558639  0.4999995447698283  0.5000027752370144  1.0000
  C   C8        1.0  0.4999965944004359  0.6655426981595626  0.5000009229813003  1.0000
  C   C9        1.0  0.49999474534161686  0.5000071294340173  0.3956880676882833  1.0000
  C   C10       1.0  0.6648385672964494  0.49999276860492603  0.499995959748162  1.0000
  C   C11       1.0  0.49999919136408266  0.3344612166061509  0.5000010057471584  1.0000
  C   C12       1.0  0.5000038247403822  0.5000000337359367  0.6043124093317758  1.0000
  C   C13       1.0  0.26466554014493937  0.499998057139855  2.0117814610000034e-07  1.0000
  C   C14       1.0  0.23235507270158712  0.4443979377794989  0.9942068584284628  1.0000
  C   C15       1.0  0.167199994230721  0.444398272976656  0.9944336470735067  1.0000
  C   C16       1.0  0.2323549992188063  0.5555947144441902  0.005794969032130801  1.0000
  C   C17       1.0  0.1671999161526259  0.5555927306572954  0.0055696933665672  1.0000
  C   C18       1.0  0.13436187536726857  0.4999959445065302  1.7141840516000003e-06  1.0000
  C   C19       1.0  0.06546831898293698  0.4999989708416522  0.9999999284755462  1.0000
  C   C20       1.0  0.0325813619470665  0.5004431090992654  0.9648102048747091  1.0000
  C   C21       1.0  0.0325807368619024  0.49955664588147636  0.0351900299543715  1.0000
  C   C22       1.0  0.735327515412223  0.49999851921182886  4.1096682253000005e-06  1.0000
  C   C23       1.0  0.7676391490591213  0.5555957145199956  0.9942036406178686  1.0000
  C   C24       1.0  0.8327933039848787  0.5555935218044042  0.9944265935390888  1.0000
  C   C25       1.0  0.7676381740312622  0.4443999724094567  0.005799260413276401  1.0000
  C   C26       1.0  0.8327955727645957  0.4444010293893115  0.0055713104032336005  1.0000
  C   C27       1.0  0.8656306619716003  0.499996832906568  0.9999978917986638  1.0000
  C   C28       1.0  0.9345278766706997  0.4999960403647208  0.9999981664282133  1.0000
  C   C29       1.0  0.9674153536395023  0.5004406565516605  0.03518998080693341  1.0000
  C   C30       1.0  0.9674155111764194  0.49955581660500326  0.9648092866919953  1.0000
  C   C31       1.0  0.5393610207155105  0.5406346045978266  0.1676581708752067  1.0000
  C   C32       1.0  0.5401665678132588  0.5406846075786403  0.20830563692035756  1.0000
  C   C33       1.0  0.5801442184939843  0.5805006600726513  0.2301656885540453  1.0000
  C   C34       1.0  0.4606447210405165  0.4593656497206951  0.16765649697392607  1.0000
  C   C35       1.0  0.4598372151725272  0.45931494929507005  0.208303956702828  1.0000
  C   C36       1.0  0.41985954440088585  0.4194969150661833  0.2301626179972374  1.0000
  C   C37       1.0  0.45936096554083866  0.46064504187458505  0.3323434906825895  1.0000
  C   C38       1.0  0.4593118254774494  0.4598390925538638  0.2916963188475776  1.0000
  C   C39       1.0  0.41949798562968965  0.4198592284875885  0.26983481633561013  1.0000
  C   C40       1.0  0.5406281667118407  0.5393635479608251  0.3323445969397127  1.0000
  C   C41       1.0  0.5406806576999656  0.5401674103917102  0.2916965526661954  1.0000
  C   C42       1.0  0.5805014784207216  0.580143223479581  0.26983730988243343  1.0000
  C   C43       1.0  0.5000019720379996  0.4999999524489665  0.14769116008780256  1.0000
  C   C44       1.0  0.5000009455305373  0.5000006460014889  0.2293948890451247  1.0000
  C   C45       1.0  0.4999924486188405  0.5000072539602912  0.3523102176327555  1.0000
  C   C46       1.0  0.4999967234914208  0.5000019198521173  0.2706059080072762  1.0000
  C   C47       1.0  0.4606418857248826  0.5406339336720265  0.8323407628721143  1.0000
  C   C48       1.0  0.4598368028738946  0.5406832387562375  0.791693006373734  1.0000
  C   C49       1.0  0.4198607010261313  0.5804978672683561  0.7698322843233569  1.0000
  C   C50       1.0  0.5393592577756862  0.4593648245133081  0.8323437813159488  1.0000
  C   C51       1.0  0.5401686196452857  0.45931343254525087  0.7916948699936484  1.0000
  C   C52       1.0  0.580143813467835  0.4194984654851623  0.7698365887716749  1.0000
  C   C53       1.0  0.5406374496284555  0.4606395986172984  0.667654752304614  1.0000
  C   C54       1.0  0.5406879786935193  0.45983434422002023  0.7083027969903455  1.0000
  C   C55       1.0  0.5805021252827487  0.4198568315990272  0.7301649702945597  1.0000
  C   C56       1.0  0.45937195039122974  0.5393563927161508  0.6676546300116968  1.0000
  C   C57       1.0  0.4593199266084013  0.5401600215567868  0.708301511102917  1.0000
  C   C58       1.0  0.4195006553533531  0.580136480539771  0.7301600831075845  1.0000
  C   C59       1.0  0.4999998464027229  0.49999932177074397  0.8523087362677517  1.0000
  C   C60       1.0  0.5000036572303372  0.499997236055421  0.7706047169799319  1.0000
  C   C61       1.0  0.5000056573929825  0.5000008373264889  0.6476885173253919  1.0000
  C   C62       1.0  0.5000032387193655  0.4999968903109037  0.7293928269687271  1.0000
  C   C63       1.0  0.5000027945807589  0.2652036309123035  5.328097714000006e-07  1.0000
  C   C64       1.0  0.5022556078752699  0.23262956133199705  0.0352325606110639  1.0000
  C   C65       1.0  0.5022058250787752  0.167417111854455  0.03516585497238369  1.0000
  C   C66       1.0  0.49775443954276005  0.23263152449112562  0.9647685190648758  1.0000
  C   C67       1.0  0.4977988611159958  0.1674181467052804  0.9648345006307082  1.0000
  C   C68       1.0  0.5000006812238098  0.1345151477488002  9.938902679999952e-08  1.0000
  C   C69       1.0  0.5000000272668217  0.0655010618911547  0.9999995370974942  1.0000
  C   C70       1.0  0.5562340625985343  0.0326018963691652  0.9999272125321852  1.0000
  C   C71       1.0  0.44376591658586045  0.032601297088547206  7.228553025840002e-05  1.0000
  C   C72       1.0  0.5000022722403158  0.7347942511438531  0.9999996539034725  1.0000
  C   C73       1.0  0.5022554262557931  0.7673692577042459  0.9647673537190258  1.0000
  C   C74       1.0  0.5022068295523355  0.8325807788712966  0.9648355106824483  1.0000
  C   C75       1.0  0.49775486917443595  0.7673682049415976  0.03523252075540741  1.0000
  C   C76       1.0  0.49780001007087543  0.8325787985671125  0.0351659588633808  1.0000
  C   C77       1.0  0.5000016553879547  0.865481892686681  1.0177189651000006e-06  1.0000
  C   C78       1.0  0.49999900685873655  0.9344991404333172  1.2302754229000006e-06  1.0000
  C   C79       1.0  0.44376584405281955  0.9673986839302273  0.9999283238844042  1.0000
  C   C80       1.0  0.556233173113462  0.96739991943528  7.25514284454e-05  1.0000
  C   C81       1.0  0.4999981238820154  0.7353335278839664  0.5000011346826483  1.0000
  C   C82       1.0  0.5555956645923175  0.7676449376114005  0.5057959888410011  1.0000
  C   C83       1.0  0.5555939342853405  0.8328003088917127  0.505570899454419  1.0000
  C   C84       1.0  0.4443979260048039  0.7676447520724137  0.4942073690625577  1.0000
  C   C85       1.0  0.44439712838813245  0.8328015142292032  0.49443318261866415  1.0000
  C   C86       1.0  0.4999951318935274  0.8656373083038175  0.5000024395460727  1.0000
  C   C87       1.0  0.4999971236407035  0.934532509241649  0.5000000391700468  1.0000
  C   C88       1.0  0.4995562300643498  0.9674196182659214  0.5351904633921833  1.0000
  C   C89       1.0  0.5004404669098365  0.9674193579992477  0.46481041186591904  1.0000
  C   C90       1.0  0.49999951810204385  0.2646745633944008  0.5000002133621635  1.0000
  C   C91       1.0  0.4444039513447606  0.23236358444360408  0.50579905226882  1.0000
  C   C92       1.0  0.4444033568044076  0.1672068222824095  0.5055738193935042  1.0000
  C   C93       1.0  0.5555958858106252  0.23236522870834617  0.49419999556405975  1.0000
  C   C94       1.0  0.5555934396301795  0.1672075371362993  0.4944256656229483  1.0000
  C   C95       1.0  0.49999786954564485  0.1343698548526788  0.49999890848128803  1.0000
  C   C96       1.0  0.49999773399912323  0.06547372580992318  0.4999998571499161  1.0000
  C   C97       1.0  0.4995550681770952  0.032585222877102596  0.46480971975059754  1.0000
  C   C98       1.0  0.5004407344680429  0.0325878069058163  0.5351906493586966  1.0000
  C   C99       1.0  0.7347975382440737  0.4999961546629946  0.49999507723255476  1.0000
  C   C100      1.0  0.7673714680482179  0.49774193405306005  0.4647646792170192  1.0000
  C   C101      1.0  0.8325845563897758  0.49779171621452895  0.46483171803315315  1.0000
  C   C102      1.0  0.767368944106167  0.5022458628866102  0.535229509387797  1.0000
  C   C103      1.0  0.8325820309042554  0.5022005138755503  0.5351629904536637  1.0000
  C   C104      1.0  0.8654835838172514  0.49999687586546326  0.4999985015862762  1.0000
  C   C105      1.0  0.9344991323770913  0.49999654760949847  0.4999999380596662  1.0000
  C   C106      1.0  0.9673986165454309  0.44376226116709455  0.500072428018946  1.0000
  C   C107      1.0  0.9673993004153942  0.5562300354148988  0.4999277103828632  1.0000
  C   C108      1.0  0.2652033520424055  0.4999994071147639  0.5000010446622909  1.0000
  C   C109      1.0  0.23262987741775729  0.49774299980474257  0.5352314477627119  1.0000
  C   C110      1.0  0.16741725331543478  0.4977902054272788  0.535163828152797  1.0000
  C   C111      1.0  0.23263102693547213  0.5022487253975926  0.4647677688060697  1.0000
  C   C112      1.0  0.1674188680525006  0.5022017271960876  0.4648331264752983  1.0000
  C   C113      1.0  0.13451452214268758  0.49999682968050524  0.49999791064273313  1.0000
  C   C114      1.0  0.06550222197977008  0.4999966938814848  0.4999982162418277  1.0000
  C   C115      1.0  0.0326013471308784  0.5562291236755711  0.5000720592359756  1.0000
  C   C116      1.0  0.0326020524771948  0.44376227837676646  0.49992643370813994  1.0000
  Cl  Cl1       1.0  0.27284952112665917  0.6230694952373453  0.0138994032676507  1.0000
  Cl  Cl2       1.0  0.1271021110261472  0.6236404672453942  0.0120153655323634  1.0000
  Cl  Cl3       1.0  0.2728524128704136  0.3769242444697696  0.9861024566872345  1.0000
  Cl  Cl4       1.0  0.1270976139281501  0.37635177074560744  0.9879876552233071  1.0000
  Cl  Cl5       1.0  0.0727443642749961  0.5021426861382707  0.9217635042174592  1.0000
  Cl  Cl6       1.0  0.9272525626580191  0.49785416644706265  0.9217616889969662  1.0000
  Cl  Cl7       1.0  0.0727446067906001  0.4978553706774916  0.0782373411446997  1.0000
  Cl  Cl8       1.0  0.9272495736686109  0.5021421486487796  0.0782358065909108  1.0000
  Cl  Cl9       1.0  0.8728911885483654  0.3763560401231273  0.0120180362755278  1.0000
  Cl  Cl10      1.0  0.7271405683790633  0.37692653723762254  0.013906717658251501  1.0000
  Cl  Cl11      1.0  0.872888592486909  0.6236382048246796  0.987974380449792  1.0000
  Cl  Cl12      1.0  0.7271425723826184  0.623068990311573  0.9860978929273118  1.0000
  Cl  Cl13      1.0  0.49330333525261943  0.27249733013758975  0.9216493021141829  1.0000
  Cl  Cl14      1.0  0.49529291647253615  0.1270866618444302  0.9218913297686414  1.0000
  Cl  Cl15      1.0  0.5067036206634086  0.2724942087988468  0.0783522683868085  1.0000
  Cl  Cl16      1.0  0.5047074345074022  0.1270849262297276  0.0781073746587708  1.0000
  Cl  Cl17      1.0  0.6249717192761536  0.07288073314537509  0.999672229489221  1.0000
  Cl  Cl18      1.0  0.6249688202401842  0.9271153204378279  0.0003275017688509  1.0000
  Cl  Cl19      1.0  0.3750293465057623  0.0728835743436633  0.0003254357335010001  1.0000
  Cl  Cl20      1.0  0.3750291103155732  0.9271170642771197  0.9996749160463027  1.0000
  Cl  Cl21      1.0  0.49529370415854856  0.8729088813944444  0.0781096904342178  1.0000
  Cl  Cl22      1.0  0.4933068040302756  0.7274995974466093  0.07835141189344341  1.0000
  Cl  Cl23      1.0  0.5047091176901902  0.8729143665164469  0.9218922688813154  1.0000
  Cl  Cl24      1.0  0.5067037985740016  0.7275018434014981  0.9216488427806198  1.0000
  Cl  Cl25      1.0  0.3769275163065515  0.7271431947309281  0.48610279690307573  1.0000
  Cl  Cl26      1.0  0.37635332299370106  0.8728991176440387  0.48798724786677644  1.0000
  Cl  Cl27      1.0  0.6230686992483853  0.7271505601164207  0.5139000715996502  1.0000
  Cl  Cl28      1.0  0.6236388255655426  0.8728990711993417  0.5120155824639525  1.0000
  Cl  Cl29      1.0  0.49785443700085347  0.9272563405838171  0.5782382317328401  1.0000
  Cl  Cl30      1.0  0.5021443299342537  0.07275362176854118  0.5782365986908573  1.0000
  Cl  Cl31      1.0  0.5021421019418567  0.927254013893453  0.4217644761066879  1.0000
  Cl  Cl32      1.0  0.4978544150836442  0.07274988602989652  0.42176309921868693  1.0000
  Cl  Cl33      1.0  0.6236371140529826  0.12711089886010277  0.4879742664894451  1.0000
  Cl  Cl34      1.0  0.6230675230180224  0.2728607998636505  0.48609180521137324  1.0000
  Cl  Cl35      1.0  0.376359060545454  0.12711219946128693  0.5120250185496146  1.0000
  Cl  Cl36      1.0  0.3769329375567524  0.2728639481319917  0.513907441692119  1.0000
  Cl  Cl37      1.0  0.7275006290871245  0.5066987455836128  0.5783470480195163  1.0000
  Cl  Cl38      1.0  0.8729148238206362  0.5047054462441948  0.5781063547230261  1.0000
  Cl  Cl39      1.0  0.7275041159776449  0.4932916788029401  0.4216445000055772  1.0000
  Cl  Cl40      1.0  0.8729164672895704  0.49529019096157617  0.42189041735357347  1.0000
  Cl  Cl41      1.0  0.9271194982134716  0.37502615159311153  0.5003243627933429  1.0000
  Cl  Cl42      1.0  0.07287997219032859  0.3750263287723641  0.4996717504157715  1.0000
  Cl  Cl43      1.0  0.9271199833920463  0.6249678426982114  0.4996751641523646  1.0000
  Cl  Cl44      1.0  0.072880470592942  0.6249666239691721  0.5003250312298847  1.0000
  Cl  Cl45      1.0  0.1270856209420117  0.5047067474011796  0.421890046901531  1.0000
  Cl  Cl46      1.0  0.27250121568333446  0.5067006203994852  0.4216493491174376  1.0000
  Cl  Cl47      1.0  0.12708254824281787  0.4952854905494065  0.578105424805976  1.0000
  Cl  Cl48      1.0  0.27249628386089597  0.49329079764298467  0.5783513466594741  1.0000
  O   O1        1.0  0.49999629575273025  0.5000026967129897  1.4295593687000014e-06  1.0000
  O   O2        1.0  0.5474592637335078  0.638804792846912  0.0146321449316034  1.0000
  O   O3        1.0  0.36032121564060293  0.5247491534685337  0.9707304197069392  1.0000
  O   O4        1.0  0.47140067929247215  0.45547618019705993  0.0876071906423164  1.0000
  O   O5        1.0  0.4525505258029553  0.6388027473733401  0.9853697613618378  1.0000
  O   O6        1.0  0.5286006523399678  0.5445259258952362  0.08761022172576112  1.0000
  O   O7        1.0  0.3603226949106996  0.4752477148281571  0.029267492083519604  1.0000
  O   O8        1.0  0.45255172303726  0.3611954119888736  0.014632660150965602  1.0000
  O   O9        1.0  0.6396651045675981  0.4752608755557333  0.9707365247920094  1.0000
  O   O10       1.0  0.5474541897469152  0.3611974524728581  0.9853675490580542  1.0000
  O   O11       1.0  0.6396755957220391  0.5247454450632532  0.029282776637678903  1.0000
  O   O12       1.0  0.47139716483386707  0.5445225174086586  0.9123910259793818  1.0000
  O   O13       1.0  0.5285981796259591  0.45547485303085017  0.9123936770802034  1.0000
  O   O14       1.0  0.5000009092301596  0.5000031175318043  0.5000002385170248  1.0000
  O   O15       1.0  0.3611950635757282  0.45254569761259217  0.4853719595408563  1.0000
  O   O16       1.0  0.4752497527410497  0.6396774555088528  0.5292729613821407  1.0000
  O   O17       1.0  0.5445177335167343  0.5286055710315621  0.4123919457534697  1.0000
  O   O18       1.0  0.36119276314184384  0.5474521022050566  0.5146340888086344  1.0000
  O   O19       1.0  0.4554697761599442  0.47140441541279904  0.4123933973221839  1.0000
  O   O20       1.0  0.5247461186306026  0.639675864741335  0.4707318463201631  1.0000
  O   O21       1.0  0.6388046014449316  0.547448555999125  0.4853625068090963  1.0000
  O   O22       1.0  0.524743379188827  0.3603281474003098  0.5292752155271147  1.0000
  O   O23       1.0  0.6388070321787822  0.4525410552698759  0.5146283341167432  1.0000
  O   O24       1.0  0.47525881781238155  0.36033285866289333  0.47073080248210886  1.0000
  O   O25       1.0  0.45547630853875626  0.5285942195098556  0.5876073054249745  1.0000
  O   O26       1.0  0.5445300735349932  0.4714036235959399  0.5876062731316694  1.0000
  F   F1        1.0  0.6192345091374137  0.6184650186198581  0.2893955175997505  1.0000
  F   F2        1.0  0.6184684849943523  0.6192341847079561  0.2106068301281567  1.0000
  F   F3        1.0  0.38076442403765737  0.38153546482201517  0.2893936726682612  1.0000
  F   F4        1.0  0.3815409133563676  0.38075979029143525  0.210603831713442  1.0000
  F   F5        1.0  0.38076731137014247  0.6184586996033588  0.7106006276455192  1.0000
  F   F6        1.0  0.3815384431508022  0.619236233408884  0.7893890230513136  1.0000
  F   F7        1.0  0.6192355360667676  0.381533796725762  0.710605909992104  1.0000
  F   F8        1.0  0.6184660045097132  0.380762307333427  0.7893948816886578  1.0000
