data_image0
_chemical_formula_structural       Zn2H10C36N4O12F10
_chemical_formula_sum              "Zn2 H10 C36 N4 O12 F10"
_cell_length_a       9.96355067453156
_cell_length_b       11.243123287766506
_cell_length_c       23.801743593253136
_cell_angle_alpha    88.70342947150667
_cell_angle_beta     90.31520883378069
_cell_angle_gamma    90.79203585253518

_space_group_name_H-M_alt    "P 1"
_space_group_IT_number       1

loop_
  _space_group_symop_operation_xyz
  'x, y, z'

loop_
  _atom_site_type_symbol
  _atom_site_label
  _atom_site_symmetry_multiplicity
  _atom_site_fract_x
  _atom_site_fract_y
  _atom_site_fract_z
  _atom_site_occupancy
  Zn  Zn1       1.0  0.37178207878252323  0.49608710082713964  0.501211844391868  1.0000
  Zn  Zn2       1.0  0.6429687701399517  0.49469139604486406  0.4990822665020146  1.0000
  H   H1        1.0  0.7102384811797221  0.4629111713141327  0.2162507817981449  1.0000
  H   H2        1.0  0.7188716848577954  0.5365343415758161  0.7853349521722137  1.0000
  H   H3        1.0  0.7067042138329568  0.46299438812987853  0.32146591948044545  1.0000
  H   H4        1.0  0.7014477728630908  0.10779708537788221  0.508946798797993  1.0000
  H   H5        1.0  0.3920322170503852  0.09601386798976108  0.5148645517447221  1.0000
  H   H6        1.0  0.8758905291141517  0.3617145256977779  0.44688739899389407  1.0000
  H   H7        1.0  0.8970657262869324  0.5588811898555833  0.5255763612710139  1.0000
  H   H8        1.0  0.5044846488429185  0.2034521833676521  0.055060739705837095  1.0000
  H   H9        1.0  0.2942251093674599  0.4797853377005624  0.6780523581129642  1.0000
  H   H10       1.0  0.28535418294377024  0.532633041996789  0.21442093213423155  1.0000
  C   C1        1.0  0.5080929064818419  0.725731113751195  0.4979859982510746  1.0000
  C   C2        1.0  0.49179013458873283  0.7183356138086198  0.02777222604685649  1.0000
  C   C3        1.0  0.4903180214649582  0.7188453013006609  0.9682611794491081  1.0000
  C   C4        1.0  0.49285531828364526  0.6140749052890442  0.9384232811583002  1.0000
  C   C5        1.0  0.4967147423563318  0.5039178735885131  0.9692802514403168  1.0000
  C   C6        1.0  0.4997553096957573  0.394231001049242  0.9404515856249205  1.0000
  C   C7        1.0  0.5021917304178983  0.28876603439989174  0.9726437590853793  1.0000
  C   C8        1.0  0.5024669825342442  0.2875800672837698  0.0314090428565521  1.0000
  C   C9        1.0  0.49179833207588797  0.6171972890881322  0.8760589589135532  1.0000
  C   C10       1.0  0.5017270181936055  0.39255940700605413  0.8782428739258988  1.0000
  C   C11       1.0  0.38655302816786014  0.4903684100134528  0.759770357229712  1.0000
  C   C12       1.0  0.5048182335887006  0.5036047086595731  0.6093879219800584  1.0000
  C   C13       1.0  0.3871705554474402  0.4911362415888548  0.7016946144011199  1.0000
  C   C14       1.0  0.508201378991096  0.5064141118319726  0.6723517544607205  1.0000
  C   C15       1.0  0.6261119940265587  0.5225058431009302  0.7039060533640722  1.0000
  C   C16       1.0  0.6254439264023118  0.5228438786485867  0.7622907566983912  1.0000
  C   C17       1.0  0.504726716318075  0.5059889320899841  0.7905918283443966  1.0000
  C   C18       1.0  0.37841548881816317  0.5155948602956003  0.23719675816767696  1.0000
  C   C19       1.0  0.3789215690919647  0.5131828546396947  0.2956409188734668  1.0000
  C   C20       1.0  0.49621750240049783  0.49387955185600435  0.3272540343430279  1.0000
  C   C21       1.0  0.615045610205165  0.4767976662457798  0.29720664884254683  1.0000
  C   C22       1.0  0.6173118747035248  0.4774489650858555  0.23882481888045956  1.0000
  C   C23       1.0  0.5030613280722278  0.2639967803349137  0.5069191532788792  1.0000
  C   C24       1.0  0.49826619399304667  0.4971630086371449  0.20922702321319517  1.0000
  C   C25       1.0  0.6029521066234054  0.06380819698466672  0.510559595942162  1.0000
  C   C26       1.0  0.49308794089122904  0.13267977444588303  0.5110849993491868  1.0000
  C   C27       1.0  0.6070178939079794  0.9357901169694787  0.5112577699920919  1.0000
  C   C28       1.0  0.5048767856653316  0.8573520251068699  0.5010909550602918  1.0000
  C   C29       1.0  0.0707686048570508  0.42788216404439083  0.47405683609408567  1.0000
  C   C30       1.0  0.9228860251814197  0.4288130282652247  0.47366791684970627  1.0000
  C   C31       1.0  0.5004513552786419  0.49118097601650856  0.3903324343734979  1.0000
  C   C32       1.0  0.5006983065601744  0.38886231647751407  0.1218806843681008  1.0000
  C   C33       1.0  0.4965647693436209  0.612482473320327  0.1213914331249484  1.0000
  C   C34       1.0  0.49511623131595434  0.6125682878274006  0.05894150590356159  1.0000
  C   C35       1.0  0.4973545659725361  0.5039954228572228  0.0293120002806972  1.0000
  C   C36       1.0  0.5003684165714332  0.39394944165636764  0.059488725296063194  1.0000
  N   N1        1.0  0.4984201416867435  0.49916587599646794  0.14849287659191648  1.0000
  N   N2        1.0  0.5016045589131792  0.5054968294225902  0.8508880984216133  1.0000
  N   N3        1.0  0.1582396453154971  0.49360604425341154  0.4992490581056046  1.0000
  N   N4        1.0  0.8483680245381038  0.49810920261428043  0.501015881580642  1.0000
  O   O1        1.0  0.39527843317709005  0.6751713824644696  0.48886199820412907  1.0000
  O   O2        1.0  0.4961831767262978  0.7029594558574318  0.1490953765643965  1.0000
  O   O3        1.0  0.4842253460911508  0.7084108563354334  0.8471572337559649  1.0000
  O   O4        1.0  0.5047130084551696  0.3021406666194508  0.8505916593922507  1.0000
  O   O5        1.0  0.620931752498116  0.6757799059947021  0.5046587264615638  1.0000
  O   O6        1.0  0.39113796979641074  0.5212839431877612  0.5860522240004045  1.0000
  O   O7        1.0  0.6138902087190274  0.4823335423888794  0.5843783358324116  1.0000
  O   O8        1.0  0.39289861347164395  0.31837510966312277  0.5145033780293886  1.0000
  O   O9        1.0  0.6164540255962834  0.31309417921116284  0.49575761736959106  1.0000
  O   O10       1.0  0.3904813866962726  0.4739667640819719  0.4162320864344551  1.0000
  O   O11       1.0  0.6156546320289777  0.505485456034407  0.41308764122830144  1.0000
  O   O12       1.0  0.5024757216123489  0.2949364708860998  0.1491299215484432  1.0000
  F   F1        1.0  0.48954606934031364  0.8250232603903954  0.051500031654114806  1.0000
  F   F2        1.0  0.2597939347725173  0.5328778377992834  0.3209374446129729  1.0000
  F   F3        1.0  0.7320737920111853  0.8925899230296254  0.5208970526783077  1.0000
  F   F4        1.0  0.38171768984395277  0.9042887688775636  0.49154146186824477  1.0000
  F   F5        1.0  0.12303624436377447  0.34391028622809466  0.44274368651807805  1.0000
  F   F6        1.0  0.0979693756364668  0.5801259525021152  0.5316019413278354  1.0000
  F   F7        1.0  0.486966691689041  0.8260380247153807  0.9429521968498449  1.0000
  F   F8        1.0  0.5047527505329513  0.18239195957112034  0.9481443375199133  1.0000
  F   F9        1.0  0.26892198921567706  0.4745906398239653  0.7878685601587776  1.0000
  F   F10       1.0  0.7464594559375327  0.540923769392613  0.6785593398775162  1.0000
