data_image0
_chemical_formula_structural       Zn4H24C36N12Cl4O8
_chemical_formula_sum              "Zn4 H24 C36 N12 Cl4 O8"
_cell_length_a       7.297630378880677
_cell_length_b       9.017182167572232
_cell_length_c       17.616055688073065
_cell_angle_alpha    90.00002438574103
_cell_angle_beta     89.9996599452136
_cell_angle_gamma    90.4181011635621

_space_group_name_H-M_alt    "P 1"
_space_group_IT_number       1

loop_
  _space_group_symop_operation_xyz
  'x, y, z'

loop_
  _atom_site_type_symbol
  _atom_site_label
  _atom_site_symmetry_multiplicity
  _atom_site_fract_x
  _atom_site_fract_y
  _atom_site_fract_z
  _atom_site_occupancy
  Zn  Zn1       1.0  0.12345917091968063  0.8244483784375943  0.046128310154294604  1.0000
  Zn  Zn2       1.0  0.3765442978157483  0.17555001645318677  0.5461286061045669  1.0000
  Zn  Zn3       1.0  0.8765447940830597  0.17554680639326384  0.9538736177404846  1.0000
  Zn  Zn4       1.0  0.6234542536957264  0.8244474610106706  0.4538716188054438  1.0000
  H   H1        1.0  0.5330824328031627  0.6891555585409749  0.197112765955616  1.0000
  H   H2        1.0  0.9669041013589066  0.31085094620805614  0.6971157015749726  1.0000
  H   H3        1.0  0.4669013807013302  0.31085321355843837  0.8028851883185057  1.0000
  H   H4        1.0  0.0330891029169962  0.6891510416202563  0.30288509100629574  1.0000
  H   H5        1.0  0.42723577756444103  0.5115983177318243  0.09738737795594693  1.0000
  H   H6        1.0  0.07276300290309481  0.4884046057083752  0.5973907855162751  1.0000
  H   H7        1.0  0.5727670163286761  0.4884035390156924  0.9026117116212549  1.0000
  H   H8        1.0  0.9272342780561618  0.511596217078001  0.40261171005158763  1.0000
  H   H9        1.0  0.23808636261670565  0.2124026885222605  0.27326861297267163  1.0000
  H   H10       1.0  0.2619180323811747  0.7875947048823876  0.7732716083411832  1.0000
  H   H11       1.0  0.7619056042545013  0.7876037534932862  0.7267327472746317  1.0000
  H   H12       1.0  0.7380954890873213  0.21239924000316524  0.2267308872053064  1.0000
  H   H13       1.0  0.343541905373968  0.3905842746106599  0.3714175987109557  1.0000
  H   H14       1.0  0.15646510560523552  0.6094086978284495  0.8714191183211926  1.0000
  H   H15       1.0  0.6564528676677527  0.6094243476834438  0.6285820585411416  1.0000
  H   H16       1.0  0.8435469465282142  0.39058193918605616  0.12858110657092686  1.0000
  H   H17       1.0  0.3170233412078289  0.0337462254979428  0.17166288749662334  1.0000
  H   H18       1.0  0.18297978944988094  0.9662533499255301  0.6716638526969376  1.0000
  H   H19       1.0  0.6829766465108377  0.9662534509712304  0.8283384727397449  1.0000
  H   H20       1.0  0.817025644919397  0.0337451427747339  0.328335804540501  1.0000
  H   H21       1.0  0.1326922266642754  0.4030119727597139  0.0440137026455147  1.0000
  H   H22       1.0  0.3673112382482699  0.5969853117439499  0.5440163877380826  1.0000
  H   H23       1.0  0.867315848196917  0.5969831558924882  0.9559842515962985  1.0000
  H   H24       1.0  0.6326900531425893  0.403012128268827  0.4559849724963812  1.0000
  C   C1        1.0  0.5140498745826464  0.6518919558219382  0.3508793297689152  1.0000
  C   C2        1.0  0.9859492980068723  0.3481044738779175  0.8508827931751314  1.0000
  C   C3        1.0  0.4859379162098563  0.3481123246389685  0.649118624499657  1.0000
  C   C4        1.0  0.0140561694745074  0.6518951276888955  0.1491202700461685  1.0000
  C   C5        1.0  0.4494792882950379  0.5490754837286503  0.290136517590355  1.0000
  C   C6        1.0  0.050519459244313204  0.4509242144555331  0.7901394054410816  1.0000
  C   C7        1.0  0.5505100381157604  0.45093432233332453  0.7098620043408559  1.0000
  C   C8        1.0  0.9494831358148019  0.5490709891010681  0.2098625224554453  1.0000
  C   C9        1.0  0.4698161253895776  0.5839573214356478  0.21312777006023967  1.0000
  C   C10       1.0  0.0301768074034072  0.4160413060605421  0.7131301339591192  1.0000
  C   C11       1.0  0.5301703285989562  0.41604808661611503  0.7868696165461913  1.0000
  C   C12       1.0  0.9698217441041308  0.5839561714035143  0.2868706586148591  1.0000
  C   C13       1.0  0.4110089514419499  0.4848259874997254  0.15737812321579273  1.0000
  C   C14       1.0  0.08898749446956343  0.5151725624022632  0.6573820633311699  1.0000
  C   C15       1.0  0.588986959601236  0.5151748540109651  0.8426203987060604  1.0000
  C   C16       1.0  0.9110110901697653  0.484826023927326  0.3426192969068538  1.0000
  C   C17       1.0  0.330854043244024  0.35096862692684994  0.180122234130387  1.0000
  C   C18       1.0  0.1691476332678405  0.6490320821793529  0.6801242981729203  1.0000
  C   C19       1.0  0.6691460107539627  0.6490332672725572  0.819877990778217  1.0000
  C   C20       1.0  0.830855028066651  0.3509653391076881  0.3198770620598027  1.0000
  C   C21       1.0  0.30888819455026356  0.3141777329599408  0.2566938822585527  1.0000
  C   C22       1.0  0.1911123536412731  0.6858208135524535  0.7566970342248425  1.0000
  C   C23       1.0  0.6911064128167937  0.6858253450073377  0.7433052073291719  1.0000
  C   C24       1.0  0.8088930807161959  0.3141776791484289  0.24330432600448404  1.0000
  C   C25       1.0  0.367621027243203  0.4141232131089012  0.31154889088200133  1.0000
  C   C26       1.0  0.1323814337296199  0.5858731177205029  0.811552169244358  1.0000
  C   C27       1.0  0.6323723427112924  0.5858843190460307  0.6884519016996862  1.0000
  C   C28       1.0  0.8676252380207219  0.4141209207937564  0.18845032631082864  1.0000
  C   C29       1.0  0.2509437631811835  0.10053297540997619  0.1286317796992336  1.0000
  C   C30       1.0  0.24905585448026807  0.8994666252057256  0.6286331299249426  1.0000
  C   C31       1.0  0.7490602680890676  0.8994644271517277  0.8713707158596835  1.0000
  C   C32       1.0  0.7509454700502474  0.10053192367217181  0.3713676626456391  1.0000
  C   C33       1.0  0.160993798602  0.28966546432563683  0.0614068778281407  1.0000
  C   C34       1.0  0.33900531524126626  0.7103318888792742  0.5614090926043505  1.0000
  C   C35       1.0  0.8390116026315655  0.7103319195093077  0.9385927794092127  1.0000
  C   C36       1.0  0.6609959430217459  0.289664442267771  0.4385911323021078  1.0000
  N   N1        1.0  0.15375104568020967  0.04880723130430199  0.0713404115484835  1.0000
  N   N2        1.0  0.3462465936013644  0.951191256643234  0.5713392563105304  1.0000
  N   N3        1.0  0.8462529856018508  0.9511901712567904  0.9286603810185385  1.0000
  N   N4        1.0  0.6537505879822234  0.0488062395455415  0.428658697945366  1.0000
  N   N5        1.0  0.0965565247346589  0.1677890899049359  0.029071103411794808  1.0000
  N   N6        1.0  0.4034416676796583  0.8322082587408346  0.5290703439516307  1.0000
  N   N7        1.0  0.9034488102274597  0.8322060761993625  0.9709285538253883  1.0000
  N   N8        1.0  0.5965554807564075  0.16778812858323283  0.4709293132960753  1.0000
  N   N9        1.0  0.2572915049112511  0.2516363014470072  0.12477337673144721  1.0000
  N   N10       1.0  0.2427095362135674  0.7483632776644454  0.6247741413017993  1.0000
  N   N11       1.0  0.7427097864835518  0.7483611385655706  0.8752274158390494  1.0000
  N   N12       1.0  0.757293191400237  0.2516363613528299  0.3752260836031596  1.0000
  Cl  Cl1       1.0  0.3796495768136269  0.7560394445230472  0.9874794522741868  1.0000
  Cl  Cl2       1.0  0.1203587631178706  0.24396022722751803  0.4874784655764375  1.0000
  Cl  Cl3       1.0  0.620350444068322  0.2439613408100101  0.012517934314523404  1.0000
  Cl  Cl4       1.0  0.8796439976395264  0.756040520654672  0.5125206240006861  1.0000
  O   O1        1.0  0.5091200293630678  0.6067280175205809  0.41960867768996485  1.0000
  O   O2        1.0  0.9908878126942541  0.39326943945410875  0.9196127064357925  1.0000
  O   O3        1.0  0.49087754986490495  0.39328278505125513  0.5803870059110706  1.0000
  O   O4        1.0  0.009121731490168402  0.6067289970697586  0.0803892214522861  1.0000
  O   O5        1.0  0.5743695085180817  0.7818072555108345  0.334740013780504  1.0000
  O   O6        1.0  0.9256259106214987  0.21819365420686415  0.8347453038458426  1.0000
  O   O7        1.0  0.4256267007780679  0.21820356578613337  0.6652539668303775  1.0000
  O   O8        1.0  0.0743740108060464  0.7818038045326788  0.16525889471017766  1.0000
