data_image0
_chemical_formula_structural       Al3H36C63N3O27
_chemical_formula_sum              "Al3 H36 C63 N3 O27"
_cell_length_a       4.132203833167352
_cell_length_b       23.330339017659313
_cell_length_c       23.330616737390063
_cell_angle_alpha    119.99709945122031
_cell_angle_beta     89.99912942425475
_cell_angle_gamma    89.99993122994795

_space_group_name_H-M_alt    "P 1"
_space_group_IT_number       1

loop_
  _space_group_symop_operation_xyz
  'x, y, z'

loop_
  _atom_site_type_symbol
  _atom_site_label
  _atom_site_symmetry_multiplicity
  _atom_site_fract_x
  _atom_site_fract_y
  _atom_site_fract_z
  _atom_site_occupancy
  Al  Al1       1.0  0.006817782412404898  0.9996392000108256  0.4998206986377839  1.0000
  Al  Al2       1.0  0.0068496562159693995  0.33349548909043136  0.166463339910834  1.0000
  Al  Al3       1.0  0.006780771518613401  0.6668336398875494  0.8336891861584804  1.0000
  H   H1        1.0  0.2004161390139245  0.8690704869907434  0.920359422166847  1.0000
  H   H2        1.0  0.20835078188246572  0.9758897230595023  0.922734336187716  1.0000
  H   H3        1.0  0.8137644051038747  0.8892925530349413  0.7487600465309042  1.0000
  H   H4        1.0  0.8137938484059788  0.026104832974986832  0.9440145194463696  1.0000
  H   H5        1.0  0.2004946710938  0.21792514207984232  0.9642488339547128  1.0000
  H   H6        1.0  0.20832606575159932  0.11349040406648196  0.8574318580671303  1.0000
  H   H7        1.0  0.8137946138721263  0.08456527227213678  0.807205159586502  1.0000
  H   H8        1.0  0.2004750095615506  0.9129763809376216  0.6153938823018025  1.0000
  H   H9        1.0  0.2083283296053438  0.9105987530186466  0.7198358650568791  1.0000
  H   H10       1.0  0.8078851934380822  0.42189253081196637  0.37062349651155563  1.0000
  H   H11       1.0  0.7982417018460951  0.4232009663822607  0.4768836454945529  1.0000
  H   H12       1.0  0.19409167581691383  0.2490203373589067  0.3886106784194183  1.0000
  H   H13       1.0  0.194055797774439  0.4447289892613  0.5270710183308793  1.0000
  H   H14       1.0  0.8078773597273213  0.4626806300092452  0.7179060679452717  1.0000
  H   H15       1.0  0.798257946144453  0.3564304839709748  0.6129550584813614  1.0000
  H   H16       1.0  0.1940588134963619  0.3062595151965154  0.5843111573692283  1.0000
  H   H17       1.0  0.8078800017777112  0.11542121933791095  0.41144082817016436  1.0000
  H   H18       1.0  0.7982382341131853  0.2203713367115583  0.4101302213305332  1.0000
  H   H19       1.0  0.8078831018082938  0.44895816845249925  0.07820820371728843  1.0000
  H   H20       1.0  0.797036165691189  0.5539858297872653  0.0768989210344558  1.0000
  H   H21       1.0  0.19260022779877056  0.6395761836703285  0.2510082207353078  1.0000
  H   H22       1.0  0.19260163167559338  0.582342761937511  0.055265983798236176  1.0000
  H   H23       1.0  0.8078616740303417  0.7551312077059222  0.037405402146951906  1.0000
  H   H24       1.0  0.7970226907617501  0.7564544688837385  0.14375016402615876  1.0000
  H   H25       1.0  0.19259479225380016  0.7780948230383443  0.19375834913039117  1.0000
  H   H26       1.0  0.8078586928879331  0.7959362809782602  0.3843941262041853  1.0000
  H   H27       1.0  0.7970147544556667  0.689594289214483  0.2793755243969329  1.0000
  H   H28       1.0  0.9899925384548499  0.7523678833837688  0.7601336847943043  1.0000
  H   H29       1.0  0.9900920951804648  0.17439744529784207  0.0809352079428152  1.0000
  H   H30       1.0  0.990075007749681  0.07319184705623621  0.6589088703373491  1.0000
  H   H31       1.0  0.01980305907478201  0.2615889873507696  0.2524766387298882  1.0000
  H   H32       1.0  0.019778589703470597  0.5808505135672702  0.6757749875081629  1.0000
  H   H33       1.0  0.019789829733746003  0.15755742294980016  0.5717426229225637  1.0000
  H   H34       1.0  0.020211600259465  0.4907090038138051  0.23837160566395005  1.0000
  H   H35       1.0  0.020181906243465202  0.5949605612553412  0.91902616575738  1.0000
  H   H36       1.0  0.0202100298812837  0.9143340510399938  0.34261120106626214  1.0000
  C   C1        1.0  0.5045176188536331  0.9103224967116926  0.41251980115394815  1.0000
  C   C2        1.0  0.506929396678018  0.00012905130608935773  0.5885822922758805  1.0000
  C   C3        1.0  0.5048468378271949  0.08739685276062659  0.4978708619661703  1.0000
  C   C4        1.0  0.5069695476316128  0.24472964749970316  0.07819928306258822  1.0000
  C   C5        1.0  0.504542604582589  0.4208009247540189  0.16444794829912013  1.0000
  C   C6        1.0  0.5048439790665071  0.33545537870406145  0.25617737546367886  1.0000
  C   C7        1.0  0.5068670459468478  0.7551090789710385  0.8331991131949579  1.0000
  C   C8        1.0  0.5044968087955723  0.668863116789872  0.9230164756654632  1.0000
  C   C9        1.0  0.5048170113268425  0.5771303599187332  0.7459373712039579  1.0000
  C   C10       1.0  0.341129533447031  0.874147117576882  0.8835809438095412  1.0000
  C   C11       1.0  0.3392706606263047  0.9339530702661417  0.8842128095016905  1.0000
  C   C12       1.0  0.5025488347979064  0.9398375201286268  0.8345546037280374  1.0000
  C   C13       1.0  0.6784911476650847  0.8857271514808287  0.7867592145634674  1.0000
  C   C14       1.0  0.6951120351933683  0.8267066745922804  0.7879957345431309  1.0000
  C   C15       1.0  0.5150705094997365  0.8198942826960545  0.8354154189501132  1.0000
  C   C16       1.0  0.678538802823539  0.0676717564170487  0.9475824937657863  1.0000
  C   C17       1.0  0.6951923307378038  0.12792507347357676  0.006599712990997403  1.0000
  C   C18       1.0  0.5151885691859306  0.18215908725146324  0.013417571884055199  1.0000
  C   C19       1.0  0.3411633591671261  0.1760710859802472  0.9591652861094957  1.0000
  C   C20       1.0  0.3392858438543128  0.11690518308571979  0.8993675765127732  1.0000
  C   C21       1.0  0.5025817800415809  0.06136088295557562  0.8934785523289647  1.0000
  C   C22       1.0  0.678520089105838  0.04656426634115007  0.7656403630408306  1.0000
  C   C23       1.0  0.6951748124107127  0.04532974899050389  0.7053839244765002  1.0000
  C   C24       1.0  0.5151598859429567  0.9979163622521195  0.6511576633122687  1.0000
  C   C25       1.0  0.3411485835690939  0.9497509681612823  0.6572472670470262  1.0000
  C   C26       1.0  0.33928263403606  0.9491169243877451  0.7164191217130524  1.0000
  C   C27       1.0  0.5025706126851119  0.9987695653788358  0.7719567461600928  1.0000
  C   C28       1.0  0.6671346072475899  0.3848310252452904  0.3751989553887043  1.0000
  C   C29       1.0  0.6677297959076113  0.38489212029487874  0.43472146690406543  1.0000
  C   C30       1.0  0.5038269418502354  0.33496981932363906  0.4400460187058073  1.0000
  C   C31       1.0  0.32905593038346853  0.2873641886109652  0.3855996801507189  1.0000
  C   C32       1.0  0.31377120382655477  0.2890991669948589  0.3268150691056633  1.0000
  C   C33       1.0  0.49363169087538245  0.33695511488142665  0.32062685919039075  1.0000
  C   C34       1.0  0.3290425098318863  0.4477322917426675  0.5684195552318627  1.0000
  C   C35       1.0  0.3137548210702619  0.5065136942577408  0.628946392165922  1.0000
  C   C36       1.0  0.49359839340166184  0.5126866898066992  0.6829807544312487  1.0000
  C   C37       1.0  0.6671286083924882  0.45811068318275255  0.6762777377565073  1.0000
  C   C38       1.0  0.6677340169650777  0.3985949388072285  0.6168127061170168  1.0000
  C   C39       1.0  0.5038287186532954  0.3932772734450295  0.5615766927561054  1.0000
  C   C40       1.0  0.32903704892015645  0.26491130297460325  0.5459692463284824  1.0000
  C   C41       1.0  0.31376467810493835  0.20438693343341896  0.5442334240245188  1.0000
  C   C42       1.0  0.4936249995717503  0.15035500499043752  0.49637244432562255  1.0000
  C   C43       1.0  0.6671421818562279  0.15704741513467005  0.44849672093094034  1.0000
  C   C44       1.0  0.6677348164910484  0.21651485976310164  0.44844015625935896  1.0000
  C   C45       1.0  0.5038271475417062  0.2717558861422376  0.4983605200214996  1.0000
  C   C46       1.0  0.6665983616555451  0.49054013196712276  0.11518917864413686  1.0000
  C   C47       1.0  0.6666924722314891  0.5500028698386003  0.11515017989041351  1.0000
  C   C48       1.0  0.5022161006114132  0.605131215740272  0.1650563568559421  1.0000
  C   C49       1.0  0.3278422437992106  0.5982546774394847  0.2126910356043368  1.0000
  C   C50       1.0  0.313656459151332  0.5377490812463959  0.21097844009874211  1.0000
  C   C51       1.0  0.4936208430893459  0.48380856974542036  0.16306633461100975  1.0000
  C   C52       1.0  0.3278466084549478  0.6206570949658355  0.05225021410625887  1.0000
  C   C53       1.0  0.31363942405342027  0.6223613146055982  0.993458590421568  1.0000
  C   C54       1.0  0.49361364557514503  0.6702673062484549  0.9874114926580618  1.0000
  C   C55       1.0  0.6665835225072101  0.7181481227131457  0.04201473727856351  1.0000
  C   C56       1.0  0.666653568413544  0.7182019193257857  0.10152054700001399  1.0000
  C   C57       1.0  0.502201374620455  0.6682957361609921  0.10675183560322671  1.0000
  C   C58       1.0  0.327818666740093  0.7811058022253263  0.23508635101087103  1.0000
  C   C59       1.0  0.313641766572907  0.8399007715161203  0.2955841890123381  1.0000
  C   C60       1.0  0.4936063444717717  0.8459359696978906  0.3495223291735386  1.0000
  C   C61       1.0  0.6665702763303614  0.791329805398746  0.3428074681461197  1.0000
  C   C62       1.0  0.6666481208792377  0.7318277948297974  0.2833527061392617  1.0000
  C   C63       1.0  0.5021958940789375  0.7265950192910038  0.22822039040264028  1.0000
  N   N1        1.0  0.493640533046275  0.9999895363050936  0.8333300612136014  1.0000
  N   N2        1.0  0.5112562455532057  0.33333866714298904  0.49999462051329147  1.0000
  N   N3        1.0  0.5089119342938133  0.6666797648545922  0.16668097314209268  1.0000
  O   O1        1.0  0.7475369573064369  0.07814536279840209  0.5268076666024655  1.0000
  O   O2        1.0  0.74617503112502  0.9486953363706616  0.42148452612887166  1.0000
  O   O3        1.0  0.739974243176121  0.9730509860453507  0.5481057661336024  1.0000
  O   O4        1.0  0.2739157273154689  0.046394535850374945  0.4707776614359389  1.0000
  O   O5        1.0  0.2666269006600004  0.029493532955790176  0.579227330713735  1.0000
  O   O6        1.0  0.2738810009452095  0.9236683424482948  0.453474946218556  1.0000
  O   O7        1.0  0.2739119916970054  0.3625470115506032  0.24226245505875  1.0000
  O   O8        1.0  0.26668685946562926  0.2540904031531851  0.11692045404950586  1.0000
  O   O9        1.0  0.27393821839373095  0.3798463648984339  0.13683382001785568  1.0000
  O   O10       1.0  0.7475298100546441  0.30651514883569314  0.21798467042220443  1.0000
  O   O11       1.0  0.7462259762523685  0.41182935687831446  0.19384631723021784  1.0000
  O   O12       1.0  0.7400308629582001  0.28520326737091745  0.09159000855951398  1.0000
  O   O13       1.0  0.27390208692798984  0.5910394225817938  0.7869405002745467  1.0000
  O   O14       1.0  0.2665802401197084  0.7163875724430184  0.8038337828863363  1.0000
  O   O15       1.0  0.2738479368483837  0.6964610088785365  0.9096642352992604  1.0000
  O   O16       1.0  0.747524699248075  0.615317387739445  0.7551864757451767  1.0000
  O   O17       1.0  0.7461372028703224  0.6394484512604705  0.8846398665846992  1.0000
  O   O18       1.0  0.739930440037604  0.7417048750371505  0.860275288282395  1.0000
  O   O19       1.0  0.8823533362898388  0.7769323007332357  0.741303375515379  1.0000
  O   O20       1.0  0.8824631297121427  0.13100146272393687  0.056372389340978706  1.0000
  O   O21       1.0  0.882435580891439  0.09202368305317059  0.7023000688507679  1.0000
  O   O22       1.0  0.1281873723308351  0.24241829978163304  0.276647202995946  1.0000
  O   O23       1.0  0.12816582368292728  0.5566831745259931  0.6324362064705014  1.0000
  O   O24       1.0  0.12818375213415584  0.2008953092405577  0.5909109178400415  1.0000
  O   O25       1.0  0.12867811766852807  0.5340758479734333  0.25766438140860276  1.0000
  O   O26       1.0  0.12866786474074132  0.5756718816886774  0.943102990381334  1.0000
  O   O27       1.0  0.1286674449976033  0.8902541768024859  0.299247533394457  1.0000
