data_image0
_chemical_formula_structural       Zn16H48C64N48O32
_chemical_formula_sum              "Zn16 H48 C64 N48 O32"
_cell_length_a       13.55196921400222
_cell_length_b       13.551960203000537
_cell_length_c       23.031811834002987
_cell_angle_alpha    89.99999806733969
_cell_angle_beta     89.99994225760969
_cell_angle_gamma    89.99996782600176

_space_group_name_H-M_alt    "P 1"
_space_group_IT_number       1

loop_
  _space_group_symop_operation_xyz
  'x, y, z'

loop_
  _atom_site_type_symbol
  _atom_site_label
  _atom_site_symmetry_multiplicity
  _atom_site_fract_x
  _atom_site_fract_y
  _atom_site_fract_z
  _atom_site_occupancy
  Zn  Zn1       1.0  0.9116441402357153  0.01988614996848529  0.5630014663194274  1.0000
  Zn  Zn2       1.0  0.5883603663776215  0.4801133892011648  0.5630019907635955  1.0000
  Zn  Zn3       1.0  0.41164314914680494  0.9801148964903346  0.9369991014267995  1.0000
  Zn  Zn4       1.0  0.08835889575851749  0.5198856251411286  0.9369992008808837  1.0000
  Zn  Zn5       1.0  0.9801135515372436  0.0883566576399559  0.9369976409850977  1.0000
  Zn  Zn6       1.0  0.5198858804664539  0.4116428602261022  0.9369977727968147  1.0000
  Zn  Zn7       1.0  0.019887232317586295  0.5883561925768461  0.5630030248483564  1.0000
  Zn  Zn8       1.0  0.48011398399665234  0.9116428745586163  0.563003320762185  1.0000
  Zn  Zn9       1.0  0.08835698550612389  0.9801127878232732  0.4369972822806574  1.0000
  Zn  Zn10      1.0  0.41164297306330155  0.5198862864905677  0.4369980603820736  1.0000
  Zn  Zn11      1.0  0.588357238691266  0.019886255003427798  0.0630031206301283  1.0000
  Zn  Zn12      1.0  0.9116407541817394  0.4801125747503645  0.0630012844479637  1.0000
  Zn  Zn13      1.0  0.0198868363056164  0.9116408043507745  0.0630002392510605  1.0000
  Zn  Zn14      1.0  0.4801145073746226  0.5883582912677667  0.06300097580346181  1.0000
  Zn  Zn15      1.0  0.9801146313230615  0.4116434831152986  0.4369970262977533  1.0000
  Zn  Zn16      1.0  0.5198864038408288  0.08835901483576687  0.43699933547681985  1.0000
  H   H1        1.0  0.8637052755752208  0.9790625281269454  0.7650589569285772  1.0000
  H   H2        1.0  0.6362956490765156  0.5209347708520652  0.7650585940480356  1.0000
  H   H3        1.0  0.3637036968292761  0.0209348557556837  0.7349407705861567  1.0000
  H   H4        1.0  0.1362938131404121  0.47906052706245106  0.734940832737898  1.0000
  H   H5        1.0  0.020937242340430397  0.136294647339426  0.7349404358266938  1.0000
  H   H6        1.0  0.4790610055277397  0.36370663868355974  0.7349411674970909  1.0000
  H   H7        1.0  0.979064252502951  0.636293632006051  0.7650597948670353  1.0000
  H   H8        1.0  0.5209374100466774  0.8637036669726823  0.7650603612018542  1.0000
  H   H9        1.0  0.1362951122668861  0.0209349338637566  0.2349397916717351  1.0000
  H   H10       1.0  0.36370547666398784  0.47906490484028535  0.2349414570982873  1.0000
  H   H11       1.0  0.6362944773108694  0.9790640820368635  0.265059280561033  1.0000
  H   H12       1.0  0.863703623100207  0.5209361970284049  0.2650592184095402  1.0000
  H   H13       1.0  0.9790638834008618  0.8637035525516765  0.2650591811375591  1.0000
  H   H14       1.0  0.5209364307108543  0.636295988612346  0.2650593178323675  1.0000
  H   H15       1.0  0.020935397437853  0.36370530578609817  0.234939822097644  1.0000
  H   H16       1.0  0.47906223989337354  0.1362952708194456  0.23494012412699314  1.0000
  H   H17       1.0  0.704991961588284  0.9243885677523875  0.6075442576514334  1.0000
  H   H18       1.0  0.7950092356457432  0.5756124297027013  0.6075433663573193  1.0000
  H   H19       1.0  0.20499081746676504  0.07560964317846698  0.8924542604563327  1.0000
  H   H20       1.0  0.29500863362052593  0.42438794436807825  0.8924559672886402  1.0000
  H   H21       1.0  0.0756117724794336  0.29500746075454737  0.8924555987740561  1.0000
  H   H22       1.0  0.42438841650611886  0.20499012679172066  0.8924567998811028  1.0000
  H   H23       1.0  0.9243903711629711  0.7950086988060219  0.6075446287495865  1.0000
  H   H24       1.0  0.5756115639699074  0.7049915607481766  0.6075447319872822  1.0000
  H   H25       1.0  0.2950091641514661  0.07561110793994172  0.39245666185905753  1.0000
  H   H26       1.0  0.20499262799523876  0.42438872179073417  0.3924558164246079  1.0000
  H   H27       1.0  0.7950080945761897  0.9243878188126898  0.1075431855981748  1.0000
  H   H28       1.0  0.7049917542200389  0.5756109934238506  0.10754408385790272  1.0000
  H   H29       1.0  0.9243893532611053  0.7049907391365264  0.10754488655435782  1.0000
  H   H30       1.0  0.5756127092344201  0.7950080730993533  0.10754368544731821  1.0000
  H   H31       1.0  0.07561075457712009  0.20499245268759833  0.392455422396722  1.0000
  H   H32       1.0  0.4243888238691227  0.2950088528449797  0.3924566217054987  1.0000
  H   H33       1.0  0.7565530938032906  0.09916107508467316  0.4593904700449087  1.0000
  H   H34       1.0  0.7434471647118671  0.40083773208787926  0.4593896025136885  1.0000
  H   H35       1.0  0.25655652268115153  0.9008408248696326  0.0406085316143887  1.0000
  H   H36       1.0  0.243444859747342  0.5991604857263367  0.0406098410204976  1.0000
  H   H37       1.0  0.9008379819175757  0.24344570868833418  0.0406092174981936  1.0000
  H   H38       1.0  0.5991607876055411  0.2565545981420954  0.0406106084317273  1.0000
  H   H39       1.0  0.09915989063382821  0.7434429628152583  0.4593902223213888  1.0000
  H   H40       1.0  0.40084002918450773  0.7565546344216895  0.45939100203555233  1.0000
  H   H41       1.0  0.24344581823566358  0.9008386006082675  0.5406108836483057  1.0000
  H   H42       1.0  0.2565554368295011  0.599161205703439  0.5406100144501238  1.0000
  H   H43       1.0  0.7434438651591292  0.09916180242547769  0.9593906511679577  1.0000
  H   H44       1.0  0.756554790192709  0.4008384520657912  0.9593906443083496  1.0000
  H   H45       1.0  0.09916093012271429  0.7565532291040072  0.959390833648783  1.0000
  H   H46       1.0  0.40083812443337047  0.7434465533521216  0.9593903110793889  1.0000
  H   H47       1.0  0.9008390214070443  0.2565552370764621  0.5406093946435178  1.0000
  H   H48       1.0  0.5991618344551811  0.24344577917106847  0.5406099174747113  1.0000
  C   C1        1.0  0.9007673979162047  0.012214934878919299  0.6743986978425625  1.0000
  C   C2        1.0  0.5992339643227356  0.4877853358464676  0.6743970448411147  1.0000
  C   C3        1.0  0.40076290579568047  0.9877868555908902  0.8256014421055156  1.0000
  C   C4        1.0  0.09923490448508689  0.5122121965863613  0.8256019695111974  1.0000
  C   C5        1.0  0.9877885442435639  0.0992347897758492  0.8255995420052287  1.0000
  C   C6        1.0  0.5122110805357777  0.40076694813791375  0.8256005469022938  1.0000
  C   C7        1.0  0.012211495604617498  0.5992328468767594  0.6744011236111902  1.0000
  C   C8        1.0  0.4877880521323306  0.900766213913279  0.6744014152383145  1.0000
  C   C9        1.0  0.09923298992517  0.9877891682175104  0.3255987482114477  1.0000
  C   C10       1.0  0.40076716142006313  0.5122128640446845  0.3256008353948161  1.0000
  C   C11       1.0  0.5992323167426931  0.012215033805006199  0.17439904322459654  1.0000
  C   C12       1.0  0.9007603180543242  0.48778600330637534  0.17439851581895033  1.0000
  C   C13       1.0  0.012214057300681699  0.9007619343136495  0.1743974698661219  1.0000
  C   C14       1.0  0.4877893073044318  0.59923863075975  0.1743977675158632  1.0000
  C   C15       1.0  0.9877888922349525  0.40076830461705265  0.3255993617174156  1.0000
  C   C16       1.0  0.5122086462046197  0.09923641338278337  0.3256008068196863  1.0000
  C   C17       1.0  0.9092952507054335  0.026905794357183793  0.7379885686501951  1.0000
  C   C18       1.0  0.5907037877887334  0.4730952106470168  0.7379873551294126  1.0000
  C   C19       1.0  0.40929751797801833  0.973090826016268  0.7620124346556238  1.0000
  C   C20       1.0  0.09070556764841338  0.5269023265768736  0.7620120984105938  1.0000
  C   C21       1.0  0.9730970098409981  0.0907054023065896  0.7620122780370977  1.0000
  C   C22       1.0  0.526901987078375  0.4092970771303256  0.7620119715961592  1.0000
  C   C23       1.0  0.026901558995042804  0.5907041854341485  0.7379883877501001  1.0000
  C   C24       1.0  0.47309418920131907  0.9092970854365416  0.7379886878286969  1.0000
  C   C25       1.0  0.09070587503499178  0.9730968329377203  0.2620106141319312  1.0000
  C   C26       1.0  0.4092958621520281  0.5269052029464091  0.2620118276531755  1.0000
  C   C27       1.0  0.5907021319613223  0.026906635974555095  0.2379893532194828  1.0000
  C   C28       1.0  0.9092918685918363  0.4730943975139752  0.2379883869189214  1.0000
  C   C29       1.0  0.026904853801184497  0.9092927975843279  0.2379864705627739  1.0000
  C   C30       1.0  0.47309544916155477  0.590704812264981  0.2379872111870611  1.0000
  C   C31       1.0  0.9730973530450695  0.4092940144575508  0.2620120975789675  1.0000
  C   C32       1.0  0.5269032470366001  0.09070259025678946  0.2620135342291121  1.0000
  C   C33       1.0  0.6947905148544251  0.9661161145956142  0.567747564830988  1.0000
  C   C34       1.0  0.8052092754482273  0.5338856230275582  0.5677466683840606  1.0000
  C   C35       1.0  0.19479080108889243  0.03388357786614189  0.9322513934450426  1.0000
  C   C36       1.0  0.30520931902864123  0.4661154832144091  0.9322526592759104  1.0000
  C   C37       1.0  0.0338842200824274  0.30520820967815604  0.9322523063129539  1.0000
  C   C38       1.0  0.4661159000339765  0.19479085140235233  0.9322530489542373  1.0000
  C   C39       1.0  0.9661179178333795  0.805207950757463  0.5677483551890532  1.0000
  C   C40       1.0  0.5338855619691002  0.6947915731627246  0.5677476147532587  1.0000
  C   C41       1.0  0.30520913508446057  0.033884298997747905  0.43225378886200616  1.0000
  C   C42       1.0  0.19479185029240398  0.46611626636671827  0.4322525143980798  1.0000
  C   C43       1.0  0.805208110953103  0.9661146220256214  0.0677469209736188  1.0000
  C   C44       1.0  0.6947910688119306  0.53388345457752  0.06774739187063972  1.0000
  C   C45       1.0  0.9661161677581801  0.6947892523124962  0.0677481790156875  1.0000
  C   C46       1.0  0.5338852257069034  0.8052088242900125  0.0677465680100013  1.0000
  C   C47       1.0  0.033883207906747294  0.1947917249348805  0.4322521301393465  1.0000
  C   C48       1.0  0.4661155637704438  0.3052088404302395  0.43225330475722495  1.0000
  C   C49       1.0  0.7209198792787602  0.05548253202301369  0.492853328130508  1.0000
  C   C50       1.0  0.7790810592275079  0.4445177490443583  0.49285287299777997  1.0000
  C   C51       1.0  0.22091965204346303  0.9445186500465111  0.0071456944408865  1.0000
  C   C52       1.0  0.2790817882936807  0.5554811866544255  0.0071469838061802  1.0000
  C   C53       1.0  0.9445165239424824  0.2790796567993468  0.007146357132270999  1.0000
  C   C54       1.0  0.5554830413901825  0.2209191761358652  0.007146906045456099  1.0000
  C   C55       1.0  0.05548132860300829  0.779079885156342  0.4928535161576733  1.0000
  C   C56       1.0  0.44451853330608765  0.7209199238762592  0.4928538367691573  1.0000
  C   C57       1.0  0.2790805085612291  0.9445171436695358  0.5071471571981121  1.0000
  C   C58       1.0  0.22092080441309744  0.555483402449063  0.5071467439662314  1.0000
  C   C59       1.0  0.7790785220975566  0.055482501447990294  0.9928526199779668  1.0000
  C   C60       1.0  0.7209208132477228  0.44451627533561566  0.9928530673397304  1.0000
  C   C61       1.0  0.05548312599756849  0.720919280992781  0.9928541281965764  1.0000
  C   C62       1.0  0.4445166085500388  0.7790804995568975  0.9928531451013001  1.0000
  C   C63       1.0  0.9445168455366825  0.22092200423874428  0.5071461008074111  1.0000
  C   C64       1.0  0.555482592433286  0.2790797518160559  0.5071475169234105  1.0000
  N   N1        1.0  0.7674215802126624  0.014019881138018796  0.5387572154537423  1.0000
  N   N2        1.0  0.7325800167567563  0.4859789215129595  0.5387563525997265  1.0000
  N   N3        1.0  0.2674205438771721  0.9859819842298875  0.9612408318356388  1.0000
  N   N4        1.0  0.23257850747431522  0.5140192739220237  0.9612434518645969  1.0000
  N   N5        1.0  0.9859790583015239  0.23257785804496212  0.9612419310658993  1.0000
  N   N6        1.0  0.514020331745563  0.2674209205393225  0.9612438059285253  1.0000
  N   N7        1.0  0.014018692987313798  0.7325803492609424  0.5387582977058898  1.0000
  N   N8        1.0  0.4859803515824978  0.7674216708588091  0.5387577246927648  1.0000
  N   N9        1.0  0.23257880762736247  0.9859783187532541  0.4612437040569759  1.0000
  N   N10       1.0  0.2674225847847751  0.5140207541790004  0.4612428301820017  1.0000
  N   N11       1.0  0.7325776302640251  0.014019905165248795  0.038757048401116406  1.0000
  N   N12       1.0  0.7674218803660862  0.48597892596926334  0.0387570334640372  1.0000
  N   N13       1.0  0.014020591639486197  0.7674203418465523  0.03875768589878701  1.0000
  N   N14       1.0  0.4859807939951466  0.7325780172524003  0.0387562452178045  1.0000
  N   N15       1.0  0.9859794811514248  0.2674222780347577  0.46124218762334823  1.0000
  N   N16       1.0  0.5140200362567383  0.2325780048337194  0.4612436290000161  1.0000
  N   N17       1.0  0.6082127109206893  0.9778229331942825  0.5412247093126012  1.0000
  N   N18       1.0  0.8917886010817141  0.5221765922374714  0.5412233281096235  1.0000
  N   N19       1.0  0.10820926832701619  0.022175332097084794  0.9587760365002254  1.0000
  N   N20       1.0  0.39178711638928826  0.4778229895729068  0.95877638292464  1.0000
  N   N21       1.0  0.022177387086465203  0.3917860933748968  0.9587756238706363  1.0000
  N   N22       1.0  0.4778241629312062  0.10821222829365235  0.9587763613706315  1.0000
  N   N23       1.0  0.9778254401251943  0.8917909946937995  0.5412232991736303  1.0000
  N   N24       1.0  0.5221773476766174  0.6082129581413439  0.5412243040660343  1.0000
  N   N25       1.0  0.39178841481852084  0.02217600459739089  0.45877707856205063  1.0000
  N   N26       1.0  0.10821326255964439  0.4778245592559783  0.4587754204902268  1.0000
  N   N27       1.0  0.8917866921140315  0.9778228677954953  0.041222712101387116  1.0000
  N   N28       1.0  0.6082125335505565  0.5221766861198488  0.0412241024042004  1.0000
  N   N29       1.0  0.9778259523539531  0.608211368614903  0.0412257298213063  1.0000
  N   N30       1.0  0.522176224908776  0.8917874473988971  0.0412241239579885  1.0000
  N   N31       1.0  0.022175685615358997  0.10821384630303037  0.45877501524431347  1.0000
  N   N32       1.0  0.47782451596344083  0.39178745545142135  0.45877618126214514  1.0000
  N   N33       1.0  0.6247869922033471  0.0353017146271597  0.4930978010511851  1.0000
  N   N34       1.0  0.8752139458802758  0.46469856642629975  0.4930968549186474  1.0000
  N   N35       1.0  0.12478822986064839  0.9646987835381465  0.006903014662775301  1.0000
  N   N36       1.0  0.3752124729973261  0.5353003152762169  0.006903379653366  1.0000
  N   N37       1.0  0.9646988039385036  0.37521186968704257  0.006902339920650001  1.0000
  N   N38       1.0  0.5353014997158141  0.1247869632618404  0.00690377096155  1.0000
  N   N39       1.0  0.035301946240217305  0.8752121093655418  0.49309666308428757  1.0000
  N   N40       1.0  0.4646993910478158  0.6247884375534198  0.4930974079553252  1.0000
  N   N41       1.0  0.3752126577355384  0.9646986989662023  0.506903552641802  1.0000
  N   N42       1.0  0.1247886556600974  0.5353025850669084  0.5069031962272277  1.0000
  N   N43       1.0  0.8752106821795991  0.0353016300554785  0.9930966023021027  1.0000
  N   N44       1.0  0.6247871769429308  0.46469788461527617  0.9930971056754813  1.0000
  N   N45       1.0  0.03530305970200939  0.6247855923031834  0.993098579589642  1.0000
  N   N46       1.0  0.4646974123233035  0.8752134503317489  0.9930971485495733  1.0000
  N   N47       1.0  0.9646984416010652  0.1247883042276925  0.5069020855159962  1.0000
  N   N48       1.0  0.5353017346919343  0.37521123813890966  0.5069035115551586  1.0000
  O   O1        1.0  0.9393374496150031  0.07812789899031  0.6399506795305498  1.0000
  O   O2        1.0  0.5606639722362985  0.4218708978961203  0.6399503530262578  1.0000
  O   O3        1.0  0.43933293488474584  0.9218746077157361  0.8600490036009774  1.0000
  O   O4        1.0  0.060665553684963  0.5781244424990176  0.8600482497782451  1.0000
  O   O5        1.0  0.9218733814276446  0.06066474126669869  0.8600475680677988  1.0000
  O   O6        1.0  0.5781254458392197  0.43933699468495746  0.860047665148912  1.0000
  O   O7        1.0  0.07812668007334618  0.5606635012067116  0.6399530983189479  1.0000
  O   O8        1.0  0.42187366517736546  0.9393362994461255  0.6399525594930395  1.0000
  O   O9        1.0  0.06066220032643339  0.921875466205691  0.3600467665236806  1.0000
  O   O10       1.0  0.43933715350557623  0.5781265640943615  0.36004882975592517  1.0000
  O   O11       1.0  0.560662287653379  0.07812949538206479  0.13995104754703652  1.0000
  O   O12       1.0  0.9393311446556892  0.4218730194926933  0.1399513671873152  1.0000
  O   O13       1.0  0.0781262685147368  0.9393312449229466  0.1399511805327478  1.0000
  O   O14       1.0  0.42187420410009213  0.560668584212891  0.1399515176336266  1.0000
  O   O15       1.0  0.9218751835663423  0.43933691238604666  0.3600478211913156  1.0000
  O   O16       1.0  0.578123033160331  0.06066632784996529  0.36004879420079317  1.0000
  O   O17       1.0  0.8578176774002843  0.9364723842273434  0.655151409547571  1.0000
  O   O18       1.0  0.642186389049698  0.5635286105149715  0.6551497398141137  1.0000
  O   O19       1.0  0.3578144087449004  0.0635323819691038  0.8448478872405901  1.0000
  O   O20       1.0  0.14218660052629417  0.436467421990848  0.8448492493322064  1.0000
  O   O21       1.0  0.06353169335507397  0.14218234139005398  0.8448471044395235  1.0000
  O   O22       1.0  0.43646857801685707  0.3578196762720508  0.8448482954051428  1.0000
  O   O23       1.0  0.9364690602830449  0.6421806183420671  0.6551531261368382  1.0000
  O   O24       1.0  0.5635305787624033  0.85781742479881  0.6551532334111556  1.0000
  O   O25       1.0  0.14218123464043228  0.0635317188694913  0.3448464706889496  1.0000
  O   O26       1.0  0.35781547459344404  0.43646885147533965  0.34484814042160394  1.0000
  O   O27       1.0  0.6421822895937198  0.9364709832276575  0.1551521639069904  1.0000
  O   O28       1.0  0.8578100978130222  0.5635307779014623  0.155151670179599  1.0000
  O   O29       1.0  0.9364672186877526  0.8578129068991768  0.1551512099791665  1.0000
  O   O30       1.0  0.563531809821974  0.6421881163274887  0.1551508873771539  1.0000
  O   O31       1.0  0.06353354125774048  0.35781905734987157  0.3448469250090511  1.0000
  O   O32       1.0  0.43646538167477894  0.14218520249747257  0.3448485544649813  1.0000
