data_image0
_chemical_formula_structural       Ca4H68C32N4Cl8O12
_chemical_formula_sum              "Ca4 H68 C32 N4 Cl8 O12"
_cell_length_a       9.106173069916569
_cell_length_b       9.833353751755014
_cell_length_c       15.611370337766616
_cell_angle_alpha    73.11202530972756
_cell_angle_beta     89.31258530468007
_cell_angle_gamma    75.08305509849444

_space_group_name_H-M_alt    "P 1"
_space_group_IT_number       1

loop_
  _space_group_symop_operation_xyz
  'x, y, z'

loop_
  _atom_site_type_symbol
  _atom_site_label
  _atom_site_symmetry_multiplicity
  _atom_site_fract_x
  _atom_site_fract_y
  _atom_site_fract_z
  _atom_site_occupancy
  Ca  Ca1       1.0  0.7831787170091644  0.035360837523128894  0.04768996982618751  1.0000
  Ca  Ca2       1.0  0.21682062973870583  0.964638515673556  0.9523099459240785  1.0000
  Ca  Ca3       1.0  0.9872417254783343  0.9024387190490868  0.349369240931459  1.0000
  Ca  Ca4       1.0  0.012759814764812891  0.0975606448947488  0.6506306559562633  1.0000
  H   H1        1.0  0.10690600920112553  0.7728697383480778  0.2005074849662023  1.0000
  H   H2        1.0  0.8930955310420214  0.22712962559575792  0.7994924119215271  1.0000
  H   H3        1.0  0.7322513838385661  0.8174887418401793  0.27959183812603783  1.0000
  H   H4        1.0  0.2677501572759198  0.18251062372921464  0.7204086990157493  1.0000
  H   H5        1.0  0.39711957498290923  0.4099074738118489  0.8703182401382039  1.0000
  H   H6        1.0  0.6028816575991698  0.5900929924272375  0.12968145626130936  1.0000
  H   H7        1.0  0.43945299689890055  0.5278217618438673  0.927491958633425  1.0000
  H   H8        1.0  0.5605482356831786  0.4721787043952189  0.07250773776608102  1.0000
  H   H9        1.0  0.1629692132478553  0.4759564223109862  0.08805630256821927  1.0000
  H   H10       1.0  0.8370309217152396  0.524044036928963  0.9119427630085044  1.0000
  H   H11       1.0  0.09565930769458222  0.3530865994609797  0.0439159632065298  1.0000
  H   H12       1.0  0.9043416172264217  0.6469149690733572  0.95608353270476  1.0000
  H   H13       1.0  0.3085676889138895  0.21998326168292687  0.2079695517907396  1.0000
  H   H14       1.0  0.6914321401308214  0.7800183031033969  0.792030593805869  1.0000
  H   H15       1.0  0.4753070689849678  0.12432782820646787  0.16758405013223415  1.0000
  H   H16       1.0  0.5246930659781343  0.875672631033481  0.8324150154444896  1.0000
  H   H17       1.0  0.280906031521816  0.9813047144318929  0.21235802056299496  1.0000
  H   H18       1.0  0.7190930093076631  0.018695744311166593  0.7876429752071561  1.0000
  H   H19       1.0  0.14769532397399127  0.1137200062134269  0.12798945331718414  1.0000
  H   H20       1.0  0.8523016971246306  0.8862837540418054  0.872010950419579  1.0000
  H   H21       1.0  0.3261338797487808  0.8279407453296628  0.6797249565248933  1.0000
  H   H22       1.0  0.6738665646180735  0.17205861486615953  0.3202755900481621  1.0000
  H   H23       1.0  0.4212271786238376  0.8798028953773879  0.5795608690639824  1.0000
  H   H24       1.0  0.5787743633619937  0.12019647181757163  0.4204403083318553  1.0000
  H   H25       1.0  0.3047659683380743  0.7297004748175339  0.5109610688460153  1.0000
  H   H26       1.0  0.695235573647757  0.27029889237742577  0.4890401085498227  1.0000
  H   H27       1.0  0.4191393738964422  0.6192963721332773  0.6113933980028607  1.0000
  H   H28       1.0  0.5808621680893894  0.38070299506168215  0.38860777939297725  1.0000
  H   H29       1.0  0.20435018742665528  0.6458039893829621  0.7547959113513728  1.0000
  H   H30       1.0  0.7956480643162608  0.3541953616912678  0.2452052943382626  1.0000
  H   H31       1.0  0.256288050942693  0.4707786279691249  0.7332482021817912  1.0000
  H   H32       1.0  0.7437112975478541  0.529220728478684  0.2667529940765832  1.0000
  H   H33       1.0  0.9577586440559501  0.4881845094826927  0.611402650005509  1.0000
  H   H34       1.0  0.04224368353108333  0.5118159588788416  0.3885957564546275  1.0000
  H   H35       1.0  0.8365552250185714  0.6650202727153314  0.6055038041740916  1.0000
  H   H36       1.0  0.16344569990243937  0.33498129581899855  0.3944956917371983  1.0000
  H   H37       1.0  0.0006824235560998361  0.46898992754240226  0.7678567012194225  1.0000
  H   H38       1.0  0.999317057088419  0.5310050110997154  0.23214402591499092  1.0000
  H   H39       1.0  0.9431835336450117  0.6648620036837443  0.7439660270292948  1.0000
  H   H40       1.0  0.0568153325487017  0.33513514117443316  0.25603493938272953  1.0000
  H   H41       1.0  0.3037054500852747  0.623722902013327  0.36011548008103494  1.0000
  H   H42       1.0  0.6962956096037232  0.3762742535920012  0.6398854674684529  1.0000
  H   H43       1.0  0.3616040855315745  0.749854935846862  0.26818864072578924  1.0000
  H   H44       1.0  0.6383969741574235  0.2501422197584588  0.7318123068237058  1.0000
  H   H45       1.0  0.6027385096992647  0.6141263910791038  0.3777248287373639  1.0000
  H   H46       1.0  0.39726114470968094  0.38587185982233757  0.6222752875011183  1.0000
  H   H47       1.0  0.5461221985863531  0.6425019864310498  0.48171853650477214  1.0000
  H   H48       1.0  0.4538771490328556  0.35749736839119345  0.5182820194995446  1.0000
  H   H49       1.0  0.7418361457036723  0.5674962934824136  0.4683635112159977  1.0000
  H   H50       1.0  0.2581625865934  0.432505265930331  0.5316366438118793  1.0000
  H   H51       1.0  0.3216308395736789  0.6011163307171258  0.1669337498640076  1.0000
  H   H52       1.0  0.6783688148352596  0.3988819201843156  0.8330663663744745  1.0000
  H   H53       1.0  0.27912867042041967  0.46751918295087336  0.26167308627432834  1.0000
  H   H54       1.0  0.7208698872408874  0.5324790625769893  0.7383270393954221  1.0000
  H   H55       1.0  0.46313484242756436  0.4996284031456425  0.2551642962763126  1.0000
  H   H56       1.0  0.5368666969442515  0.5003709591726347  0.7448349603573592  1.0000
  H   H57       1.0  0.1714713277062998  0.6163228973863112  0.9367827869980734  1.0000
  H   H58       1.0  0.8285288072568022  0.3836775618536379  0.06321627857865048  1.0000
  H   H59       1.0  0.1377957419481319  0.47363094981444914  0.8980684086116144  1.0000
  H   H60       1.0  0.8622054906339471  0.526369516424637  0.10193128778789881  1.0000
  H   H61       1.0  0.6934188426038547  0.8337329473417296  0.4583008416317612  1.0000
  H   H62       1.0  0.30657769532659535  0.16626859969830574  0.5416986920046016  1.0000
  H   H63       1.0  0.5498467656789786  0.8823272137950864  0.3705264033342034  1.0000
  H   H64       1.0  0.45015148344991474  0.11767213240246831  0.629472881593273  1.0000
  H   H65       1.0  0.18409980771854603  0.9894631951318682  0.5037707722114038  1.0000
  H   H66       1.0  0.815902041057015  0.010535068142281999  0.49622996541859987  1.0000
  H   H67       1.0  0.43457070346502763  0.9336300938113165  0.09943575259351432  1.0000
  H   H68       1.0  0.5654275474065429  0.06636925563735468  0.9005648128420705  1.0000
  C   C1        1.0  0.376992381906625  0.4448472805258987  0.9309304312079622  1.0000
  C   C2        1.0  0.6230088498041155  0.555153184087622  0.06906862493749341  1.0000
  C   C3        1.0  0.18711007478629674  0.4080241020695751  0.04190950457253002  1.0000
  C   C4        1.0  0.812890060176805  0.5919763571703738  0.9580895610041866  1.0000
  C   C5        1.0  0.4399605016804812  0.3117486479463451  0.010594542740037119  1.0000
  C   C6        1.0  0.5600382280025612  0.6882529065897245  0.9894036915256738  1.0000
  C   C7        1.0  0.3527077189047603  0.17653771552792819  0.1524710214693599  1.0000
  C   C8        1.0  0.64729162784311  0.8234616376687567  0.847528894280906  1.0000
  C   C9        1.0  0.06338027405248435  0.6634026091441781  0.566585321900817  1.0000
  C   C10       1.0  0.9366195549922265  0.33659895564213826  0.43341482369579154  1.0000
  C   C11       1.0  0.2697888608423682  0.06308182579837052  0.14593409732199092  1.0000
  C   C12       1.0  0.7302087747070659  0.9369197282407951  0.8540660671371544  1.0000
  C   C13       1.0  0.3192672253080674  0.8462152373934514  0.6068217492518146  1.0000
  C   C14       1.0  0.6807335258485168  0.1537830188815619  0.39317835755539937  1.0000
  C   C15       1.0  0.31371271304551845  0.7067514069195013  0.5841819908956654  1.0000
  C   C16       1.0  0.6862872516385111  0.29324574656337177  0.41582024659319944  1.0000
  C   C17       1.0  0.17547549448890717  0.5812208297633034  0.7139041939474993  1.0000
  C   C18       1.0  0.8245230649150771  0.4187774190156829  0.28609721223035933  1.0000
  C   C19       1.0  0.9526353793874308  0.593507688778466  0.6244306943059997  1.0000
  C   C20       1.0  0.04736585232330984  0.4064927758350619  0.3755683618394557  1.0000
  C   C21       1.0  0.008981276283868979  0.5733777846580351  0.7207966518670618  1.0000
  C   C22       1.0  0.9910183781250765  0.4266204662434063  0.27920346437142746  1.0000
  C   C23       1.0  0.2910025950619257  0.6711940929379949  0.2866460228622572  1.0000
  C   C24       1.0  0.7089997333964533  0.3288063770491049  0.7133530238519228  1.0000
  C   C25       1.0  0.636117795376954  0.6471021517066476  0.4344272182931236  1.0000
  C   C26       1.0  0.36388155224226176  0.35289720311559597  0.5655733377112002  1.0000
  C   C27       1.0  0.3406926744903914  0.5527125948862732  0.24005762583541218  1.0000
  C   C28       1.0  0.6593069799185544  0.4472856560151611  0.75994249040307  1.0000
  C   C29       1.0  0.2073917102983671  0.4976567626598934  0.9456531172547359  1.0000
  C   C30       1.0  0.7926084255360735  0.5023436982056211  0.05434658857604549  1.0000
  C   C31       1.0  0.657259695087667  0.80132435356893  0.40202535985559246  1.0000
  C   C32       1.0  0.3427415374944118  0.19867611267015658  0.5979743365439134  1.0000
  N   N1        1.0  0.3329590144345076  0.2969755383965945  0.07001295253397194  1.0000
  N   N2        1.0  0.6670411205285944  0.7030249208433544  0.9299861130427447  1.0000
  N   N3        1.0  0.18363839552804959  0.6548126455295744  0.6187196763898585  1.0000
  N   N4        1.0  0.8163612606235802  0.34518560862298386  0.3812817203567321  1.0000
  Cl  Cl1       1.0  0.040183144731066975  0.8032598734650661  0.06345765064590841  1.0000
  Cl  Cl2       1.0  0.959816201145465  0.1967394781060605  0.9365416248502998  1.0000
  Cl  Cl3       1.0  0.6511271215932838  0.8311820367368339  0.1571826511460302  1.0000
  Cl  Cl4       1.0  0.3488719183648569  0.16881842038065994  0.8428177043700701  1.0000
  Cl  Cl5       1.0  0.8688269404713154  0.10946900707219238  0.19117135650858336  1.0000
  Cl  Cl6       1.0  0.13117069507811147  0.8905325469669735  0.8088288079505689  1.0000
  Cl  Cl7       1.0  0.2172654710879911  0.021899495099979998  0.3748629976189975  1.0000
  Cl  Cl8       1.0  0.7827360691551561  0.9780998688438557  0.6251368992687321  1.0000
  O   O1        1.0  0.5727240849833919  0.22851449603895452  0.020946312797470085  1.0000
  O   O2        1.0  0.4272746464423348  0.771487061748232  0.9790532019763561  1.0000
  O   O3        1.0  0.18363414141325746  0.9613378780968347  0.571174276787062  1.0000
  O   O4        1.0  0.8163674005725738  0.0386614890981249  0.428826900608776  1.0000
  O   O5        1.0  0.3278143401238439  0.992946983735386  0.07911163651233724  1.0000
  O   O6        1.0  0.6721836030866584  0.0070534680085359005  0.9208887284350311  1.0000
  O   O7        1.0  0.05005343288760134  0.7164231781508336  0.4826268103438878  1.0000
  O   O8        1.0  0.9499495525033765  0.283582817310787  0.517372495574776  1.0000
  O   O9        1.0  0.13198577553252727  0.7498442989148444  0.265855330010517  1.0000
  O   O10       1.0  0.8680157647106199  0.2501550650289984  0.7341445668772125  1.0000
  O   O11       1.0  0.7752413043831935  0.8094744596818088  0.33985627105602845  1.0000
  O   O12       1.0  0.22475962053781023  0.19052710885252108  0.6601432248552612  1.0000
