data_image0
_chemical_formula_structural       Ni2H14C14N2O12
_chemical_formula_sum              "Ni2 H14 C14 N2 O12"
_cell_length_a       6.83438932912827
_cell_length_b       7.572834833890709
_cell_length_c       11.07977563779719
_cell_angle_alpha    56.77314599921799
_cell_angle_beta     66.56694183015033
_cell_angle_gamma    75.64879386697139

_space_group_name_H-M_alt    "P 1"
_space_group_IT_number       1

loop_
  _space_group_symop_operation_xyz
  'x, y, z'

loop_
  _atom_site_type_symbol
  _atom_site_label
  _atom_site_symmetry_multiplicity
  _atom_site_fract_x
  _atom_site_fract_y
  _atom_site_fract_z
  _atom_site_occupancy
  Ni  Ni1       1.0  0.04138503745824099  0.33253089230021976  0.2835897608642739  1.0000
  Ni  Ni2       1.0  0.9586101245988489  0.6674676783599834  0.716408526250774  1.0000
  H   H1        1.0  0.0947926258767922  0.06148969945057561  0.0638483720455625  1.0000
  H   H2        1.0  0.9052115829873059  0.9385019166575146  0.9361550213431115  1.0000
  H   H3        1.0  0.9045159874687485  0.19397340902682456  0.9975804616962876  1.0000
  H   H4        1.0  0.09548157955764218  0.8060316568914557  0.002415306688647096  1.0000
  H   H5        1.0  0.8973947583739416  0.17418313636014196  0.2023355614472991  1.0000
  H   H6        1.0  0.1026048956478647  0.8258184841253847  0.7976624811412876  1.0000
  H   H7        1.0  0.9154205726842546  0.01362764589710957  0.3695221377370856  1.0000
  H   H8        1.0  0.08457071618761347  0.9863775082326426  0.6304789149067177  1.0000
  H   H9        1.0  0.674411927785755  0.4487679423856719  0.18752920240538634  1.0000
  H   H10       1.0  0.3255981155038227  0.5512397532256089  0.8124625090050728  1.0000
  H   H11       1.0  0.6049885473925228  0.8771814403201788  0.4111768434168893  1.0000
  H   H12       1.0  0.3950071135835387  0.12280158730535357  0.5888312977873298  1.0000
  H   H13       1.0  0.9120701380056744  0.6238525737936058  0.39839051697829586  1.0000
  H   H14       1.0  0.08792509640964137  0.3761568696334051  0.6015991196367736  1.0000
  C   C1        1.0  0.6563749335018159  0.5470325619429984  0.23490226955021853  1.0000
  C   C2        1.0  0.3436282066397709  0.45296644628386645  0.765094697095087  1.0000
  C   C3        1.0  0.47452700166124356  0.6774659057303438  0.24460770560725828  1.0000
  C   C4        1.0  0.5254606121387794  0.3225305962302654  0.7553986527184194  1.0000
  C   C5        1.0  0.3015074843523706  0.6610275019734289  0.19909680709978525  1.0000
  C   C6        1.0  0.6985019153017828  0.3389739911389142  0.8009023512214527  1.0000
  C   C7        1.0  0.4563114349164081  0.8051324814237333  0.3045243597596965  1.0000
  C   C8        1.0  0.5436862143672485  0.1948524799819253  0.6955000431262164  1.0000
  C   C9        1.0  0.2556502869049595  0.9342057545941171  0.3296625100195741  1.0000
  C   C10       1.0  0.7443526503829287  0.06579652578666641  0.6703390393858653  1.0000
  C   C11       1.0  0.6174357749281826  0.7872656051114573  0.35829518698943746  1.0000
  C   C12       1.0  0.3825388589493599  0.2127318467060348  0.6417124971348186  1.0000
  C   C13       1.0  0.7898043526232144  0.6461872742082732  0.3513605023958348  1.0000
  C   C14       1.0  0.2102229798154625  0.35381039924465085  0.6486313764499202  1.0000
  N   N1        1.0  0.8114233534456828  0.5300729517858686  0.2876751383031433  1.0000
  N   N2        1.0  0.18857220810483  0.46991993226548345  0.7123164752698941  1.0000
  O   O1        1.0  0.2385009399917166  0.4706228453579298  0.27883352896613195  1.0000
  O   O2        1.0  0.7615097297649952  0.529380804665486  0.721162842403338  1.0000
  O   O3        1.0  0.238570160546267  0.8184800918949193  0.09445808098161024  1.0000
  O   O4        1.0  0.7614282233729881  0.18151937167953483  0.9055427485587444  1.0000
  O   O5        1.0  0.0848164399599582  0.8343387834576176  0.40641502086540277  1.0000
  O   O6        1.0  0.9151785269310793  0.1656493804737663  0.5935899879665173  1.0000
  O   O7        1.0  0.27439628025916113  0.13133382189553083  0.27412151516610095  1.0000
  O   O8        1.0  0.7256068046924895  0.8686645616513432  0.7258719951093795  1.0000
  O   O9        1.0  0.994690565807602  0.18442591788452484  0.0530497322812025  1.0000
  O   O10       1.0  0.005313758176683299  0.8155789110683215  0.9469534509338402  1.0000
  O   O11       1.0  0.8523326921539862  0.16090290203914034  0.30901479069841303  1.0000
  O   O12       1.0  0.14765633172470416  0.8391055388813627  0.6909786025888066  1.0000
