data_image0
_chemical_formula_structural       Zn16H24C96S24Br8O76
_chemical_formula_sum              "Zn16 H24 C96 S24 Br8 O76"
_cell_length_a       19.60120726245476
_cell_length_b       19.646326793179355
_cell_length_c       33.37666154673961
_cell_angle_alpha    78.98105768993908
_cell_angle_beta     79.16909824017432
_cell_angle_gamma    63.9915756962785

_space_group_name_H-M_alt    "P 1"
_space_group_IT_number       1

loop_
  _space_group_symop_operation_xyz
  'x, y, z'

loop_
  _atom_site_type_symbol
  _atom_site_label
  _atom_site_symmetry_multiplicity
  _atom_site_fract_x
  _atom_site_fract_y
  _atom_site_fract_z
  _atom_site_occupancy
  Zn  Zn1       1.0  0.0567086463482624  0.4016305690689208  0.4767388679966587  1.0000
  Zn  Zn2       1.0  0.9843420020273685  0.48457573379500446  0.5603985717332804  1.0000
  Zn  Zn3       1.0  0.05898090581816721  0.5610625340190154  0.48146472737994384  1.0000
  Zn  Zn4       1.0  0.8981607325805498  0.5526205905205405  0.48134601243521763  1.0000
  Zn  Zn5       1.0  0.697899864778705  0.34912975727844053  0.2713016113404336  1.0000
  Zn  Zn6       1.0  0.6906271749285154  0.18972829947557568  0.26580606741074325  1.0000
  Zn  Zn7       1.0  0.7706837270490254  0.26620364089954796  0.18973357409995364  1.0000
  Zn  Zn8       1.0  0.8488529683801148  0.19169497615671102  0.27360725310452233  1.0000
  Zn  Zn9       1.0  0.2648502691062546  0.766383250279759  0.6888807823911947  1.0000
  Zn  Zn10      1.0  0.34804734535676124  0.6982602304859641  0.7713523871664307  1.0000
  Zn  Zn11      1.0  0.1909935858065097  0.8487965558472654  0.7701598669713262  1.0000
  Zn  Zn12      1.0  0.19274868320439253  0.6847913970897254  0.7668453610276416  1.0000
  Zn  Zn13      1.0  0.5625414326195681  0.05896655712303567  0.9839957213778376  1.0000
  Zn  Zn14      1.0  0.4014727892498726  0.05436548309263164  0.9769651145962115  1.0000
  Zn  Zn15      1.0  0.5562234782134752  0.9009276217763761  0.9779087514614417  1.0000
  Zn  Zn16      1.0  0.4822729341558586  0.9821538989178368  0.05936695719521622  1.0000
  H   H1        1.0  0.7493426564279915  0.4478974697934463  0.350262916923505  1.0000
  H   H2        1.0  0.0014169749356369998  0.3010654071349137  0.40082674004471397  1.0000
  H   H3        1.0  0.19416704755903422  0.7068391490252993  0.6015938444479404  1.0000
  H   H4        1.0  0.04732727774224091  0.5504746036837176  0.6464554629774  1.0000
  H   H5        1.0  0.4637575578414755  0.24141809249564272  0.3394713537352061  1.0000
  H   H6        1.0  0.48130559571004744  0.7009165489826756  0.6004772714102629  1.0000
  H   H7        1.0  0.20607205261753592  0.9804724706157801  0.6007127956947897  1.0000
  H   H8        1.0  0.9509790009132575  0.9614482634312156  0.34331303472601604  1.0000
  H   H9        1.0  0.6584227575088307  0.13712894325990993  0.049924012109038074  1.0000
  H   H10       1.0  0.5959848634293438  0.10935898129680775  0.2005885970473429  1.0000
  H   H11       1.0  0.5477489714984215  0.7698024588293608  0.14797439699917453  1.0000
  H   H12       1.0  0.15862431247887804  0.14506572814158863  0.04100819657714539  1.0000
  H   H13       1.0  0.30189940718221925  0.001660894152586052  0.900193027125397  1.0000
  H   H14       1.0  0.43981781028204386  0.7485541794653091  0.8514960205489643  1.0000
  H   H15       1.0  0.30317728585538367  0.2808332499057471  0.902039390460601  1.0000
  H   H16       1.0  0.7880140782285211  0.009377927693741092  0.9055486039500096  1.0000
  H   H17       1.0  0.24058996800633287  0.6244536754887235  0.3635032768883164  1.0000
  H   H18       1.0  0.8663908683473737  0.4288185401962538  0.6601479183367686  1.0000
  H   H19       1.0  0.0989739560826379  0.3196881484200134  0.687431636889869  1.0000
  H   H20       1.0  0.7578330461639666  0.7346871269968038  0.3574837786679339  1.0000
  H   H21       1.0  0.8297607671808509  0.44679425659903416  0.06748680579031692  1.0000
  H   H22       1.0  0.13269721424713052  0.15711543419671156  0.2499257556653092  1.0000
  H   H23       1.0  0.5650572476066955  0.43635779100836897  0.8059298560726801  1.0000
  H   H24       1.0  0.9191379792549768  0.6974706259505087  0.7948043664724409  1.0000
  C   C1        1.0  0.06862230264659529  0.317341262007382  0.5592505937696189  1.0000
  C   C2        1.0  0.06649502450817832  0.5745336254178994  0.5664948906128444  1.0000
  C   C3        1.0  0.18289326761870942  0.440806633921973  0.4360921823360897  1.0000
  C   C4        1.0  0.9332542366483381  0.6808415510046119  0.43850556783819883  1.0000
  C   C5        1.0  0.9291025099014975  0.42834711153049215  0.43357019059311597  1.0000
  C   C6        1.0  0.8188130714203723  0.557693352086091  0.5651040971978887  1.0000
  C   C7        1.0  0.5687298188786515  0.3108380776290574  0.3111473511811482  1.0000
  C   C8        1.0  0.6833160043811047  0.18223916535850299  0.17967706372145642  1.0000
  C   C9        1.0  0.6948650044538667  0.43295256808195165  0.1886610622474764  1.0000
  C   C10       1.0  0.9365296032886833  0.18500911959890234  0.1917235376935763  1.0000
  C   C11       1.0  0.8189066808487482  0.3172685273499099  0.32051004171844977  1.0000
  C   C12       1.0  0.8103803459672109  0.06404765892848745  0.3112108138382013  1.0000
  C   C13       1.0  0.4317164499537469  0.6961257120484351  0.6875299384646212  1.0000
  C   C14       1.0  0.31233288023587147  0.8236420670181275  0.8188929009568967  1.0000
  C   C15       1.0  0.18362169978865953  0.9342595073803539  0.6872125936839879  1.0000
  C   C16       1.0  0.06561020504595659  0.8066930148488966  0.8092600910899108  1.0000
  C   C17       1.0  0.18271869627671583  0.6759282001843019  0.6812770353275823  1.0000
  C   C18       1.0  0.3140751407898819  0.5676937093327156  0.8124285827056427  1.0000
  C   C19       1.0  0.43947283073818977  0.18435073646399772  0.9398552700703037  1.0000
  C   C20       1.0  0.4327990231130414  0.929611293776148  0.929591510535751  1.0000
  C   C21       1.0  0.687081031403295  0.9370190520108468  0.9405983857673236  1.0000
  C   C22       1.0  0.5584645107172079  0.8157304046314948  0.06101131629192482  1.0000
  C   C23       1.0  0.5682563982746133  0.06732914584245718  0.07056181830458289  1.0000
  C   C24       1.0  0.31439339141966377  0.059006129076564696  0.05936904179053929  1.0000
  C   C25       1.0  0.8985241657891764  0.4035135505941128  0.40381072579819494  1.0000
  C   C26       1.0  0.8508533958338519  0.34389599156317285  0.3487208890891722  1.0000
  C   C27       1.0  0.8269067259115489  0.4457448781981128  0.3889109488165943  1.0000
  C   C28       1.0  0.9232253092141319  0.3024860219167494  0.3628649896383607  1.0000
  C   C29       1.0  0.8044803980000099  0.4155710475210839  0.36192457347073054  1.0000
  C   C30       1.0  0.9455927773290682  0.33260078414328115  0.3898737788824534  1.0000
  C   C31       1.0  0.09515667683542971  0.6047081314477367  0.5945555290722879  1.0000
  C   C32       1.0  0.1498400641162405  0.6494682892272651  0.6534327669357581  1.0000
  C   C33       1.0  0.1360883976384528  0.6504267956152394  0.5818287415843315  1.0000
  C   C34       1.0  0.10730955795815332  0.6052093541487481  0.6661679433409303  1.0000
  C   C35       1.0  0.16247700767823403  0.6716471610426211  0.6111634913802818  1.0000
  C   C36       1.0  0.08072026047278771  0.5840589280578784  0.6368628486963176  1.0000
  C   C37       1.0  0.30650799297731623  0.4559593202776144  0.40069533381415573  1.0000
  C   C38       1.0  0.4478401086122616  0.2976107868142392  0.34801750264217907  1.0000
  C   C39       1.0  0.2595982245852682  0.4171370176465319  0.4125300413320545  1.0000
  C   C40       1.0  0.4938743490468553  0.33659396940407055  0.3364136680103087  1.0000
  C   C41       1.0  0.37995106152951763  0.34108125466669753  0.3717304415873315  1.0000
  C   C42       1.0  0.3757109981948262  0.41239798995901117  0.3774463576606166  1.0000
  C   C43       1.0  0.726891205362108  0.5828137687570988  0.633457349534993  1.0000
  C   C44       1.0  0.5248377892227793  0.676361650174869  0.6213946670815247  1.0000
  C   C45       1.0  0.7447377080504013  0.5867240397980499  0.5908607595788737  1.0000
  C   C46       1.0  0.5078391511803559  0.6714005445272381  0.6637225260202088  1.0000
  C   C47       1.0  0.6047749467639109  0.6450169538039818  0.6104305569904085  1.0000
  C   C48       1.0  0.646681452751146  0.6165066760641056  0.6447081457909505  1.0000
  C   C49       1.0  0.075621138518116  0.22797988396563804  0.6281689343653271  1.0000
  C   C50       1.0  0.17463004458688405  0.025102029065074288  0.6205652072127634  1.0000
  C   C51       1.0  0.08954362505284762  0.24339279302286343  0.5856044900077109  1.0000
  C   C52       1.0  0.15999224691335462  0.009965109128579301  0.6626480795796895  1.0000
  C   C53       1.0  0.14333328981538782  0.1045661187063018  0.6083054242705542  1.0000
  C   C54       1.0  0.1059874009180604  0.1482867632647072  0.6414131507300594  1.0000
  C   C55       1.0  0.8343520340903227  0.8022903139241182  0.40013283570755925  1.0000
  C   C56       1.0  0.903616318777651  0.9446579422627437  0.3502683294821836  1.0000
  C   C57       1.0  0.9051390930290709  0.7569229910658639  0.41430063497644204  1.0000
  C   C58       1.0  0.8331740510682836  0.9892753089021941  0.3364346128719261  1.0000
  C   C59       1.0  0.9035527171735327  0.8767810374354854  0.37365967203519546  1.0000
  C   C60       1.0  0.8331172851596734  0.8712193959376862  0.3769063270019116  1.0000
  C   C61       1.0  0.6566335553930998  0.1528887602622861  0.15014425153628957  1.0000
  C   C62       1.0  0.5965031067020519  0.09494977117982029  0.10025462088545113  1.0000
  C   C63       1.0  0.6748561791528972  0.16019707493504154  0.10702889147528787  1.0000
  C   C64       1.0  0.5789847319728595  0.08704156351614498  0.14343004024188838  1.0000
  C   C65       1.0  0.6447195267821544  0.13150006383554577  0.08318977719238768  1.0000
  C   C66       1.0  0.6091157075194786  0.11560598810424969  0.1672974434958761  1.0000
  C   C67       1.0  0.6754183597547226  0.5225837509774749  0.11949191016296368  1.0000
  C   C68       1.0  0.5757668484168904  0.7251580030376844  0.12792852966924068  1.0000
  C   C69       1.0  0.6675685393622645  0.5066755389583194  0.1622355717939357  1.0000
  C   C70       1.0  0.5839083820718258  0.7402061624428247  0.08553343266973455  1.0000
  C   C71       1.0  0.6085732198730938  0.6457118870906629  0.14013292863251084  1.0000
  C   C72       1.0  0.6413651589941836  0.6022411438247559  0.10668866913679415  1.0000
  C   C73       1.0  0.08520649397070912  0.11468938304027185  0.17941967309307927  1.0000
  C   C74       1.0  0.16829425931011602  0.12462538646534682  0.0729938433306785  1.0000
  C   C75       1.0  0.012301254190759902  0.1570071875565446  0.16726276342200921  1.0000
  C   C76       1.0  0.24030726888016568  0.08275555967145468  0.08533917065300761  1.0000
  C   C77       1.0  0.11196351136680252  0.1358403084643669  0.10740416028944111  1.0000
  C   C78       1.0  0.1425702784989937  0.10228333700786152  0.1451589754042857  1.0000
  C   C79       1.0  0.3390857457955505  0.8531972893208534  0.8483133118135485  1.0000
  C   C80       1.0  0.4040339003641122  0.8983037890050485  0.9020985500920278  1.0000
  C   C81       1.0  0.2994387158313785  0.9251449916927117  0.8627517211378761  1.0000
  C   C82       1.0  0.4429772165176118  0.8255880151837333  0.888430266524587  1.0000
  C   C83       1.0  0.33217070303066276  0.9461828200244898  0.8890418612157732  1.0000
  C   C84       1.0  0.41016590357366317  0.8045836662432893  0.8620986118277116  1.0000
  C   C85       1.0  0.4085863319147053  0.4526343706766555  0.8564392561684074  1.0000
  C   C86       1.0  0.3472913564861956  0.3015621869410198  0.8988061142781447  1.0000
  C   C87       1.0  0.34042685009595175  0.49398758854270136  0.8389649642739981  1.0000
  C   C88       1.0  0.4152062816153403  0.26041525574949287  0.9158298097715658  1.0000
  C   C89       1.0  0.3449606202737884  0.3717013018423074  0.8774367632837823  1.0000
  C   C90       1.0  0.41139136274214394  0.38236072443231717  0.8786115033388598  1.0000
  C   C91       1.0  0.9475355660902239  0.7878431534703056  0.8511665015397725  1.0000
  C   C92       1.0  0.8053426115186327  0.9510022050206715  0.8999295829241235  1.0000
  C   C93       1.0  0.9918445248825022  0.8285466695172731  0.8356169174687481  1.0000
  C   C94       1.0  0.7616997348153519  0.9103495039165849  0.9152993573245922  1.0000
  C   C95       1.0  0.8730710321838943  0.9059334998037873  0.8767379902633864  1.0000
  C   C96       1.0  0.8793282194127132  0.8320312073345022  0.874878002770835  1.0000
  S   S1        1.0  0.2999413794226271  0.3281449575287354  0.39556265681330427  1.0000
  S   S2        1.0  0.45606541919470805  0.4252422782472535  0.35415855587363865  1.0000
  S   S3        1.0  0.6643328571477057  0.6324303973598833  0.564891822793804  1.0000
  S   S4        1.0  0.5876538358902935  0.6297558405128072  0.6904055965746566  1.0000
  S   S5        1.0  0.1389875355630252  0.16147393253623224  0.5619321333620703  1.0000
  S   S6        1.0  0.10853587487351042  0.09107268258458842  0.6876327167882651  1.0000
  S   S7        1.0  0.9692893762675469  0.7983976032365663  0.39972353074783473  1.0000
  S   S8        1.0  0.7667006679919908  0.9500996893018513  0.35150292800678784  1.0000
  S   S9        1.0  0.6186174661921343  0.5882642061545057  0.18648361982972966  1.0000
  S   S10       1.0  0.6304326875403774  0.65927528609533  0.06019736714939938  1.0000
  S   S11       1.0  0.013782640508900101  0.18075215840801212  0.11449772505906711  1.0000
  S   S12       1.0  0.24068378635031004  0.05634186856011782  0.13816666065208946  1.0000
  S   S13       1.0  0.2799556392869179  0.44812911700235253  0.8498730623724599  1.0000
  S   S14       1.0  0.47619510548481253  0.30626067516076466  0.9065135067775715  1.0000
  S   S15       1.0  0.9509568265151958  0.9195699720350844  0.8500009292917668  1.0000
  S   S16       1.0  0.8018797537500577  0.817939735539774  0.902062393644904  1.0000
  S   S17       1.0  0.2911781722803967  0.5454376747118986  0.413886800620034  1.0000
  S   S18       1.0  0.7901187373863934  0.545362164284974  0.6721226052774227  1.0000
  S   S19       1.0  0.020906930850166802  0.2945463771405414  0.663400212853233  1.0000
  S   S20       1.0  0.7508544190399392  0.784864324292556  0.4101023533785337  1.0000
  S   S21       1.0  0.7159224308012854  0.45693511217415056  0.08253815976485158  1.0000
  S   S22       1.0  0.10999445033796461  0.0735058043570547  0.22971908624678153  1.0000
  S   S23       1.0  0.4829594051774608  0.48131460464051673  0.8563391935701573  1.0000
  S   S24       1.0  0.9703992595785638  0.6911540091815951  0.847043237799049  1.0000
  Br  Br1       1.0  0.7578199626399282  0.5452565251062323  0.40131940363497887  1.0000
  Br  Br2       1.0  0.9969076831664054  0.20767754646342274  0.34591954896750116  1.0000
  Br  Br3       1.0  0.1570028179843206  0.6887651581227205  0.5264848886887705  1.0000
  Br  Br4       1.0  0.08004670627304482  0.5726900815866004  0.7217974365017882  1.0000
  Br  Br5       1.0  0.7403812942073671  0.205513980650295  0.07775616748122614  1.0000
  Br  Br6       1.0  0.5161151728255647  0.03871006258860625  0.17344236231574683  1.0000
  Br  Br7       1.0  0.2009531380216529  0.9984688045685317  0.8498697676948127  1.0000
  Br  Br8       1.0  0.5384123810257294  0.7501251444601279  0.9039647668229521  1.0000
  O   O1        1.0  0.0005277676063073004  0.49867882933282465  0.4998087986740813  1.0000
  O   O2        1.0  0.0746244898559922  0.3144725725797458  0.520697992510307  1.0000
  O   O3        1.0  0.0178954026951956  0.5475520113778602  0.5833157877789787  1.0000
  O   O4        1.0  0.14779984960305373  0.5103924090033162  0.4421475884682735  1.0000
  O   O5        1.0  0.04780896651602261  0.3759950960295343  0.5771527298430285  1.0000
  O   O6        1.0  0.15865819286082683  0.3884528804379102  0.44774257286292857  1.0000
  O   O7        1.0  0.09356370629552661  0.5764761082189624  0.5287762415516112  1.0000
  O   O8        1.0  0.9963576844710718  0.6605640316054888  0.4529276689306768  1.0000
  O   O9        1.0  0.8818520999554664  0.48167765681851205  0.4541605771414866  1.0000
  O   O10       1.0  0.8938496400423973  0.6425844888959843  0.44222843572318743  1.0000
  O   O11       1.0  0.00083602868024  0.3925143775248757  0.43620942125348705  1.0000
  O   O12       1.0  0.8770023955845759  0.5078474479263735  0.5819523277073486  1.0000
  O   O13       1.0  0.8173355778598436  0.5849627273565899  0.5270391239238138  1.0000
  O   O14       1.0  0.7514624358039584  0.24987068849595326  0.25005521900131095  1.0000
  O   O15       1.0  0.6035642041600866  0.3542759474230762  0.3064477014958626  1.0000
  O   O16       1.0  0.6738374212649206  0.15730596215601614  0.21765402582079219  1.0000
  O   O17       1.0  0.7430468532064866  0.3750052499660796  0.1716153466666128  1.0000
  O   O18       1.0  0.591649173809877  0.24822945278290143  0.2962209874709245  1.0000
  O   O19       1.0  0.6678331875501301  0.4348422468199687  0.2266744510418377  1.0000
  O   O20       1.0  0.7119632619945266  0.22988764701521783  0.165020548660415  1.0000
  O   O21       1.0  0.8796894038348668  0.21070841922087907  0.17099416700247622  1.0000
  O   O22       1.0  0.8498936594454493  0.24659399994583003  0.3166527565686934  1.0000
  O   O23       1.0  0.9344941257485291  0.1822708354246173  0.23025713553470684  1.0000
  O   O24       1.0  0.7617958474007835  0.36813266108610104  0.3030191325870248  1.0000
  O   O25       1.0  0.7415716596077574  0.09574872833381695  0.30230869155365536  1.0000
  O   O26       1.0  0.861058367328596  0.09036067011906128  0.3005698336627276  1.0000
  O   O27       1.0  0.2487173763872903  0.74977894884416  0.749174987547562  1.0000
  O   O28       1.0  0.37384157010086483  0.7225465288411287  0.6675623502742597  1.0000
  O   O29       1.0  0.35330293667113477  0.75451631359816  0.8123468644414018  1.0000
  O   O30       1.0  0.1616125480039585  0.9342433390867342  0.7258003432056269  1.0000
  O   O31       1.0  0.43073118605398264  0.6884457116004229  0.7265675997171073  1.0000
  O   O32       1.0  0.2235561603024365  0.8764394923213531  0.668000545797277  1.0000
  O   O33       1.0  0.2522572118085407  0.8691433058231227  0.8025223442034745  1.0000
  O   O34       1.0  0.09738688660301881  0.85268875883812  0.805517826965051  1.0000
  O   O35       1.0  0.18279164631876912  0.6474227077850261  0.7188033808878203  1.0000
  O   O36       1.0  0.0900149548880336  0.7461052370587922  0.7925519914648761  1.0000
  O   O37       1.0  0.20898109627626132  0.7251839705321858  0.6645762764215775  1.0000
  O   O38       1.0  0.36248719018792036  0.5955699665000015  0.7983567751136605  1.0000
  O   O39       1.0  0.24416785145916722  0.5957104674943282  0.8056252227473167  1.0000
  O   O40       1.0  0.5002089390823556  9.33781207876999e-05  0.9992710252528597  1.0000
  O   O41       1.0  0.5039970185851957  0.15824494271250708  0.9537653106985787  1.0000
  O   O42       1.0  0.38486693218398227  0.9917469135142486  0.9435361781035213  1.0000
  O   O43       1.0  0.6583612968952721  0.8880961797446292  0.9516661278821488  1.0000
  O   O44       1.0  0.39443599066262897  0.1514105583121719  0.9445072044076995  1.0000
  O   O45       1.0  0.6577980730325024  0.005541543466478193  0.949132244688613  1.0000
  O   O46       1.0  0.5020585317744022  0.8931504084622974  0.9365897317621475  1.0000
  O   O47       1.0  0.568570839371141  0.8160161019272042  0.021999351190537166  1.0000
  O   O48       1.0  0.5224468453015305  0.03636860007836877  0.08517116017589639  1.0000
  O   O49       1.0  0.5292004835529909  0.8736634772292291  0.08073254753328026  1.0000
  O   O50       1.0  0.5927468409086033  0.07741711313634891  0.0326294994713763  1.0000
  O   O51       1.0  0.3139890551030505  0.0795160966948814  0.020756720902745888  1.0000
  O   O52       1.0  0.3728537797937364  0.01945413763639442  0.07868517812271139  1.0000
  O   O53       1.0  0.21943239940976164  0.6060466339463632  0.39007504062021786  1.0000
  O   O54       1.0  0.26665463932531  0.5493176827522676  0.4567811989057233  1.0000
  O   O55       1.0  0.35730228096451816  0.5586157843781407  0.39425832280567624  1.0000
  O   O56       1.0  0.8152405010686651  0.4561091222473834  0.6753392308373307  1.0000
  O   O57       1.0  0.8552446971377422  0.5631839754963437  0.6595685112763549  1.0000
  O   O58       1.0  0.7413320568801113  0.5683063798042057  0.7095869581406049  1.0000
  O   O59       1.0  0.0695837879299219  0.3423156780396397  0.6638464079974327  1.0000
  O   O60       1.0  0.9514872855696054  0.348226507521929  0.646962950475377  1.0000
  O   O61       1.0  0.0192291959318425  0.25098938134104304  0.7032387210900525  1.0000
  O   O62       1.0  0.7731454621232816  0.7137305375754224  0.38510168770036296  1.0000
  O   O63       1.0  0.7377369715982313  0.7584198259724533  0.452505751220734  1.0000
  O   O64       1.0  0.6931267744652204  0.8506707301188429  0.3896967601503433  1.0000
  O   O65       1.0  0.8062142218500129  0.41761020656127823  0.08757678939793576  1.0000
  O   O66       1.0  0.6899582026383442  0.3976089220060786  0.09327775218888232  1.0000
  O   O67       1.0  0.7071231855780412  0.5031038171051136  0.043010257574835  1.0000
  O   O68       1.0  0.08753377929302532  0.146267122576873  0.2534061041339868  1.0000
  O   O69       1.0  0.06233692101584858  0.03648164878494241  0.2504458261108767  1.0000
  O   O70       1.0  0.19232253492708654  0.03359989581575465  0.22519505037536902  1.0000
  O   O71       1.0  0.5193998006818389  0.48430162043884223  0.8087849978003376  1.0000
  O   O72       1.0  0.451570548434603  0.5573160279270795  0.86673556722603  1.0000
  O   O73       1.0  0.5394424890281685  0.4184052761206232  0.8790784049474284  1.0000
  O   O74       1.0  0.9701277688737735  0.6906895742766964  0.7987924037980675  1.0000
  O   O75       1.0  0.04672650168483022  0.6432971685378918  0.8561023399523293  1.0000
  O   O76       1.0  0.9060432782319766  0.6770884603562591  0.8689781748169026  1.0000
