data_image0
_chemical_formula_structural       Ag4H4C8N16O8
_chemical_formula_sum              "Ag4 H4 C8 N16 O8"
_cell_length_a       3.647192417562217
_cell_length_b       11.280708852166725
_cell_length_c       11.459729830794569
_cell_angle_alpha    90.00026628362535
_cell_angle_beta     91.63798437415822
_cell_angle_gamma    90.0005737096095

_space_group_name_H-M_alt    "P 1"
_space_group_IT_number       1

loop_
  _space_group_symop_operation_xyz
  'x, y, z'

loop_
  _atom_site_type_symbol
  _atom_site_label
  _atom_site_symmetry_multiplicity
  _atom_site_fract_x
  _atom_site_fract_y
  _atom_site_fract_z
  _atom_site_occupancy
  Ag  Ag1       1.0  0.3465379982345667  0.8798344714472179  0.3766369660827423  1.0000
  Ag  Ag2       1.0  0.6534541160615247  0.37983655559662566  0.12336417506477913  1.0000
  Ag  Ag3       1.0  0.6534490317682754  0.12016610402657339  0.6233629215655443  1.0000
  Ag  Ag4       1.0  0.3465439239470526  0.6201649063630016  0.8766349902190174  1.0000
  H   H1        1.0  0.5933758524789638  0.9130076307972316  0.8334575556060319  1.0000
  H   H2        1.0  0.40662329601295966  0.4130055460954908  0.6665408748913964  1.0000
  H   H3        1.0  0.4066414648128501  0.08699205825292469  0.16654012748832517  1.0000
  H   H4        1.0  0.5933692586603172  0.5869968023239023  0.3334582154909357  1.0000
  C   C1        1.0  0.4692708294925011  0.8760636376356885  0.7545514782286845  1.0000
  C   C2        1.0  0.5307326034705114  0.37606322494727346  0.7454485913291367  1.0000
  C   C3        1.0  0.5307271712078857  0.12393693785680429  0.24544855922685124  1.0000
  C   C4        1.0  0.4692791892181916  0.6239391235028647  0.2545498890419823  1.0000
  C   C5        1.0  0.20291874744578564  0.7637215640476924  0.633740532814386  1.0000
  C   C6        1.0  0.7970785301031711  0.2637261552842459  0.8662589513529825  1.0000
  C   C7        1.0  0.7970875204917005  0.2362736926421505  0.3662587448097129  1.0000
  C   C8        1.0  0.20291958846793534  0.7362735337331897  0.13373846957869523  1.0000
  N   N1        1.0  0.44482145326156797  0.9352732882375532  0.6522345479278471  1.0000
  N   N2        1.0  0.555172847051331  0.43527521055060703  0.8477647884508459  1.0000
  N   N3        1.0  0.5551682800940014  0.06472551430466922  0.3477662493418238  1.0000
  N   N4        1.0  0.4448334995698673  0.5647262514190812  0.15223274484058896  1.0000
  N   N5        1.0  0.32272307422397967  0.7668574702190725  0.7464481016068022  1.0000
  N   N6        1.0  0.6772797839111817  0.26686024517744034  0.7535514727552055  1.0000
  N   N7        1.0  0.677286015031214  0.23314133234794804  0.2535494691299576  1.0000
  N   N8        1.0  0.3227182954190583  0.7331429897184377  0.24644682035901164  1.0000
  N   N9        1.0  0.2724286941579451  0.8628314460559067  0.5737581545379413  1.0000
  N   N10       1.0  0.7275634054876434  0.3628351998723502  0.926240828508604  1.0000
  N   N11       1.0  0.7275693065155125  0.1371673564983524  0.4262418829132671  1.0000
  N   N12       1.0  0.27243467381566694  0.6371662620853015  0.07375746460129312  1.0000
  N   N13       1.0  0.00622024612027159  0.6655739169182054  0.5838607887844348  1.0000
  N   N14       1.0  0.9937767139343805  0.16558028672930897  0.9161399984696532  1.0000
  N   N15       1.0  0.9937747367483708  0.3344204532996783  0.4161453164214493  1.0000
  N   N16       1.0  0.006226968574956998  0.8344194022935127  0.0838557530178434  1.0000
  O   O1        1.0  0.9628230802090056  0.5764004155450236  0.6460079364437875  1.0000
  O   O2        1.0  0.03717924168117288  0.0764050667401506  0.8539960169115021  1.0000
  O   O3        1.0  0.03719650819351019  0.4235975005953563  0.3540002501848463  1.0000
  O   O4        1.0  0.962810648866778  0.9235946222632593  0.1460012916647386  1.0000
  O   O5        1.0  0.883445919248679  0.6761631318004999  0.48186440313248374  1.0000
  O   O6        1.0  0.11654541467265028  0.17617533660025939  0.018137563879875508  1.0000
  O   O7        1.0  0.11651587643729037  0.32382946543691554  0.5181473578646205  1.0000
  O   O8        1.0  0.8834720598250101  0.8238261253802077  0.9818566305232113  1.0000
