data_image0
_chemical_formula_structural       Cd4H40C48N8O16
_chemical_formula_sum              "Cd4 H40 C48 N8 O16"
_cell_length_a       8.193527996532927
_cell_length_b       10.242093604590547
_cell_length_c       16.14549579718739
_cell_angle_alpha    102.16134848747522
_cell_angle_beta     90.0175035388905
_cell_angle_gamma    113.5672246427477

_space_group_name_H-M_alt    "P 1"
_space_group_IT_number       1

loop_
  _space_group_symop_operation_xyz
  'x, y, z'

loop_
  _atom_site_type_symbol
  _atom_site_label
  _atom_site_symmetry_multiplicity
  _atom_site_fract_x
  _atom_site_fract_y
  _atom_site_fract_z
  _atom_site_occupancy
  Cd  Cd1       1.0  0.6545482898625465  0.00011897068594640064  0.2499453993529031  1.0000
  Cd  Cd2       1.0  0.3454519058061152  0.9998810304511992  0.750054423552207  1.0000
  Cd  Cd3       1.0  0.15202192997195846  0.9998740198030092  0.24999345212039253  1.0000
  Cd  Cd4       1.0  0.8479775946399356  0.0001270806998406015  0.7500059010312582  1.0000
  H   H1        1.0  0.2515224578521326  0.2491712818527602  0.8737629984738859  1.0000
  H   H2        1.0  0.002157093648761986  0.7506812202728668  0.6262714009319055  1.0000
  H   H3        1.0  0.7484771818363855  0.7508276056645472  0.12623915027077  1.0000
  H   H4        1.0  0.9978425548274147  0.24931768632825418  0.3737282729168569  1.0000
  H   H5        1.0  0.6523871544306276  0.334949625836245  0.7051066758918052  1.0000
  H   H6        1.0  0.31730045787622874  0.6647056125960517  0.7949199931561778  1.0000
  H   H7        1.0  0.34761060473953614  0.6650503849602527  0.2948919093936836  1.0000
  H   H8        1.0  0.6827063960033969  0.33529550186732854  0.2050775043385826  1.0000
  H   H9        1.0  0.6705882733584687  0.6019302649825562  0.7999674427638295  1.0000
  H   H10       1.0  0.06839641847408726  0.39779798663570887  0.7001133665873593  1.0000
  H   H11       1.0  0.3294111251922232  0.398073024651083  0.20003220841469013  1.0000
  H   H12       1.0  0.9316055404393921  0.6022030994368421  0.29988784290789267  1.0000
  H   H13       1.0  0.6408833159295213  0.7481471506332438  0.9034964167439908  1.0000
  H   H14       1.0  0.8928759204355785  0.25171232962813406  0.5965456829947653  1.0000
  H   H15       1.0  0.359113218400637  0.25185285068007346  0.09650340590360429  1.0000
  H   H16       1.0  0.10712141320946246  0.7482843879596431  0.4034536926554537  1.0000
  H   H17       1.0  0.5807720242666932  0.9182988173663628  0.019645453923203576  1.0000
  H   H18       1.0  0.66288841830891  0.08146487516559381  0.48033480583077887  1.0000
  H   H19       1.0  0.4192251833171526  0.08170008935220349  0.9803542197538844  1.0000
  H   H20       1.0  0.33711014017612945  0.9185318519053709  0.5196633324573341  1.0000
  H   H21       1.0  0.11207725673556009  0.5653135742653106  0.06554076829328177  1.0000
  H   H22       1.0  0.5462934333953271  0.4342235537058414  0.4344658433605844  1.0000
  H   H23       1.0  0.8879234861255866  0.4346875214078736  0.934459203668183  1.0000
  H   H24       1.0  0.4537060868227343  0.5657775372551086  0.5655347472390132  1.0000
  H   H25       1.0  0.16664836911414235  0.3914303561843583  0.9495107031639876  1.0000
  H   H26       1.0  0.7747224136557876  0.6082603622124269  0.5504944635770385  1.0000
  H   H27       1.0  0.8333499328546737  0.6085707396062644  0.050489268625796085  1.0000
  H   H28       1.0  0.2252777754221285  0.3917396246118656  0.4495072154999916  1.0000
  H   H29       1.0  0.03631910183129606  0.2979069681895367  0.08695020580626787  1.0000
  H   H30       1.0  0.7385992400591874  0.7019344563875902  0.4130882133759356  1.0000
  H   H31       1.0  0.9636781079494624  0.702091943299976  0.9130488491468396  1.0000
  H   H32       1.0  0.2613997351633088  0.2980655448082813  0.5869116094433408  1.0000
  H   H33       1.0  0.8089152717168205  0.16482278928662447  0.07183180807105319  1.0000
  H   H34       1.0  0.6440027045948611  0.8348400978983291  0.4282784071886922  1.0000
  H   H35       1.0  0.19108315851010357  0.8351761221441691  0.9281672469678952  1.0000
  H   H36       1.0  0.3559980382662858  0.1651609977748549  0.5717215647727727  1.0000
  H   H37       1.0  0.9712550640143933  0.131140663104361  0.008729103320163696  1.0000
  H   H38       1.0  0.8401321092235676  0.868672964473724  0.4913616831115845  1.0000
  H   H39       1.0  0.028742692958850603  0.8688593429211835  0.9912701006892986  1.0000
  H   H40       1.0  0.1598686336375721  0.13132813119946005  0.5086382888498804  1.0000
  C   C1        1.0  0.3616863586514682  0.3085833524791609  0.8406333018867753  1.0000
  C   C2        1.0  0.0527796114237233  0.691185630991555  0.6594355350497096  1.0000
  C   C3        1.0  0.638314375422013  0.6914177241102095  0.15936914497058294  1.0000
  C   C4        1.0  0.9472230273341822  0.3088143747991055  0.3405636693031083  1.0000
  C   C5        1.0  0.5717467502783293  0.35787213189244943  0.7545980756372968  1.0000
  C   C6        1.0  0.21364682103288865  0.6418201080100943  0.7454615790836809  1.0000
  C   C7        1.0  0.4282504551086034  0.6421267700551566  0.24540221676376456  1.0000
  C   C8        1.0  0.7863558177250242  0.3581798977805661  0.2545376252691369  1.0000
  C   C9        1.0  0.5818869812274272  0.4900932844008849  0.8007864011404563  1.0000
  C   C10       1.0  0.09152640688758854  0.5096349005077556  0.6992813058886964  1.0000
  C   C11       1.0  0.4181088886367164  0.5099078305909898  0.19921109558176645  1.0000
  C   C12       1.0  0.9084786705657352  0.4903651003945056  0.30071851735976907  1.0000
  C   C13       1.0  0.4104371667153187  0.5575574740842838  0.9201910800935451  1.0000
  C   C14       1.0  0.8526979343795915  0.44219792335863417  0.5798141846372501  1.0000
  C   C15       1.0  0.5895623535027495  0.4424436168766661  0.07980951050605259  1.0000
  C   C16       1.0  0.14730116470718707  0.5577998839355017  0.4201859588791378  1.0000
  C   C17       1.0  0.5253343278418612  0.706384870878864  0.9390657711090709  1.0000
  C   C18       1.0  0.8189500747711094  0.29338738059361447  0.5609529822629966  1.0000
  C   C19       1.0  0.47466342473755674  0.2936151256047809  0.06093467034833819  1.0000
  C   C20       1.0  0.18104834886507595  0.7066115165243188  0.4390479289478718  1.0000
  C   C21       1.0  0.4910216184334999  0.8027690880788825  0.00401395337859608  1.0000
  C   C22       1.0  0.6883718255915312  0.19694738495028472  0.49594998164202747  1.0000
  C   C23       1.0  0.5089773545920835  0.197230908346036  0.9959864881646537  1.0000
  C   C24       1.0  0.3116278206877324  0.8030515168798827  0.504050310930708  1.0000
  C   C25       1.0  0.3426630241172575  0.7528198333319195  0.05013517952053797  1.0000
  C   C26       1.0  0.5898480536284652  0.24685572654695415  0.4498370309374451  1.0000
  C   C27       1.0  0.6573347328559862  0.2471801726936249  0.9498640244889242  1.0000
  C   C28       1.0  0.410150921594031  0.7531442746489174  0.5501627918818313  1.0000
  C   C29       1.0  0.2276753515293777  0.6038025301256837  0.029743175150947775  1.0000
  C   C30       1.0  0.6235697456004416  0.39582293892694753  0.47026365947425564  1.0000
  C   C31       1.0  0.7723248397454513  0.396197461469562  0.970257885202116  1.0000
  C   C32       1.0  0.3764311211249805  0.6041759628444937  0.5297366331843206  1.0000
  C   C33       1.0  0.25996354631967483  0.5061563258720555  0.9651984236779966  1.0000
  C   C34       1.0  0.7535205960643194  0.49355950069873694  0.5348002214043388  1.0000
  C   C35       1.0  0.740034755649134  0.4938447699185673  0.03480154811179399  1.0000
  C   C36       1.0  0.24647904582111116  0.5064393915895236  0.4652013086163435  1.0000
  C   C37       1.0  0.3039416325779456  0.8559784559737906  0.11920238504244907  1.0000
  C   C38       1.0  0.44799111508649503  0.14374751459325102  0.38074608184943054  1.0000
  C   C39       1.0  0.6960585608938034  0.1440215403924086  0.8807980565866341  1.0000
  C   C40       1.0  0.5520120686669755  0.8562535809624804  0.6192538902837084  1.0000
  C   C41       1.0  0.9917767054496807  0.10704747992016188  0.1360077021271309  1.0000
  C   C42       1.0  0.8844229816895749  0.8929134231937397  0.36405113561887953  1.0000
  C   C43       1.0  0.00822227416664126  0.8929525308176096  0.8639908832441916  1.0000
  C   C44       1.0  0.11557599353292146  0.10708657800213217  0.6359486872003969  1.0000
  C   C45       1.0  0.949244017080467  0.18082070551534457  0.07274470423823227  1.0000
  C   C46       1.0  0.7684256410773005  0.8189887654185172  0.4273265428177665  1.0000
  C   C47       1.0  0.05075319270029146  0.8191782059741682  0.9272543507148753  1.0000
  C   C48       1.0  0.23157400739887626  0.18101014118260386  0.5726731310309886  1.0000
  N   N1        1.0  0.43418406393600156  0.2460696671929057  0.7800876300793148  1.0000
  N   N2        1.0  0.187899165631535  0.7536621679002238  0.7199654787072302  1.0000
  N   N3        1.0  0.5658136864464963  0.7539303245197855  0.2199134301020748  1.0000
  N   N4        1.0  0.8121065872723892  0.24633674317824017  0.2800335768467476  1.0000
  N   N5        1.0  0.4473552337364383  0.45728538747824393  0.8557681008013558  1.0000
  N   N6        1.0  0.9897212156286629  0.5424732086533267  0.6443122907064875  1.0000
  N   N7        1.0  0.5526442886785361  0.5427157082536594  0.14423187107426821  1.0000
  N   N8        1.0  0.010277208007515451  0.45752568846461367  0.3556886205043809  1.0000
  O   O1        1.0  0.14483426850983244  0.8139271671391555  0.14150789314214046  1.0000
  O   O2        1.0  0.3308184903855961  0.1857968319689718  0.358553467933767  1.0000
  O   O3        1.0  0.8551659271588292  0.1860728339979971  0.8584919297629696  1.0000
  O   O4        1.0  0.6691848172321643  0.814202069685031  0.6414468248964837  1.0000
  O   O5        1.0  0.428254234923493  0.9813331901133182  0.15269780722764636  1.0000
  O   O6        1.0  0.44699703900686677  0.018442605667282008  0.3471331395608743  1.0000
  O   O7        1.0  0.5717465057407338  0.0186679007889126  0.8473027834577918  1.0000
  O   O8        1.0  0.5530026116662228  0.9815563057047925  0.6528659155639145  1.0000
  O   O9        1.0  0.8717730275849078  0.9891271439197167  0.14894640607510465  1.0000
  O   O10       1.0  0.8821928999436965  0.010881097452724503  0.3512692770730509  1.0000
  O   O11       1.0  0.1282271702806668  0.010872861988382  0.851052798106039  1.0000
  O   O12       1.0  0.11780906336361599  0.9891199981617332  0.6487306949742546  1.0000
  O   O13       1.0  0.15008422949790662  0.16376474880284062  0.17346152219899114  1.0000
  O   O14       1.0  0.985991486063206  0.8362605674053327  0.3265045864159503  1.0000
  O   O15       1.0  0.8499142007290247  0.8362341626279531  0.826537532839957  1.0000
  O   O16       1.0  0.014007486962370273  0.16373942901958569  0.6734958551272994  1.0000
