data_image0
_chemical_formula_structural       Cu4Mo8H32C40N8O28
_chemical_formula_sum              "Cu4 Mo8 H32 C40 N8 O28"
_cell_length_a       7.233189942667851
_cell_length_b       11.524520527909653
_cell_length_c       16.781175044696834
_cell_angle_alpha    89.55434655491679
_cell_angle_beta     79.743366066436
_cell_angle_gamma    81.80911860445147

_space_group_name_H-M_alt    "P 1"
_space_group_IT_number       1

loop_
  _space_group_symop_operation_xyz
  'x, y, z'

loop_
  _atom_site_type_symbol
  _atom_site_label
  _atom_site_symmetry_multiplicity
  _atom_site_fract_x
  _atom_site_fract_y
  _atom_site_fract_z
  _atom_site_occupancy
  Cu  Cu1       1.0  0.15511861711620867  0.7863221932865588  0.028525925647748807  1.0000
  Cu  Cu2       1.0  0.8448763122561757  0.21367920222169093  0.9714757491771739  1.0000
  Cu  Cu3       1.0  0.6876794000518417  0.2841411076315411  0.47827903621520573  1.0000
  Cu  Cu4       1.0  0.3123159669170619  0.7158585325313712  0.5217196353738063  1.0000
  Mo  Mo1       1.0  0.4159855010401544  0.10904033932203563  0.9439092619547155  1.0000
  Mo  Mo2       1.0  0.5840142479279394  0.8909584299802518  0.05609325623467502  1.0000
  Mo  Mo3       1.0  0.0771021206620901  0.050919646080849604  0.08439151013447342  1.0000
  Mo  Mo4       1.0  0.9228939972740945  0.9490826280909418  0.9156112625757661  1.0000
  Mo  Mo5       1.0  0.6461813100365178  0.5420963809232617  0.4162879081609249  1.0000
  Mo  Mo6       1.0  0.3538170610121441  0.45790238546844364  0.5837117340529759  1.0000
  Mo  Mo7       1.0  0.865779715229252  0.6117106366644692  0.5555954044673828  1.0000
  Mo  Mo8       1.0  0.134217661964442  0.3882863749616875  0.44440432164080346  1.0000
  H   H1        1.0  0.3255523154266272  0.7898673737939109  0.8514494986077213  1.0000
  H   H2        1.0  0.6744429808485535  0.21013840757818514  0.14855331746866807  1.0000
  H   H3        1.0  0.4707306213446358  0.6317565716037951  0.7446970053209655  1.0000
  H   H4        1.0  0.529265679491914  0.36825096383577005  0.2553045342400041  1.0000
  H   H5        1.0  0.4612810742077401  0.4223352277418402  0.7835248441849603  1.0000
  H   H6        1.0  0.5387194567448006  0.5776723101467954  0.21647458971224162  1.0000
  H   H7        1.0  0.33221277233661084  0.3758735543438477  0.9255796273071797  1.0000
  H   H8        1.0  0.6677883802148871  0.624131352795523  0.07441917775484802  1.0000
  H   H9        1.0  0.22580050334993737  0.35175190132848405  0.05109112687318171  1.0000
  H   H10       1.0  0.7741914433554983  0.6482503665548338  0.9489071920845763  1.0000
  H   H11       1.0  0.11415140120610089  0.34604856684759977  0.20022025680413694  1.0000
  H   H12       1.0  0.885844954264556  0.6539528284299012  0.7997789272011604  1.0000
  H   H13       1.0  0.009694343476439818  0.535688834212131  0.27888740524122824  1.0000
  H   H14       1.0  0.9903052161360225  0.46431081084311643  0.7211133348579966  1.0000
  H   H15       1.0  0.012798750862849265  0.7253340810227802  0.20298814213870037  1.0000
  H   H16       1.0  0.9872008087496057  0.27466556403246767  0.7970125979605174  1.0000
  H   H17       1.0  0.7077859095423379  0.20175257460733317  0.30603062692112104  1.0000
  H   H18       1.0  0.29222011188577557  0.7982435665130442  0.693967262260273  1.0000
  H   H19       1.0  0.7291913947437152  0.0018088808683387003  0.23910597934602154  1.0000
  H   H20       1.0  0.2708164314939412  0.9981855085153627  0.760892975196079  1.0000
  H   H21       1.0  0.7547601951575803  0.8242973518207892  0.32533966474048986  1.0000
  H   H22       1.0  0.24524158544813457  0.17569878754859058  0.6746615227258064  1.0000
  H   H23       1.0  0.7647488396509418  0.8480123181469429  0.4715256947061521  1.0000
  H   H24       1.0  0.23525211929377582  0.15198732842273444  0.5284755361262868  1.0000
  H   H25       1.0  0.7890500045830895  0.8873521489911699  0.5948570443747344  1.0000
  H   H26       1.0  0.21096242937976942  0.11264662800736863  0.40513975313393064  1.0000
  H   H27       1.0  0.7829694038866819  0.9528951943180319  0.7365753400229739  1.0000
  H   H28       1.0  0.21704161468431243  0.04710358221318962  0.2634227556841822  1.0000
  H   H29       1.0  0.7338279538709144  0.16776684126186583  0.7696603177240819  1.0000
  H   H30       1.0  0.26617604662599365  0.8322319290933395  0.2303377095592723  1.0000
  H   H31       1.0  0.6934199576501001  0.3107679386674321  0.6563880599702189  1.0000
  H   H32       1.0  0.30657821333651475  0.6892317041753062  0.34361099677465756  1.0000
  C   C1        1.0  0.3297568390911465  0.6966851492483813  0.8639472310344518  1.0000
  C   C2        1.0  0.6702372739734345  0.30331975311113274  0.13605389084604982  1.0000
  C   C3        1.0  0.4073547538841282  0.6094797738040044  0.8057038849768576  1.0000
  C   C4        1.0  0.592640152973374  0.3905277597720913  0.19429656754032726  1.0000
  C   C5        1.0  0.40521295978713573  0.4927071300477692  0.8278255310189453  1.0000
  C   C6        1.0  0.5947823579008684  0.5072986499281742  0.17217489981516826  1.0000
  C   C7        1.0  0.3297335577156204  0.4664104503695514  0.9069462116899489  1.0000
  C   C8        1.0  0.6702603499337203  0.5335953287900355  0.09305492103208482  1.0000
  C   C9        1.0  0.25749727722901383  0.5577312141356715  0.9627848113736452  1.0000
  C   C10       1.0  0.7425000613901959  0.44227193660544384  0.037215481358508405  1.0000
  C   C11       1.0  0.1849100246440116  0.541659547878453  0.04921423373855302  1.0000
  C   C12       1.0  0.8150847100195265  0.4583427237317964  0.9507862593067745  1.0000
  C   C13       1.0  0.1800303268902184  0.4329134132136547  0.08647896230280591  1.0000
  C   C14       1.0  0.8199650347254775  0.5670862272982902  0.9135203055967697  1.0000
  C   C15       1.0  0.11721954025659904  0.4298394258602373  0.16984903039399776  1.0000
  C   C16       1.0  0.8827765937391946  0.5701628472644488  0.8301519533845367  1.0000
  C   C17       1.0  0.0583170547658085  0.5348718975901506  0.21381871210486741  1.0000
  C   C18       1.0  0.9416811055143982  0.46512774595066037  0.7861815372611434  1.0000
  C   C19       1.0  0.06124470475535298  0.6402210445215248  0.17272411663415715  1.0000
  C   C20       1.0  0.9387542439645672  0.3597812305849077  0.8272760596791076  1.0000
  C   C21       1.0  0.7177403972665887  0.12060424996096944  0.3397462978835436  1.0000
  C   C22       1.0  0.2822630309122617  0.8793910113304695  0.660250598989883  1.0000
  C   C23       1.0  0.7329039297870565  0.010613806403618803  0.3033136863077105  1.0000
  C   C24       1.0  0.2671032855580577  0.9893832130312677  0.6966847044484298  1.0000
  C   C25       1.0  0.7480451530652203  0.9116016984821232  0.3513444803916742  1.0000
  C   C26       1.0  0.2519550227929912  0.08839531617289961  0.6486562271829472  1.0000
  C   C27       1.0  0.75127813164589  0.9246579407834192  0.43357970649054783  1.0000
  C   C28       1.0  0.24872324883573785  0.07533995148804001  0.5664203100376853  1.0000
  C   C29       1.0  0.7345941727743296  0.03746851089752571  0.4664587068742494  1.0000
  C   C30       1.0  0.2654082122686674  0.9625311354413957  0.5335400331385645  1.0000
  C   C31       1.0  0.7353161030754052  0.06413520393664382  0.552101915162311  1.0000
  C   C32       1.0  0.26468789206829507  0.9358635667676015  0.44789670843160695  1.0000
  C   C33       1.0  0.762499704989047  0.9802424142016265  0.6109801753699245  1.0000
  C   C34       1.0  0.23750950341919722  0.01975811441531051  0.38901745128708864  1.0000
  C   C35       1.0  0.7610789451251707  0.017132881157834807  0.6899551561413235  1.0000
  C   C36       1.0  0.2389346774014953  0.9828667745042456  0.3100427392526656  1.0000
  C   C37       1.0  0.7354661570361288  0.13680986432930817  0.7084083542226838  1.0000
  C   C38       1.0  0.26454065283169836  0.8631889083566904  0.29158946190595714  1.0000
  C   C39       1.0  0.7117956840012031  0.21609765324352287  0.6467958898431477  1.0000
  C   C40       1.0  0.28820671710140283  0.7839019920482858  0.3532010612379609  1.0000
  N   N1        1.0  0.2558378895336163  0.6708062569416244  0.9398765268300054  1.0000
  N   N2        1.0  0.7441544133682143  0.32920039750360547  0.0601241260003533  1.0000
  N   N3        1.0  0.1244470787317695  0.6428238513456607  0.09279766869219944  1.0000
  N   N4        1.0  0.8755508761331897  0.35717666899522993  0.9072025915153434  1.0000
  N   N5        1.0  0.7155699784306646  0.1329358656100652  0.4191800640187681  1.0000
  N   N6        1.0  0.28442980265666057  0.8670629015979969  0.5808188763072197  1.0000
  N   N7        1.0  0.7097206100314041  0.18003637264317976  0.5712583093506113  1.0000
  N   N8        1.0  0.29028338511229634  0.8199623980610656  0.4287403142433065  1.0000
  O   O1        1.0  0.37135809463526215  0.019640014622154908  0.05622490692990572  1.0000
  O   O2        1.0  0.6286438367515997  0.9803613881092238  0.9437786252505236  1.0000
  O   O3        1.0  0.3875433380220415  0.09453858227595194  0.8451608393683332  1.0000
  O   O4        1.0  0.6124610637010123  0.9054522985054875  0.15484196640309736  1.0000
  O   O5        1.0  0.5329791480408305  0.22924348701452152  0.9487862998459707  1.0000
  O   O6        1.0  0.46701740749186654  0.7707570318119396  0.051213469628358196  1.0000
  O   O7        1.0  0.16815143973713023  0.16583858797601894  0.9975592070487881  1.0000
  O   O8        1.0  0.8318483199373717  0.8341601806281961  0.002442118519468287  1.0000
  O   O9        1.0  0.1484349910404603  0.9243364826341464  0.9545872963221602  1.0000
  O   O10       1.0  0.8515627423496286  0.0756649155539293  0.045414763658627094  1.0000
  O   O11       1.0  0.03890780407655111  0.13494475064170797  0.17117202169441736  1.0000
  O   O12       1.0  0.9610897292514978  0.8650575239974079  0.8288294528173313  1.0000
  O   O13       1.0  0.08019886855523593  0.9022690493610529  0.11756314433190344  1.0000
  O   O14       1.0  0.9197988594816521  0.09773234917606294  0.8824395119594473  1.0000
  O   O15       1.0  0.6788116757081967  0.6197744795482977  0.32860823335359873  1.0000
  O   O16       1.0  0.321189083174474  0.38022604347241906  0.6713924120098085  1.0000
  O   O17       1.0  0.6811514844876286  0.3904198841675638  0.38613304099700235  1.0000
  O   O18       1.0  0.31884570335043366  0.6095780032115529  0.6138649070210109  1.0000
  O   O19       1.0  0.61380211820822  0.4314177281427548  0.5463848499595658  1.0000
  O   O20       1.0  0.3861950642766345  0.5685801595854019  0.45361369436901816  1.0000
  O   O21       1.0  0.9221577632811917  0.5156560821815219  0.44200161517997594  1.0000
  O   O22       1.0  0.07783820922704623  0.48434092827924513  0.557998216505567  1.0000
  O   O23       1.0  0.6636732921453613  0.6629393158073571  0.5006024848160424  1.0000
  O   O24       1.0  0.33632267500966867  0.3370576950024501  0.4993979431800713  1.0000
  O   O25       1.0  0.7522135974046621  0.6077482199617068  0.6545384535920961  1.0000
  O   O26       1.0  0.24778216968832822  0.3922496672991331  0.34546138893497874  1.0000
  O   O27       1.0  0.983346264031653  0.7332745443846919  0.5472907767675182  1.0000
  O   O28       1.0  0.01664972453620092  0.26672246502896263  0.45270726598631955  1.0000
