data_image0
_chemical_formula_structural       H24Pb2C40O8F12
_chemical_formula_sum              "H24 Pb2 C40 O8 F12"
_cell_length_a       8.156612621853366
_cell_length_b       11.006776600549388
_cell_length_c       12.10078527724942
_cell_angle_alpha    117.04373707206805
_cell_angle_beta     95.47162610090342
_cell_angle_gamma    89.96592722027364

_space_group_name_H-M_alt    "P 1"
_space_group_IT_number       1

loop_
  _space_group_symop_operation_xyz
  'x, y, z'

loop_
  _atom_site_type_symbol
  _atom_site_label
  _atom_site_symmetry_multiplicity
  _atom_site_fract_x
  _atom_site_fract_y
  _atom_site_fract_z
  _atom_site_occupancy
  H   H1        1.0  0.6844909040984746  0.5710119175886277  0.7300158026787146  1.0000
  H   H2        1.0  0.8156255030810798  0.8411015679251506  0.2697241287104362  1.0000
  H   H3        1.0  0.3155143378558166  0.4289852749848607  0.26998165033406  1.0000
  H   H4        1.0  0.18437128849118517  0.15889868008218846  0.7302732313146761  1.0000
  H   H5        1.0  0.6780459544990408  0.4880572826285174  0.5468555986704544  1.0000
  H   H6        1.0  0.8226076324147513  0.9410331600343581  0.4528712020017308  1.0000
  H   H7        1.0  0.3219584242109406  0.5119460414165715  0.45314929103925994  1.0000
  H   H8        1.0  0.17739291556679856  0.0589681132722362  0.547127642798209  1.0000
  H   H9        1.0  0.7658938730226764  0.3723276563385766  0.33613199395148285  1.0000
  H   H10       1.0  0.7346891692241826  0.0356991961474478  0.6636400082680609  1.0000
  H   H11       1.0  0.23411161777647038  0.6276736254330189  0.6638712954500932  1.0000
  H   H12       1.0  0.2653149606409428  0.9643000386995338  0.33635904505285913  1.0000
  H   H13       1.0  0.9416785902876869  0.4984619585914983  0.260642783985233  1.0000
  H   H14       1.0  0.5586219988302689  0.23720555731139834  0.7392666947845257  1.0000
  H   H15       1.0  0.05832448243472038  0.5015403389446715  0.7393574681183779  1.0000
  H   H16       1.0  0.44137715587228143  0.762792654515664  0.26073410406400643  1.0000
  H   H17       1.0  0.03481632578771611  0.7401888401779786  0.4011878088727983  1.0000
  H   H18       1.0  0.46543189923238504  0.33884308805606617  0.5989993934652915  1.0000
  H   H19       1.0  0.9651842932841957  0.2598134577305943  0.5988147691186967  1.0000
  H   H20       1.0  0.5345670809444556  0.6611520600121282  0.4010001291293861  1.0000
  H   H21       1.0  0.9444462803736895  0.8576375087399837  0.6153823550532279  1.0000
  H   H22       1.0  0.5558574726991311  0.2425323660106287  0.3848594085703994  1.0000
  H   H23       1.0  0.05555926537191169  0.1423647934473138  0.3846205328228933  1.0000
  H   H24       1.0  0.444143026793533  0.7574678885547784  0.6151414916417863  1.0000
  Pb  Pb1       1.0  0.7498612376136009  0.05389091641637831  0.9998952512741964  1.0000
  Pb  Pb2       1.0  0.25012917905952753  0.9461052454170088  0.00010415444032231201  1.0000
  C   C1        1.0  0.5935962500477104  0.7354991992291106  0.8807180463840325  1.0000
  C   C2        1.0  0.9065965901955622  0.8547031261179466  0.11900703080130624  1.0000
  C   C3        1.0  0.4063989640334995  0.26449492102805994  0.1192775106056203  1.0000
  C   C4        1.0  0.0934040709076669  0.1453001888573127  0.8809918378911376  1.0000
  C   C5        1.0  0.6785533081195538  0.6812992454050432  0.7767783879896726  1.0000
  C   C6        1.0  0.8217184369248544  0.9046526889856706  0.22300601004210563  1.0000
  C   C7        1.0  0.3214471331978713  0.31869998790740084  0.22322208680456163  1.0000
  C   C8        1.0  0.17828087615948363  0.0953485824139904  0.7769919303432716  1.0000
  C   C9        1.0  0.7536415293267708  0.7574560980759131  0.7237353380085239  1.0000
  C   C10       1.0  0.7467824608790041  0.033952065599685  0.2761877440572675  1.0000
  C   C11       1.0  0.24635756397176317  0.2425410916609465  0.2762642084786576  1.0000
  C   C12       1.0  0.2532192638245121  0.9660481883608867  0.7238115797392838  1.0000
  C   C13       1.0  0.8056474830763205  0.6820673751365334  0.5960185668955447  1.0000
  C   C14       1.0  0.6948165481205705  0.08610898013535008  0.4039215623325703  1.0000
  C   C15       1.0  0.19435442906803496  0.31793594593193575  0.4039853409284504  1.0000
  C   C16       1.0  0.30518271324609697  0.9138912716858699  0.5960776065216608  1.0000
  C   C17       1.0  0.7561516110139267  0.5447353121006203  0.5163314656215405  1.0000
  C   C18       1.0  0.7444527425959108  0.0282573154826977  0.48351030876770557  1.0000
  C   C19       1.0  0.24385270306325427  0.45526698901699786  0.48367134478342416  1.0000
  C   C20       1.0  0.2555454616280457  0.9717459990277106  0.5164900588692163  1.0000
  C   C21       1.0  0.8045490815105582  0.47906830412004814  0.39638815994077  1.0000
  C   C22       1.0  0.6959647936701572  0.08228429165993838  0.6034122067742587  1.0000
  C   C23       1.0  0.19545534245952464  0.5209360378289745  0.6036138474132996  1.0000
  C   C24       1.0  0.3040381142128936  0.9177149446291323  0.39658924990569483  1.0000
  C   C25       1.0  0.9037307120059949  0.5496567788518333  0.3544291349804353  1.0000
  C   C26       1.0  0.5965805757817862  0.19481086927848426  0.6454876090744079  1.0000
  C   C27       1.0  0.096267385553837  0.45034449566443174  0.6455728626507878  1.0000
  C   C28       1.0  0.40341986876441627  0.8051883648712206  0.3545136926632325  1.0000
  C   C29       1.0  0.9547313765599837  0.6859967956747964  0.4330634848651157  1.0000
  C   C30       1.0  0.5455699717855039  0.2527360467729025  0.5670117905884666  1.0000
  C   C31       1.0  0.04527175756643939  0.3140065239515906  0.5669380195998457  1.0000
  C   C32       1.0  0.4544278898446095  0.7472611418942705  0.43298767842755137  1.0000
  C   C33       1.0  0.9055832649702963  0.7516955239719252  0.5526696582856658  1.0000
  C   C34       1.0  0.5947470546359738  0.19908048240197473  0.44742208074190865  1.0000
  C   C35       1.0  0.0944187021205138  0.24830881751225317  0.4473338480128887  1.0000
  C   C36       1.0  0.40525215178424656  0.8009187490035358  0.5525774896377698  1.0000
  C   C37       1.0  0.5116965908452613  0.6340753515666507  0.9162216785351873  1.0000
  C   C38       1.0  0.9883780821276745  0.7176520583310407  0.08356544481738133  1.0000
  C   C39       1.0  0.4882975079179984  0.36592081012675237  0.08377465181920479  1.0000
  C   C40       1.0  0.011623694293511696  0.2823492152079794  0.9164326505103162  1.0000
  O   O1        1.0  0.5655363405835345  0.8609140450725121  0.9538368566377712  1.0000
  O   O2        1.0  0.9347059448838806  0.9069126339760132  0.045862478196617915  1.0000
  O   O3        1.0  0.4344564747936346  0.13908109597277019  0.046160624714317984  1.0000
  O   O4        1.0  0.0652973055930204  0.09309272815629302  0.9541398771042395  1.0000
  O   O5        1.0  0.7770362097387391  0.8865061160916595  0.7792616299998159  1.0000
  O   O6        1.0  0.7233262257652555  0.10768862770788698  0.22080326423634483  1.0000
  O   O7        1.0  0.22295948265949053  0.11349617753819531  0.22074063810703848  1.0000
  O   O8        1.0  0.276672088351603  0.8923167276339256  0.7791963003496818  1.0000
  F   F1        1.0  0.5460996957733925  0.6720829913322178  0.04030457113194071  1.0000
  F   F2        1.0  0.9539167370500364  0.6315280441452628  0.959508006228141  1.0000
  F   F3        1.0  0.4538993910675728  0.32791419673012717  0.9596933214684426  1.0000
  F   F4        1.0  0.046087328182281305  0.3684701677742411  0.04048896778802202  1.0000
  F   F5        1.0  0.34293811735636137  0.6321200038972421  0.8935026905919231  1.0000
  F   F6        1.0  0.1571307882979198  0.7381767323464102  0.10626788394494464  1.0000
  F   F7        1.0  0.6570596376096275  0.36787514477578737  0.10649840841839615  1.0000
  F   F8        1.0  0.8428683599470618  0.2618214778061514  0.8937312610167824  1.0000
  F   F9        1.0  0.5572062752145542  0.5036132272750891  0.8529048591478272  1.0000
  F   F10       1.0  0.9427408948007139  0.6506602129885977  0.14696335953486536  1.0000
  F   F11       1.0  0.44278512105334755  0.49637884559260925  0.14708796070564736  1.0000
  F   F12       1.0  0.05725847645886259  0.3493420796640194  0.8530350062684705  1.0000
