data_image0
_chemical_formula_structural       Zn2H32C38N2O8
_chemical_formula_sum              "Zn2 H32 C38 N2 O8"
_cell_length_a       9.692640949580243
_cell_length_b       11.069538243521361
_cell_length_c       17.690496855220832
_cell_angle_alpha    90.79277871031161
_cell_angle_beta     89.86780580059009
_cell_angle_gamma    89.767579690386

_space_group_name_H-M_alt    "P 1"
_space_group_IT_number       1

loop_
  _space_group_symop_operation_xyz
  'x, y, z'

loop_
  _atom_site_type_symbol
  _atom_site_label
  _atom_site_symmetry_multiplicity
  _atom_site_fract_x
  _atom_site_fract_y
  _atom_site_fract_z
  _atom_site_occupancy
  Zn  Zn1       1.0  0.363948434127117  0.4874209487897189  0.49665773873932284  1.0000
  Zn  Zn2       1.0  0.6457849030501561  0.4884932175797019  0.4974224322882532  1.0000
  H   H1        1.0  0.728961747944325  0.09513422614483598  0.4631275657255286  1.0000
  H   H2        1.0  0.2750573700456869  0.5178268364895828  0.2572884506713037  1.0000
  H   H3        1.0  0.8739548509759342  0.7008562078026728  0.6187951163851931  1.0000
  H   H4        1.0  0.7113596149062998  0.5799992054612702  0.2634330119795932  1.0000
  H   H5        1.0  0.709862430538564  0.6217801109743489  0.12454243431185565  1.0000
  H   H6        1.0  0.3464648544230897  0.43094982437661133  0.8945658558313593  1.0000
  H   H7        1.0  0.6501152608835951  0.6532305043890714  0.7194382957058918  1.0000
  H   H8        1.0  0.6491314458785452  0.7072561914854488  0.8570862545366038  1.0000
  H   H9        1.0  0.7257786184576104  0.8706619866723881  0.47002366739731355  1.0000
  H   H10       1.0  0.9852055660402143  0.4515508290043612  0.05376392961516528  1.0000
  H   H11       1.0  0.08680196992992248  0.49100574656701923  0.9743434357067283  1.0000
  H   H12       1.0  0.21932345436497502  0.11445009090469678  0.577543700506858  1.0000
  H   H13       1.0  0.0615706387424311  0.33647591313807357  0.9964094409756608  1.0000
  H   H14       1.0  0.2987264819857812  0.4048146746715346  0.03659114730822918  1.0000
  H   H15       1.0  0.19967250472223694  0.3628663347113629  0.11561684124214366  1.0000
  H   H16       1.0  0.14533343612777114  0.5778057411980555  0.14490304584523975  1.0000
  H   H17       1.0  0.23184468612431164  0.6233094019479708  0.061704381763895776  1.0000
  H   H18       1.0  0.8715350539471485  0.5633505230596114  0.6707078956181076  1.0000
  H   H19       1.0  0.08936474790500169  0.19997874334801216  0.7317292521645764  1.0000
  H   H20       1.0  0.23822005970060184  0.1062459370091418  0.7356086797463559  1.0000
  H   H21       1.0  0.11857820194639859  0.10863517243228671  0.811888049228372  1.0000
  H   H22       1.0  0.328197934859105  0.2307510182022695  0.845667990469941  1.0000
  H   H23       1.0  0.17716068202475543  0.10678628636894423  0.47959001325406786  1.0000
  H   H24       1.0  0.17962149142872613  0.32317781028674364  0.842336636201544  1.0000
  H   H25       1.0  0.24204847319109035  0.38502728397360636  0.7103539651919915  1.0000
  H   H26       1.0  0.3848204422930194  0.28945304358482093  0.710829870560097  1.0000
  H   H27       1.0  0.21518548288035785  0.8880111467850186  0.5836199742658577  1.0000
  H   H28       1.0  0.17328142675403058  0.8788603568013471  0.4853565989567768  1.0000
  H   H29       1.0  0.8749818055420346  0.3891773844267803  0.3968060639639574  1.0000
  H   H30       1.0  0.13602786361129657  0.38806188752458576  0.3970761758509978  1.0000
  H   H31       1.0  0.133971388432407  0.5605885273443718  0.6719535354514716  1.0000
  H   H32       1.0  0.13661694000013816  0.6974775986531724  0.6201792317070909  1.0000
  C   C1        1.0  0.5100242712688753  0.7243440798302244  0.5017365496426505  1.0000
  C   C2        1.0  0.4963524082024832  0.5724628079666161  0.8845513829418574  1.0000
  C   C3        1.0  0.39124292329545785  0.9283295930203007  0.5078336500003572  1.0000
  C   C4        1.0  0.49957320135496974  0.491697119498447  0.6458629395803823  1.0000
  C   C5        1.0  0.5096135145455846  0.8585579054908266  0.4966547842333425  1.0000
  C   C6        1.0  0.6314673158508056  0.9225423576464493  0.48006475981668456  1.0000
  C   C7        1.0  0.6331947939758747  0.0483149909029166  0.47606795949963016  1.0000
  C   C8        1.0  0.513322974681408  0.11835474683678632  0.48918162834127776  1.0000
  C   C9        1.0  0.39332323960812937  0.0542166953413812  0.504586713882915  1.0000
  C   C10       1.0  0.24148388681620495  0.06696924399312819  0.5238888337751103  1.0000
  C   C11       1.0  0.23890223344071865  0.9242054506528846  0.527497707362677  1.0000
  C   C12       1.0  0.49125202731855194  0.5897402780865377  0.11238261117706826  1.0000
  C   C13       1.0  0.932675026673017  0.539703665194672  0.5515083249799558  1.0000
  C   C14       1.0  0.9332478723317478  0.4327310855323887  0.4421138551889994  1.0000
  C   C15       1.0  0.0771326452125223  0.4316231037253289  0.44242105034219026  1.0000
  C   C16       1.0  0.5150911377397733  0.2528735485964049  0.48921236632207854  1.0000
  C   C17       1.0  0.07655401811202009  0.5380142035693752  0.552092784976743  1.0000
  C   C18       1.0  0.08615268701017698  0.609441021475547  0.6252498245538545  1.0000
  C   C19       1.0  0.9219511249911886  0.6114982896477272  0.6245056498675863  1.0000
  C   C20       1.0  0.49517249815239944  0.5129085866408687  0.34989449291703767  1.0000
  C   C21       1.0  0.36537152125216465  0.5630531297917257  0.14991114151548146  1.0000
  C   C22       1.0  0.3698061800218042  0.5398342475380956  0.22711867740648012  1.0000
  C   C23       1.0  0.4939826966947294  0.5993350021503403  0.03267390857286048  1.0000
  C   C24       1.0  0.493728198059351  0.542892771083828  0.26774771239776374  1.0000
  C   C25       1.0  0.6162361470229739  0.5749653009958563  0.23088535863944049  1.0000
  C   C26       1.0  0.6149479166632545  0.5985907426934103  0.15409094567670675  1.0000
  C   C27       1.0  0.2319208953042917  0.5554292030423722  0.10667082293972635  1.0000
  C   C28       1.0  0.20737163432906408  0.43015117520654655  0.07050744095088388  1.0000
  C   C29       1.0  0.07822660098180728  0.42689426438126793  0.021126610016644093  1.0000
  C   C30       1.0  0.320691600239435  0.3472115173461177  0.7483217453854958  1.0000
  C   C31       1.0  0.25031732439438054  0.2681032843841962  0.8070080618915509  1.0000
  C   C32       1.0  0.16963820103640606  0.1650474609200003  0.7696493795307897  1.0000
  C   C33       1.0  0.4962548481028008  0.5941225042257016  0.9636503031373702  1.0000
  C   C34       1.0  0.41097030964834147  0.48005466200660146  0.8550512404026731  1.0000
  C   C35       1.0  0.4095739337704315  0.44929723627383567  0.7783688325976921  1.0000
  C   C36       1.0  0.4978878743027904  0.5138580691077834  0.7297202270226177  1.0000
  C   C37       1.0  0.5834457337393315  0.6051453993723398  0.7585160738431964  1.0000
  C   C38       1.0  0.5828848723412391  0.6357400282883601  0.8350293553498882  1.0000
  N   N1        1.0  0.8577771634542868  0.48808482691719496  0.49748431810123594  1.0000
  N   N2        1.0  0.1520398599118735  0.4852570302469133  0.4983159725792985  1.0000
  O   O1        1.0  0.39355107533698674  0.6718054921676779  0.49582146838022806  1.0000
  O   O2        1.0  0.6261967030072738  0.6725002907068428  0.511521857091054  1.0000
  O   O3        1.0  0.3830143348711985  0.49440674741455837  0.6128489304063292  1.0000
  O   O4        1.0  0.6162834687193097  0.4761567671880584  0.6139659928117067  1.0000
  O   O5        1.0  0.39853905806334206  0.3052939852832708  0.49800521199495024  1.0000
  O   O6        1.0  0.6310461506714303  0.3056182985908364  0.48191390933627065  1.0000
  O   O7        1.0  0.38001863269048636  0.48694082997849353  0.38073407002406146  1.0000
  O   O8        1.0  0.6115493705254024  0.5157919893278587  0.38347870591032757  1.0000
