data_image0
_chemical_formula_structural       Cu12H48C84N60
_chemical_formula_sum              "Cu12 H48 C84 N60"
_cell_length_a       28.023667046191743
_cell_length_b       30.867812360371314
_cell_length_c       31.693287605147457
_cell_angle_alpha    87.72435571340407
_cell_angle_beta     83.86516138091373
_cell_angle_gamma    86.55700142170818

_space_group_name_H-M_alt    "P 1"
_space_group_IT_number       1

loop_
  _space_group_symop_operation_xyz
  'x, y, z'

loop_
  _atom_site_type_symbol
  _atom_site_label
  _atom_site_symmetry_multiplicity
  _atom_site_fract_x
  _atom_site_fract_y
  _atom_site_fract_z
  _atom_site_occupancy
  Cu  Cu1       1.0  0.9509919449067039  0.8379826837109973  0.8947424731951089  1.0000
  Cu  Cu2       1.0  0.8799694075894775  0.8771776888692033  0.8295333961483209  1.0000
  Cu  Cu3       1.0  0.8396361730311669  0.8565894266900571  0.9233815062298447  1.0000
  Cu  Cu4       1.0  0.5914745893221535  0.31029202063214  0.1134675133458956  1.0000
  Cu  Cu5       1.0  0.628748376184987  0.39388157277468144  0.15018934866449027  1.0000
  Cu  Cu6       1.0  0.685099496708304  0.35265877898388  0.06678233792511178  1.0000
  Cu  Cu7       1.0  0.04363361809892301  0.691704307279231  0.3762201137493193  1.0000
  Cu  Cu8       1.0  0.0924890499353097  0.5972353114951119  0.36502131694309975  1.0000
  Cu  Cu9       1.0  0.1529686013087499  0.6729799319200893  0.3897984254772311  1.0000
  Cu  Cu10      1.0  0.3869072764671556  0.19006976028681066  0.6500898111231947  1.0000
  Cu  Cu11      1.0  0.3831066726324721  0.08792852768141302  0.6662086007191731  1.0000
  Cu  Cu12      1.0  0.3682596106743006  0.1283872989195132  0.5762155596197687  1.0000
  H   H1        1.0  0.4038932664220382  0.3137992506624628  0.389822796604399  1.0000
  H   H2        1.0  0.31322419163769416  0.4194543897178988  0.44457749693921034  1.0000
  H   H3        1.0  0.38488966466290014  0.43382784947936415  0.3179838528910892  1.0000
  H   H4        1.0  0.07155910652932107  0.8495309076641109  0.6198552926492127  1.0000
  H   H5        1.0  0.18775087871634344  0.8890100258917144  0.5290097733053045  1.0000
  H   H6        1.0  0.1865679856319389  0.9181579277566883  0.6611233145716042  1.0000
  H   H7        1.0  0.5687608476955077  0.17819153283071637  0.8921457848322234  1.0000
  H   H8        1.0  0.6830903604260924  0.08329118732072519  0.9144772734034134  1.0000
  H   H9        1.0  0.5854475612323922  0.05987889147528588  0.8228618645653185  1.0000
  H   H10       1.0  0.8483937482826956  0.5508399486277612  0.18142415079624644  1.0000
  H   H11       1.0  0.8416184550698416  0.6265486890902423  0.06466632326169018  1.0000
  H   H12       1.0  0.9226964039970367  0.6693569513341301  0.16155349630110297  1.0000
  H   H13       1.0  0.05248695674283969  0.8508638417244326  0.8388550495403065  1.0000
  H   H14       1.0  0.951848941432132  0.8852525728988001  0.7462119332439768  1.0000
  H   H15       1.0  0.8273239713216184  0.7946249676204574  0.006023402526466322  1.0000
  H   H16       1.0  0.9814447420038304  0.7776591885106612  0.9725999958866965  1.0000
  H   H17       1.0  0.7906948372180264  0.9311719212304297  0.7949585845690947  1.0000
  H   H18       1.0  0.7427508940093258  0.9186311628860794  0.9295718250964313  1.0000
  H   H19       1.0  0.5050098583753878  0.2890385065465394  0.184377970631175  1.0000
  H   H20       1.0  0.5559488388961213  0.40495309804245494  0.2339910778599048  1.0000
  H   H21       1.0  0.7159579140135506  0.28275848794251607  0.9950889671994787  1.0000
  H   H22       1.0  0.582673839757781  0.2321457270492289  0.05386990379633971  1.0000
  H   H23       1.0  0.687745950293653  0.47709151368334807  0.1573761763722317  1.0000
  H   H24       1.0  0.7626842950980476  0.42387623099168786  0.04223316265023409  1.0000
  H   H25       1.0  0.9584486410709159  0.68681550776104  0.31669159662440194  1.0000
  H   H26       1.0  0.0170382084494776  0.5533766877054231  0.31496700843526776  1.0000
  H   H27       1.0  0.17196546445148184  0.7516857873278086  0.4438629031222305  1.0000
  H   H28       1.0  0.018058156941655985  0.7718674904562521  0.43817696919746396  1.0000
  H   H29       1.0  0.16943423521255602  0.5168628217482976  0.3708310707097339  1.0000
  H   H30       1.0  0.2586418961076761  0.6255502536682798  0.3806805391920704  1.0000
  H   H31       1.0  0.43819804528530426  0.21538742074154973  0.730384868830896  1.0000
  H   H32       1.0  0.43808707522389045  0.07519546998963021  0.7484397476572724  1.0000
  H   H33       1.0  0.3587162462609398  0.19737629904727064  0.5007857895385257  1.0000
  H   H34       1.0  0.3613559243210459  0.2831566490545614  0.6057524029736283  1.0000
  H   H35       1.0  0.3336959275699698  0.9973255916486606  0.6610866096783994  1.0000
  H   H36       1.0  0.33008257819937364  0.04851101846608691  0.5317428303192031  1.0000
  H   H37       1.0  0.02782696656023379  0.8628498934097735  0.6905429193556569  1.0000
  H   H38       1.0  0.46406973723468764  0.40879457186322554  0.2759327488535988  1.0000
  H   H39       1.0  0.9479747538716052  0.6598761063359647  0.23008863328956153  1.0000
  H   H40       1.0  0.518140651916525  0.08655868833560731  0.7852644210286996  1.0000
  H   H41       1.0  0.8489497654109499  0.7044668508142495  0.03317583812852826  1.0000
  H   H42       1.0  0.3864864890305454  0.27220468147302773  0.4555768024008201  1.0000
  H   H43       1.0  0.5860019640223654  0.2099762167106434  0.9618711981630811  1.0000
  H   H44       1.0  0.16467828577085433  0.819754330971115  0.4900209692689613  1.0000
  H   H45       1.0  0.7140595288164634  0.0087441819148708  0.9073371967546675  1.0000
  H   H46       1.0  0.24817588935538026  0.47482861438831486  0.4101485164732351  1.0000
  H   H47       1.0  0.2483287877242546  0.9660872550161343  0.6415143300195751  1.0000
  H   H48       1.0  0.7794434214848563  0.5111360708051365  0.15865469979318186  1.0000
  C   C1        1.0  0.3982551714234716  0.3716520642000418  0.350421586747828  1.0000
  C   C2        1.0  0.3875328331622966  0.3466643091270356  0.3877479539418331  1.0000
  C   C3        1.0  0.35723209688864427  0.36393702380653536  0.4218258021180006  1.0000
  C   C4        1.0  0.33643532195750947  0.40620502703401934  0.4177782238034737  1.0000
  C   C5        1.0  0.3463504257863263  0.4311992112100782  0.3803424750879074  1.0000
  C   C6        1.0  0.3778365289906774  0.4140455954508298  0.34701486840086193  1.0000
  C   C7        1.0  0.12664428100168829  0.8842933701625811  0.6454345998177118  1.0000
  C   C8        1.0  0.10515502487133689  0.8657554450704268  0.6130455303911759  1.0000
  C   C9        1.0  0.12730485372408396  0.8664979374411886  0.5712356176327659  1.0000
  C   C10       1.0  0.1707342552817792  0.8868174305201676  0.5615625812291043  1.0000
  C   C11       1.0  0.19226611894546852  0.9058868715553245  0.5936527400892756  1.0000
  C   C12       1.0  0.17032291019670956  0.9040269895028671  0.6355064672014237  1.0000
  C   C13       1.0  0.5719305191700669  0.12066712694740292  0.8557555116634886  1.0000
  C   C14       1.0  0.5873392978415521  0.1465780803445114  0.886463565146336  1.0000
  C   C15       1.0  0.6271605952106538  0.1328721618354223  0.9077836816499314  1.0000
  C   C16       1.0  0.6513283388341337  0.092788337041469  0.8984995587665663  1.0000
  C   C17       1.0  0.6359805370299653  0.0663254506634559  0.8682334899372322  1.0000
  C   C18       1.0  0.5962181897260236  0.0804282143557415  0.8469810107203415  1.0000
  C   C19       1.0  0.8861799291404677  0.6096768692773864  0.1768226291484751  1.0000
  C   C20       1.0  0.8569023930080701  0.5797116878099969  0.1617516410249635  1.0000
  C   C21       1.0  0.8407002025210062  0.5860089704620962  0.12144562180363036  1.0000
  C   C22       1.0  0.8536618960617374  0.6227023648971155  0.09626294614034239  1.0000
  C   C23       1.0  0.8830074974788786  0.6527723482815658  0.11097822993345115  1.0000
  C   C24       1.0  0.8990400195255147  0.6460463870702357  0.1511999321298489  1.0000
  C   C25       1.0  0.021212091455915107  0.858117501251577  0.8218981457645071  1.0000
  C   C26       1.0  0.0186726490727551  0.870314911921774  0.7792020587114549  1.0000
  C   C27       1.0  0.969732949302738  0.875548341706832  0.7740755107683909  1.0000
  C   C28       1.0  0.8641563578810362  0.7953357533478709  0.9915638596656676  1.0000
  C   C29       1.0  0.9058135299118388  0.7732712394559157  0.0036435464680267  1.0000
  C   C30       1.0  0.9433416354666659  0.7868524009569952  0.9744508137604911  1.0000
  C   C31       1.0  0.7860840489960808  0.9230174355051662  0.8286877775220489  1.0000
  C   C32       1.0  0.7501855650137372  0.9374762888427172  0.859809520730991  1.0000
  C   C33       1.0  0.7615135356457685  0.9169038632780727  0.8978645690568711  1.0000
  C   C34       1.0  0.5233896423420461  0.3178103253121236  0.190098382361036  1.0000
  C   C35       1.0  0.5153969526675226  0.34591034527977643  0.2239670900000021  1.0000
  C   C36       1.0  0.5492773383358764  0.37742722167406845  0.2156488911754053  1.0000
  C   C37       1.0  0.6826250492018033  0.27651466605664865  0.014448243611852268  1.0000
  C   C38       1.0  0.6511910561029877  0.2434458394656502  0.011918610606208807  1.0000
  C   C39       1.0  0.6140335382191962  0.25058741003102375  0.044367220192675916  1.0000
  C   C40       1.0  0.7010646965219962  0.45781129649444813  0.1302743562275381  1.0000
  C   C41       1.0  0.7382584378811569  0.4651929232053789  0.09824495439825404  1.0000
  C   C42       1.0  0.7393146823208808  0.43050022057734344  0.07104479186045859  1.0000
  C   C43       1.0  0.9787766987464435  0.6561843486955184  0.3207978978259618  1.0000
  C   C44       1.0  0.974047456249174  0.615781217532131  0.3036947486473736  1.0000
  C   C45       1.0  0.008765424268467785  0.5876121120999757  0.3202959721020234  1.0000
  C   C46       1.0  0.1348720371543024  0.7514299997070991  0.4370446117412783  1.0000
  C   C47       1.0  0.09402245454504049  0.7757344737514628  0.4537628454429665  1.0000
  C   C48       1.0  0.055816294859134495  0.761416300226827  0.4340025208948788  1.0000
  C   C49       1.0  0.1839224721900194  0.5482456513479903  0.3740162991367839  1.0000
  C   C50       1.0  0.23140984835107048  0.5590707128686104  0.37567469193643177  1.0000
  C   C51       1.0  0.22971385604501648  0.604170505184129  0.3787495904011209  1.0000
  C   C52       1.0  0.4335784343448167  0.18092397973775579  0.728497376982922  1.0000
  C   C53       1.0  0.45008544859950916  0.146251845457158  0.7538146651436151  1.0000
  C   C54       1.0  0.4338258753883153  0.1089133004535725  0.7378289278642428  1.0000
  C   C55       1.0  0.36121893309321956  0.212074733924581  0.5309411300092179  1.0000
  C   C56       1.0  0.3566116135202506  0.2556676493144607  0.5417833280847262  1.0000
  C   C57       1.0  0.36229002861735177  0.2559049362606132  0.5850784625688589  1.0000
  C   C58       1.0  0.33673390252825897  0.0162425006743803  0.6314259246139925  1.0000
  C   C59       1.0  0.32132211721412324  0.0078179396031715  0.5921835227200986  1.0000
  C   C60       1.0  0.3353388900186686  0.0424987987056085  0.5649104332330523  1.0000
  C   C61       1.0  0.10440354330268062  0.8829876588266147  0.68930543625072  1.0000
  C   C62       1.0  0.05839623874767599  0.8725630139237738  0.7053342796501595  1.0000
  C   C63       1.0  0.43046921345302996  0.3535225345078743  0.3153381010742393  1.0000
  C   C64       1.0  0.4586375963989012  0.37477996142050785  0.2833249350976672  1.0000
  C   C65       1.0  0.9050961547955649  0.6024183817545818  0.21793970516618086  1.0000
  C   C66       1.0  0.9333394667156368  0.628606897906252  0.2382862861002621  1.0000
  C   C67       1.0  0.5325038393803112  0.13699264856673204  0.831698061895807  1.0000
  C   C68       1.0  0.5117187588942967  0.11773530326789941  0.7999301114115269  1.0000
  C   C69       1.0  0.8985376796632989  0.6903767802677976  0.08466698994858748  1.0000
  C   C70       1.0  0.8794516560048818  0.7105554556000869  0.049916922931487306  1.0000
  C   C71       1.0  0.3488344251029288  0.33912999210446054  0.46195226747017404  1.0000
  C   C72       1.0  0.3649037975021017  0.2972395704629136  0.4729254104899923  1.0000
  C   C73       1.0  0.6450368653384047  0.16063383105321802  0.9382555927900498  1.0000
  C   C74       1.0  0.6220451521544985  0.1949949816821075  0.960558303101763  1.0000
  C   C75       1.0  0.1055293779496367  0.8443797835640936  0.5387659299662744  1.0000
  C   C76       1.0  0.1274931026111332  0.8235900955054163  0.5032680642079512  1.0000
  C   C77       1.0  0.6625862652053627  0.0252695117526542  0.8577745603965639  1.0000
  C   C78       1.0  0.6978700631644725  0.0028432015405926003  0.8787364691464745  1.0000
  C   C79       1.0  0.32274487445483385  0.4742931190618478  0.374672030007936  1.0000
  C   C80       1.0  0.27686455563302553  0.48944271865736505  0.3898912909434172  1.0000
  C   C81       1.0  0.2356196890471764  0.9298523132412625  0.5833354015102543  1.0000
  C   C82       1.0  0.25691856445484257  0.9567435846839629  0.608912197299361  1.0000
  C   C83       1.0  0.8120660182837013  0.5538660315294164  0.1046258939054283  1.0000
  C   C84       1.0  0.7860229302909116  0.5211940700449916  0.1255315275966353  1.0000
  N   N1        1.0  0.9443396414086463  0.8668385960036248  0.8117702556821695  1.0000
  N   N2        1.0  0.9760223137382409  0.8562576522554652  0.8412008174189154  1.0000
  N   N3        1.0  0.9249236285108821  0.8153803990168454  0.9462831153735891  1.0000
  N   N4        1.0  0.8761274801867245  0.8205304073121978  0.9567323140427958  1.0000
  N   N5        1.0  0.8023164415484132  0.8917550308413098  0.8899024981754806  1.0000
  N   N6        1.0  0.8173580782887055  0.8954624595461101  0.8472899969099713  1.0000
  N   N7        1.0  0.5760636781526783  0.36859248150246054  0.17870143000787658  1.0000
  N   N8        1.0  0.5601950566452985  0.33186487151255767  0.1630761390225572  1.0000
  N   N9        1.0  0.6226950837437214  0.2861813471753649  0.0650505484742041  1.0000
  N   N10       1.0  0.6650140407470602  0.3021013552208204  0.046696423656740586  1.0000
  N   N11       1.0  0.7045243529093738  0.4038290871450982  0.08614871222712848  1.0000
  N   N12       1.0  0.6810689724726797  0.4205669358979662  0.12268598950893048  1.0000
  N   N13       1.0  0.033190463028908795  0.6100932809024825  0.34574161468162146  1.0000
  N   N14       1.0  0.014848575428416713  0.6523917149015616  0.345981036270679  1.0000
  N   N15       1.0  0.0730258362976173  0.7299587901722974  0.4071317009570378  1.0000
  N   N16       1.0  0.1216973241717696  0.7238669039417331  0.4088947348018195  1.0000
  N   N17       1.0  0.18357521376984207  0.6194230996261397  0.3789002902671896  1.0000
  N   N18       1.0  0.1553105693798784  0.584999909024937  0.37619031449273876  1.0000
  N   N19       1.0  0.40921453015049264  0.12064409985696048  0.704430692614082  1.0000
  N   N20       1.0  0.4089397522544544  0.1649623804809508  0.6987883240771424  1.0000
  N   N21       1.0  0.3699301354574516  0.21452152104580338  0.5992594728909779  1.0000
  N   N22       1.0  0.36944298644682044  0.18754871356808422  0.5659102596804644  1.0000
  N   N23       1.0  0.357706576490763  0.07034261872296099  0.5868637206093013  1.0000
  N   N24       1.0  0.35844060472780365  0.054288138787910604  0.6278248412462518  1.0000
  N   N25       1.0  0.10045067868333038  0.8887398585686909  0.7584529131578533  1.0000
  N   N26       1.0  0.12854217811374719  0.8925935851150869  0.7230386851831412  1.0000
  N   N27       1.0  0.05717639960508339  0.8764008029023386  0.7480273819385914  1.0000
  N   N28       1.0  0.4679294508259628  0.302693954899894  0.27570635116440906  1.0000
  N   N29       1.0  0.437485451525795  0.30965036838842513  0.3092435649298082  1.0000
  N   N30       1.0  0.481269544098616  0.3425048044498453  0.2594214409361868  1.0000
  N   N31       1.0  0.9219914837665044  0.5664384880735868  0.2761831613696657  1.0000
  N   N32       1.0  0.899183439699243  0.5649824790910073  0.24245008612921032  1.0000
  N   N33       1.0  0.9431423636735798  0.6054904965604493  0.27403651057915823  1.0000
  N   N34       1.0  0.47895417553439756  0.18518516300586896  0.8096445521767492  1.0000
  N   N35       1.0  0.5111570911257884  0.17808340852187143  0.8363722622947095  1.0000
  N   N36       1.0  0.47891289961179956  0.1483311659273596  0.787015959303794  1.0000
  N   N37       1.0  0.9452048342031671  0.7434530031246496  0.06344579760244778  1.0000
  N   N38       1.0  0.9385470098447826  0.7117690303580133  0.0915812226982382  1.0000
  N   N39       1.0  0.9090379996714049  0.7431469637369403  0.0376185183463988  1.0000
  N   N40       1.0  0.323584195164443  0.3284930518204023  0.529406569423159  1.0000
  N   N41       1.0  0.3237776056620234  0.3566556600093024  0.49756163954106103  1.0000
  N   N42       1.0  0.34885427554421966  0.29178871529075684  0.5147277635775608  1.0000
  N   N43       1.0  0.6985497131081997  0.18545616885158722  0.9755821168471569  1.0000
  N   N44       1.0  0.691551815466475  0.15618166794175178  0.9486307268293075  1.0000
  N   N45       1.0  0.6560292182498768  0.2096270644738354  0.9832229270473362  1.0000
  N   N46       1.0  0.0481360004690927  0.8147842093583364  0.5099442859610974  1.0000
  N   N47       1.0  0.05710167289522869  0.8381656724837896  0.541305984263495  1.0000
  N   N48       1.0  0.09113823223238168  0.8054541666207911  0.48629213269295235  1.0000
  N   N49       1.0  0.687320100537917  0.9689415043057963  0.8193706214542401  1.0000
  N   N50       1.0  0.6574165635126261  0.003111322132738801  0.821880518477947  1.0000
  N   N51       1.0  0.7124217892251037  0.9683601958510335  0.8542150820502385  1.0000
  N   N52       1.0  0.3136621634402203  0.5408728226571073  0.3486095074683817  1.0000
  N   N53       1.0  0.3436803593018212  0.5069017885792703  0.34971973951297025  1.0000
  N   N54       1.0  0.2723179154793414  0.5305343388047774  0.37314068923563326  1.0000
  N   N55       1.0  0.2949149057317583  0.9586438709066627  0.5429268407451033  1.0000
  N   N56       1.0  0.2602552490465229  0.9320492468512641  0.5434520795472011  1.0000
  N   N57       1.0  0.2932253425768677  0.974080483629635  0.5830197406469324  1.0000
  N   N58       1.0  0.7819355492745498  0.5191672179802751  0.05529583847218332  1.0000
  N   N59       1.0  0.8083406742869456  0.5511681383969247  0.061875264192742904  1.0000
  N   N60       1.0  0.7679480189937422  0.5003788936185244  0.09422337881837708  1.0000
