data_image0
_chemical_formula_structural       Ba2P4H24C10Cl4O22
_chemical_formula_sum              "Ba2 P4 H24 C10 Cl4 O22"
_cell_length_a       7.560450000677874
_cell_length_b       8.74611501236678
_cell_length_c       13.333393196848517
_cell_angle_alpha    79.13965377249278
_cell_angle_beta     73.5505139064317
_cell_angle_gamma    64.40277765275056

_space_group_name_H-M_alt    "P 1"
_space_group_IT_number       1

loop_
  _space_group_symop_operation_xyz
  'x, y, z'

loop_
  _atom_site_type_symbol
  _atom_site_label
  _atom_site_symmetry_multiplicity
  _atom_site_fract_x
  _atom_site_fract_y
  _atom_site_fract_z
  _atom_site_occupancy
  Ba  Ba1       1.0  0.29143743961448376  0.4738474178700684  0.9432808429524755  1.0000
  Ba  Ba2       1.0  0.7085630807882523  0.5261523588716698  0.056719343860294154  1.0000
  P   P1        1.0  0.0662721537111397  0.08944036531428877  0.7777981653912676  1.0000
  P   P2        1.0  0.933719118132394  0.9105619570140461  0.22220304644299918  1.0000
  P   P3        1.0  0.8682103686375843  0.47886651141185144  0.7846386455553471  1.0000
  P   P4        1.0  0.1317840204674852  0.521133266568711  0.21536215920720278  1.0000
  H   H1        1.0  0.6231772391991652  0.1535580475334228  0.8088174587471002  1.0000
  H   H2        1.0  0.585528647134417  0.8465475545625765  0.19117254622480567  1.0000
  H   H3        1.0  0.3768250446581263  0.846440458412374  0.19118300989235584  1.0000
  H   H4        1.0  0.41447419013257975  0.15345222360348737  0.8088280817547685  1.0000
  H   H5        1.0  0.8784611084350901  0.8504782716603357  0.9225974131180905  1.0000
  H   H6        1.0  0.6515104255180973  0.14948915974545676  0.07738224414531199  1.0000
  H   H7        1.0  0.1215388069452246  0.14952277658949237  0.07740271245139499  1.0000
  H   H8        1.0  0.34849185833918717  0.8505093462003471  0.9226182244941441  1.0000
  H   H9        1.0  0.8654610016227762  0.826086515077989  0.043865350403713345  1.0000
  H   H10       1.0  0.7353770255388379  0.1739108093688344  0.956119488837672  1.0000
  H   H11       1.0  0.13453951877995257  0.173913261663749  0.9561348364090563  1.0000
  H   H12       1.0  0.26462390451146683  0.8260889701288079  0.04388166870018747  1.0000
  H   H13       1.0  0.3413294606539239  0.7942047689597659  0.5229201916266533  1.0000
  H   H14       1.0  0.6586708643739669  0.20579628204598063  0.4770809046679219  1.0000
  H   H15       1.0  0.2750789892491739  0.622368171088084  0.5935185516063868  1.0000
  H   H16       1.0  0.491234679107265  0.3775438688933973  0.4064047543149059  1.0000
  H   H17       1.0  0.7249218891884367  0.3776341521379151  0.4064827040282992  1.0000
  H   H18       1.0  0.5087656459206189  0.6224571821123489  0.5935963419796693  1.0000
  H   H19       1.0  0.7982477668945268  0.8584470743904687  0.5450243634898513  1.0000
  H   H20       1.0  0.20175143241603882  0.14154888089080936  0.4549736244357874  1.0000
  H   H21       1.0  0.8033232832056  0.005200640224060699  0.6213489068469684  1.0000
  H   H22       1.0  0.42990040458209205  0.9946047391770703  0.37880911102053005  1.0000
  H   H23       1.0  0.1966768086516667  0.9947965824778248  0.3786475195520111  1.0000
  H   H24       1.0  0.5701000969227438  0.005392486280726401  0.6211882861035392  1.0000
  C   C1        1.0  0.0020704238893287214  0.29846828434656913  0.6972124243044533  1.0000
  C   C2        1.0  0.9979287427064207  0.7015327659470075  0.30278845140672667  1.0000
  C   C3        1.0  0.2566298081365231  0.7945839432852749  0.6918174465119904  1.0000
  C   C4        1.0  0.7433712873147794  0.2054209113138583  0.3081794947608856  1.0000
  C   C5        1.0  0.3507809357951005  0.7054199475478453  0.5927958186590914  1.0000
  C   C6        1.0  0.649219193857945  0.29458237772190893  0.4072061871172891  1.0000
  C   C7        1.0  0.7428479834155299  0.8004660322826564  0.7133231559888813  1.0000
  C   C8        1.0  0.2571493275762223  0.19953247561414136  0.28667815118375023  1.0000
  C   C9        1.0  0.7296704937128167  0.9227330475046356  0.6177551221262689  1.0000
  C   C10       1.0  0.2703282443374704  0.07726544874909538  0.38224199317111385  1.0000
  Cl  Cl1       1.0  0.8417428984928036  0.31202511036102715  0.6169201483076421  1.0000
  Cl  Cl2       1.0  0.7709763956260074  0.6879349439537563  0.3830374029864245  1.0000
  Cl  Cl3       1.0  0.15825692473806913  0.6879721246960883  0.3830806905499884  1.0000
  Cl  Cl4       1.0  0.22902337599216338  0.31206483483172326  0.6169635339680325  1.0000
  O   O1        1.0  0.48306676244143876  0.22803853731605267  0.805744594352703  1.0000
  O   O2        1.0  0.5169337579612973  0.7719612394256784  0.19425559246006696  1.0000
  O   O3        1.0  0.8969765600828762  0.7641218261372343  0.9820149004209071  1.0000
  O   O4        1.0  0.6431888561075636  0.2358604490036171  0.01797635865981554  1.0000
  O   O5        1.0  0.10302396031985239  0.23587795060449676  0.017985286391862604  1.0000
  O   O6        1.0  0.3568110592727437  0.7641405992462182  0.9820237669096697  1.0000
  O   O7        1.0  0.8762476151189345  0.06753856147075511  0.8360839405045652  1.0000
  O   O8        1.0  0.7799229354638939  0.9326032459931993  0.16394727222455424  1.0000
  O   O9        1.0  0.12375401210323382  0.9324637597115029  0.16391656498843324  1.0000
  O   O10       1.0  0.22008277207709878  0.06739780581745689  0.836053956261928  1.0000
  O   O11       1.0  0.17804881585904284  0.9677247346792013  0.6754948779374318  1.0000
  O   O12       1.0  0.8219497457142919  0.032277587122472085  0.32450593653045706  1.0000
  O   O13       1.0  0.24835968827121502  0.7233743736015653  0.7798707164639823  1.0000
  O   O14       1.0  0.7516418656994048  0.2766266856719213  0.2201332920058618  1.0000
  O   O15       1.0  0.00962762106346565  0.47772519934520824  0.8440327209094534  1.0000
  O   O16       1.0  0.3312754378136731  0.5223699382502429  0.15587027980824786  1.0000
  O   O17       1.0  0.9903720284314089  0.5222771156130576  0.15596562254996368  1.0000
  O   O18       1.0  0.668724046280218  0.4776273016065316  0.8441322799161597  1.0000
  O   O19       1.0  0.8387826320108258  0.6338465518266998  0.6883019064864726  1.0000
  O   O20       1.0  0.1612120962312246  0.3661532213542031  0.3116971774092931  1.0000
  O   O21       1.0  0.6781028484263697  0.8392602318220452  0.8036355080874316  1.0000
  O   O22       1.0  0.3219031277410167  0.16074080763338833  0.1963613079403999  1.0000
