data_image0
_chemical_formula_structural       MnCu2H44C46N4O8
_chemical_formula_sum              "Mn1 Cu2 H44 C46 N4 O8"
_cell_length_a       10.779088592735175
_cell_length_b       10.77913800016533
_cell_length_c       11.547346596067873
_cell_angle_alpha    69.7208066153378
_cell_angle_beta     69.72043287295249
_cell_angle_gamma    79.50993665271211

_space_group_name_H-M_alt    "P 1"
_space_group_IT_number       1

loop_
  _space_group_symop_operation_xyz
  'x, y, z'

loop_
  _atom_site_type_symbol
  _atom_site_label
  _atom_site_symmetry_multiplicity
  _atom_site_fract_x
  _atom_site_fract_y
  _atom_site_fract_z
  _atom_site_occupancy
  Mn  Mn1       1.0  0.999911996899627  0.9999073041607004  0.5000754634802291  1.0000
  Cu  Cu1       1.0  0.789520902873697  0.7895215363092021  0.5640954717442243  1.0000
  Cu  Cu2       1.0  0.21035970132699328  0.21035743593356665  0.4359482158928074  1.0000
  H   H1        1.0  0.1626161122542769  0.1625997674359851  0.8420216620792331  1.0000
  H   H2        1.0  0.8371770141668479  0.8371813682870479  0.15815823680452484  1.0000
  H   H3        1.0  0.11530975068118468  0.11529445847585859  0.08275641449790783  1.0000
  H   H4        1.0  0.8844709173527363  0.8844808871762024  0.9174364063579147  1.0000
  H   H5        1.0  0.7957406223943124  0.48733548191662357  0.475695340591983  1.0000
  H   H6        1.0  0.5124100700265686  0.20395446126138234  0.524358063402005  1.0000
  H   H7        1.0  0.2039569244938589  0.5124058466283827  0.5243566875023333  1.0000
  H   H8        1.0  0.4873354129770107  0.7957478290847176  0.4756979702555526  1.0000
  H   H9        1.0  0.6610408045952597  0.47489601300391343  0.6198806994381202  1.0000
  H   H10       1.0  0.5247463694289108  0.33911313416826505  0.3802683105784369  1.0000
  H   H11       1.0  0.3391154787489867  0.524741356473875  0.3802669765304786  1.0000
  H   H12       1.0  0.4748891839670222  0.6610482050849169  0.619880900425443  1.0000
  H   H13       1.0  0.1526563132630017  0.806514319785023  0.6604273491168514  1.0000
  H   H14       1.0  0.1933135298674103  0.8477135193533909  0.33952057248176715  1.0000
  H   H15       1.0  0.8477136302015893  0.19330790549131646  0.339510624728959  1.0000
  H   H16       1.0  0.8064985136368533  0.1526598667963626  0.6604386685523664  1.0000
  H   H17       1.0  0.9846215046764399  0.35923517599457705  0.8426195800125739  1.0000
  H   H18       1.0  0.6405264263633939  0.015937585688995202  0.157151033721064  1.0000
  H   H19       1.0  0.015933000024205102  0.6405173109179711  0.15716809635070922  1.0000
  H   H20       1.0  0.35922015457001066  0.9846178793331787  0.8426313405382472  1.0000
  H   H21       1.0  0.6047035979036082  0.6047126333864766  0.419008776412845  1.0000
  H   H22       1.0  0.3952054772829428  0.39520489149161614  0.5810406099275837  1.0000
  H   H23       1.0  0.7207766505754235  0.7207812370578565  0.3796442797244737  1.0000
  H   H24       1.0  0.27902135571110154  0.27901972588098534  0.6208643878963259  1.0000
  H   H25       1.0  0.8255801562236725  0.31696943085797347  0.7735063283244727  1.0000
  H   H26       1.0  0.6832421723374011  0.17483922391600965  0.22704422645279007  1.0000
  H   H27       1.0  0.17484678853128344  0.683226399165889  0.2270393238400175  1.0000
  H   H28       1.0  0.31696396786973935  0.825571746462522  0.7735188750439265  1.0000
  H   H29       1.0  0.9908374788841314  0.3199152482886588  0.6693600630506185  1.0000
  H   H30       1.0  0.6798485011802882  0.009407982920514299  0.3308704307704105  1.0000
  H   H31       1.0  0.00941699994261571  0.6798459980538991  0.3308653609937196  1.0000
  H   H32       1.0  0.319905027574741  0.9908295279710801  0.6693717625836442  1.0000
  H   H33       1.0  0.8581520527845612  0.34530070890117764  0.6056329984259038  1.0000
  H   H34       1.0  0.6540048645903979  0.14182554026927358  0.3950450093849014  1.0000
  H   H35       1.0  0.1418352399409599  0.6540004733818064  0.39503567495983566  1.0000
  H   H36       1.0  0.34530080334893387  0.8581408721104963  0.6056455047741593  1.0000
  H   H37       1.0  0.23718098406289556  0.6317016461980457  0.828003909365478  1.0000
  H   H38       1.0  0.36787461181710057  0.7638956540940283  0.17123277093075748  1.0000
  H   H39       1.0  0.7638927505689068  0.36787700858788236  0.17123297651984615  1.0000
  H   H40       1.0  0.631678522305151  0.2371891026650346  0.8280114782795992  1.0000
  H   H41       1.0  0.14560950554178478  0.40771108579195203  0.9249376746385992  1.0000
  H   H42       1.0  0.592084094513929  0.8549805361098918  0.07466897110423092  1.0000
  H   H43       1.0  0.8549798375899441  0.5920867499577724  0.07467384160270303  1.0000
  H   H44       1.0  0.4076892714998266  0.1456075324296293  0.9249544667196545  1.0000
  C   C1        1.0  0.9736977490399068  0.9736879816516719  0.1333892861237232  1.0000
  C   C2        1.0  0.0261076922747208  0.026104062059715695  0.866802903712653  1.0000
  C   C3        1.0  0.0915003579774591  0.09148681283124918  0.9125736033363551  1.0000
  C   C4        1.0  0.9082976711918389  0.9082952848773611  0.08760696732915842  1.0000
  C   C5        1.0  0.9439596190084885  0.9439598309444932  0.2767324767141092  1.0000
  C   C6        1.0  0.05590828476004362  0.055910951264976895  0.723419397425161  1.0000
  C   C7        1.0  0.0656750515830353  0.06565945727172108  0.04507004688935723  1.0000
  C   C8        1.0  0.9341172884834278  0.9341187339143531  0.9551145415162593  1.0000
  C   C9        1.0  0.018298976204143006  0.6853417484255145  0.6566779560509134  1.0000
  C   C10       1.0  0.3146119621782617  0.9819782558454832  0.34323914979091097  1.0000
  C   C11       1.0  0.9819776146915087  0.31459817053938366  0.34323903271950956  1.0000
  C   C12       1.0  0.6853349396339041  0.018291786171779695  0.656700213787545  1.0000
  C   C13       1.0  0.9726686248022318  0.5545426776996863  0.7054180112678523  1.0000
  C   C14       1.0  0.44534051016308496  0.027739763236119996  0.2943409478168704  1.0000
  C   C15       1.0  0.027734544913187203  0.4453358577959817  0.2943485259223452  1.0000
  C   C16       1.0  0.5545353583881578  0.9726578997628506  0.7054395334589004  1.0000
  C   C17       1.0  0.8859078049509961  0.5127333902823563  0.654404097927376  1.0000
  C   C18       1.0  0.4871267283144505  0.11448996949348356  0.34536775031905614  1.0000
  C   C19       1.0  0.1144810468406376  0.48712049834013266  0.3453743713353035  1.0000
  C   C20       1.0  0.5127288192800847  0.8858999251578509  0.654417626862589  1.0000
  C   C21       1.0  0.7299171160864617  0.5444812741094012  0.5392003705895264  1.0000
  C   C22       1.0  0.45527912380528324  0.270014550726799  0.46093958264818735  1.0000
  C   C23       1.0  0.2700148834397993  0.4552767784226504  0.4609380324671193  1.0000
  C   C24       1.0  0.544476858398646  0.7299205031016881  0.5392010956635359  1.0000
  C   C25       1.0  0.11725843122630411  0.7075871485277005  0.700584697946411  1.0000
  C   C26       1.0  0.2921946250504632  0.8832844176414978  0.299143862152178  1.0000
  C   C27       1.0  0.8832835524895585  0.2921858995049291  0.29914058189879006  1.0000
  C   C28       1.0  0.7075750919595478  0.11726069270898877  0.7005953428418509  1.0000
  C   C29       1.0  0.021270816674992  0.4578526855731724  0.8020907494999748  1.0000
  C   C30       1.0  0.5419390257812469  0.979290838296741  0.19753451783810755  1.0000
  C   C31       1.0  0.9792906550448846  0.5419325589299503  0.19754011902015395  1.0000
  C   C32       1.0  0.457839125221902  0.021268503704639796  0.8021054438797464  1.0000
  C   C33       1.0  0.6525797322470056  0.652582453561507  0.46103690426168964  1.0000
  C   C34       1.0  0.3471991721361718  0.3471994395365385  0.5392513401832204  1.0000
  C   C35       1.0  0.8905638726017386  0.3662225080409768  0.6761607211065268  1.0000
  C   C36       1.0  0.633489346733448  0.10967002729582022  0.32413855272451286  1.0000
  C   C37       1.0  0.10967566793450352  0.6334806899563574  0.32413457492047826  1.0000
  C   C38       1.0  0.3662175239145711  0.8905592883860719  0.6761710208536087  1.0000
  C   C39       1.0  0.16303608386862586  0.6098356382577634  0.7944563780665206  1.0000
  C   C40       1.0  0.3899014709704573  0.837685505536562  0.20511959167654245  1.0000
  C   C41       1.0  0.8376806958748447  0.38989956763980155  0.2051277898178796  1.0000
  C   C42       1.0  0.6098161042564598  0.16303781361573033  0.794475149444331  1.0000
  C   C43       1.0  0.11327587901291027  0.48386101675161797  0.8481533944094934  1.0000
  C   C44       1.0  0.5158753735640501  0.8874301666026054  0.15134808339147565  1.0000
  C   C45       1.0  0.8874256910154228  0.5158718537707259  0.15135512985020952  1.0000
  C   C46       1.0  0.4838428495802489  0.1132738071548545  0.8481679284743537  1.0000
  N   N1        1.0  0.8099049321880685  0.5960868014119425  0.590909193227553  1.0000
  N   N2        1.0  0.4036413489156416  0.19021183915110376  0.4090722414773892  1.0000
  N   N3        1.0  0.1902075511007482  0.4036362618428483  0.40907403435232237  1.0000
  N   N4        1.0  0.5960841411830913  0.8099032083285919  0.5909162757971842  1.0000
  O   O1        1.0  0.005658978561896799  0.005676274696647  0.3142857186001535  1.0000
  O   O2        1.0  0.9942185076921035  0.9942268313684007  0.6858047599038958  1.0000
  O   O3        1.0  0.9750300206097221  0.7840972080845814  0.5697808476451058  1.0000
  O   O4        1.0  0.215860582789297  0.024855857535300195  0.4303846431614815  1.0000
  O   O5        1.0  0.02486219646451809  0.21584890019342853  0.430378136849022  1.0000
  O   O6        1.0  0.7840968870870738  0.9750135640685966  0.569811871661642  1.0000
  O   O7        1.0  0.8595949669519243  0.8595970229315029  0.3495136099931245  1.0000
  O   O8        1.0  0.14026322946966016  0.14026030503871567  0.6507004312306037  1.0000
