data_image0
_chemical_formula_structural       Hf6H24C48N12O32
_chemical_formula_sum              "Hf6 H24 C48 N12 O32"
_cell_length_a       17.22111560768998
_cell_length_b       17.225864272732675
_cell_length_c       18.098943749666393
_cell_angle_alpha    89.55290295642463
_cell_angle_beta     89.96156124069508
_cell_angle_gamma    110.2431018963161

_space_group_name_H-M_alt    "P 1"
_space_group_IT_number       1

loop_
  _space_group_symop_operation_xyz
  'x, y, z'

loop_
  _atom_site_type_symbol
  _atom_site_label
  _atom_site_symmetry_multiplicity
  _atom_site_fract_x
  _atom_site_fract_y
  _atom_site_fract_z
  _atom_site_occupancy
  Hf  Hf1       1.0  0.8958525792002446  0.8880100553650577  0.9086416813374356  1.0000
  Hf  Hf2       1.0  0.9071205314521291  0.8931869662117649  0.10224185227389167  1.0000
  Hf  Hf3       1.0  0.0758078023084821  0.06424626950653331  0.89836165660423  1.0000
  Hf  Hf4       1.0  0.0831495950189947  0.0730422851411276  0.09191115767089288  1.0000
  Hf  Hf5       1.0  0.9019835103605872  0.06815195303118318  0.0008913575453633  1.0000
  Hf  Hf6       1.0  0.07881160457187515  0.8911972951118087  0.9995222976629631  1.0000
  H   H1        1.0  0.9043094368432917  0.7672976592737442  0.9996537744648389  1.0000
  H   H2        1.0  0.9270846903732276  0.04064746417014221  0.1631690106573345  1.0000
  H   H3        1.0  0.2028776056507198  0.06556003138583581  0.0001162967434353999  1.0000
  H   H4        1.0  0.9276145380528006  0.045094822396841  0.8381950433344085  1.0000
  H   H5        1.0  0.9241978324767716  0.8708056062164928  0.24502507009599842  1.0000
  H   H6        1.0  0.1338814838842666  0.0607647613578948  0.228998154917356  1.0000
  H   H7        1.0  0.1968484900256868  0.2227033081022682  0.09529177520827398  1.0000
  H   H8        1.0  0.23207093506874085  0.17212024613548485  0.8595508133915643  1.0000
  H   H9        1.0  0.09820221812498889  0.0506172821769084  0.7554377900706937  1.0000
  H   H10       1.0  0.833316554845453  0.8771428416922687  0.7669986724766245  1.0000
  H   H11       1.0  0.7457076718421689  0.7750167141738942  0.9070472307208418  1.0000
  H   H12       1.0  0.8028484894461628  0.7369965564669768  0.1429120710684231  1.0000
  H   H13       1.0  0.17169976777079649  0.22165299176754868  0.8772190401529227  1.0000
  H   H14       1.0  0.9044104454291854  0.8380255155130527  0.7707763083418155  1.0000
  H   H15       1.0  0.7506514167233148  0.7953122446105992  0.1262026821805833  1.0000
  H   H16       1.0  0.09581854183230827  0.13245631840211294  0.2347915608865349  1.0000
  H   H17       1.0  0.3638656017459354  0.9653421857160326  0.43044584338977626  1.0000
  H   H18       1.0  0.6176829768819302  0.9779934202913835  0.42985873923598206  1.0000
  H   H19       1.0  0.6185030995072864  0.9803228832190243  0.5685121033415825  1.0000
  H   H20       1.0  0.3647016014382912  0.9677929384383575  0.5689402795018521  1.0000
  H   H21       1.0  0.00491000037055768  0.6057665514578263  0.4294177571231329  1.0000
  H   H22       1.0  0.9794347510806602  0.3484446010068751  0.4338887006231146  1.0000
  H   H23       1.0  0.9796864037228089  0.3501132635204768  0.5725417460060739  1.0000
  H   H24       1.0  0.00522582882879161  0.6074612032833144  0.5679451533973674  1.0000
  C   C1        1.0  0.7590558740111816  0.9800353658900676  0.8844659305712314  1.0000
  C   C2        1.0  0.9987933018261612  0.7555819768650737  0.1257235142803026  1.0000
  C   C3        1.0  0.7582129367365907  0.9768132615524792  0.1151431613491738  1.0000
  C   C4        1.0  0.0013147325730641579  0.7606544706209631  0.8728466398113994  1.0000
  C   C5        1.0  0.21317964075547022  0.9732612841484496  0.8731095202048492  1.0000
  C   C6        1.0  0.991423295478441  0.20947513577394258  0.1178529972117772  1.0000
  C   C7        1.0  0.2104768441126906  0.9660543139938368  0.1261578286690082  1.0000
  C   C8        1.0  0.9909873028181693  0.213184399082742  0.886650165515341  1.0000
  C   C9        1.0  0.9989875788379335  0.5515801939614136  0.7664459070082967  1.0000
  C   C10       1.0  0.9934436593349573  0.4810033960469653  0.6599122560412523  1.0000
  C   C11       1.0  0.9918759665628938  0.4184549926537215  0.7711252286743144  1.0000
  C   C12       1.0  0.9964123053382251  0.5453190362790751  0.23325043967144407  1.0000
  C   C13       1.0  0.9926921527396999  0.47723350102752704  0.3419723280351689  1.0000
  C   C14       1.0  0.991159503980448  0.4128380971824227  0.2326479799351587  1.0000
  C   C15       1.0  0.4227188086304281  0.9746166912435754  0.7660753008299962  1.0000
  C   C16       1.0  0.5549984633306693  0.9791634503880858  0.7687380541290735  1.0000
  C   C17       1.0  0.4910427280460252  0.9754446154232709  0.6584225554490286  1.0000
  C   C18       1.0  0.41879262541682755  0.964824248320383  0.23324819909462483  1.0000
  C   C19       1.0  0.5519457492979639  0.9719089126394209  0.22984766658966285  1.0000
  C   C20       1.0  0.48896425432430835  0.9700876830596313  0.34045422462313707  1.0000
  C   C21       1.0  0.41918358565867914  0.9686118887318216  0.46130062432703045  1.0000
  C   C22       1.0  0.49063783283786216  0.9714866848732058  0.42204881494702556  1.0000
  C   C23       1.0  0.5626805354239507  0.9757397731805141  0.46088550274441065  1.0000
  C   C24       1.0  0.5631386585641636  0.9770531834258662  0.5376904986533617  1.0000
  C   C25       1.0  0.491624685832548  0.9742037685999351  0.5768681147663841  1.0000
  C   C26       1.0  0.41965232377941664  0.9699642918711362  0.5379279670141272  1.0000
  C   C27       1.0  0.9993884874405123  0.5502288641273765  0.4613434248398816  1.0000
  C   C28       1.0  0.9922510631202499  0.47706473647541264  0.4235283015493536  1.0000
  C   C29       1.0  0.9850362886303827  0.404757955804719  0.4638246835079299  1.0000
  C   C30       1.0  0.9851772802634287  0.4056803285811909  0.5406272247877411  1.0000
  C   C31       1.0  0.9925760361961906  0.4789551959988999  0.578338064648598  1.0000
  C   C32       1.0  0.9995629751246966  0.5511741380341489  0.5379811277147368  1.0000
  C   C33       1.0  0.9898786600939999  0.34137016163369793  0.19257499033301426  1.0000
  C   C34       1.0  0.989923195079555  0.2814241975866594  0.15761341137079646  1.0000
  C   C35       1.0  0.9989332712762717  0.6188118214608946  0.19488825335782417  1.0000
  C   C36       1.0  6.325241509582406e-05  0.6818174805769105  0.16353174037703866  1.0000
  C   C37       1.0  0.990195403995692  0.3472934936352345  0.8129842476773205  1.0000
  C   C38       1.0  0.9901375101928803  0.2869727163661934  0.8483820950952248  1.0000
  C   C39       1.0  0.003827226628509064  0.6888203637087782  0.8335296023951172  1.0000
  C   C40       1.0  0.0023238448106752446  0.625805136015515  0.8028813675277532  1.0000
  C   C41       1.0  0.28202656227270495  0.9618640906584233  0.16542479848934016  1.0000
  C   C42       1.0  0.34478350083428205  0.9621108118124226  0.19624270706908215  1.0000
  C   C43       1.0  0.6235103109953997  0.974601893288721  0.18857106014743855  1.0000
  C   C44       1.0  0.6841861852318303  0.9761435506785218  0.15335343878368224  1.0000
  C   C45       1.0  0.2864673422370885  0.9721551671143729  0.8347868331262163  1.0000
  C   C46       1.0  0.3492210164848473  0.9729754715695049  0.8035261504334554  1.0000
  C   C47       1.0  0.6264166970418259  0.981173996293002  0.8097680742782669  1.0000
  C   C48       1.0  0.6866542013901408  0.9816824839188243  0.8449989244756535  1.0000
  N   N1        1.0  0.9980841203756797  0.5527232645005284  0.6921910481583635  1.0000
  N   N2        1.0  0.9897887919867044  0.4116888574576905  0.6970302003060238  1.0000
  N   N3        1.0  0.9963759139478229  0.4865638948121641  0.8095268008628975  1.0000
  N   N4        1.0  0.9958809007042929  0.5478894694958713  0.30740506269415135  1.0000
  N   N5        1.0  0.9901172946724728  0.40758959526097993  0.30691277811025935  1.0000
  N   N6        1.0  0.9941914400316918  0.4797786239272668  0.19211959477224377  1.0000
  N   N7        1.0  0.4881052866123737  0.9775578812627117  0.8082139092726661  1.0000
  N   N8        1.0  0.5603789610100236  0.9782211223780737  0.6945676300718302  1.0000
  N   N9        1.0  0.4204069333601764  0.9735366153394622  0.6918885168153251  1.0000
  N   N10       1.0  0.4839739043476214  0.9674703654216543  0.19079190353778586  1.0000
  N   N11       1.0  0.5583768006931679  0.9735788518546684  0.30401458605624027  1.0000
  N   N12       1.0  0.41740699631589706  0.965625043515601  0.3074733125821111  1.0000
  O   O1        1.0  0.7841426630742275  0.9206999441580663  0.8683138778637057  1.0000
  O   O2        1.0  0.7908494586356837  0.0375826657118807  0.930392071486949  1.0000
  O   O3        1.0  0.9415654439668941  0.7825273343988075  0.14497247807896937  1.0000
  O   O4        1.0  0.05409474521323428  0.7857312541724751  0.07678239061093  1.0000
  O   O5        1.0  0.7795716638285981  0.9139750101372783  0.1248570667366167  1.0000
  O   O6        1.0  0.7960131292871608  0.041273634910084  0.0768430384464409  1.0000
  O   O7        1.0  0.9496918142696344  0.7932069305226433  0.850456606406766  1.0000
  O   O8        1.0  0.04997233557821093  0.7830897788869109  0.9278284589544863  1.0000
  O   O9        1.0  0.8029082431910127  0.7798457208781288  0.914125614845446  1.0000
  O   O10       1.0  0.89089286335777  0.8879854005661371  0.7806790714069576  1.0000
  O   O11       1.0  0.7918663365415242  0.7734285506363039  0.10597674925743657  1.0000
  O   O12       1.0  0.9045530445337421  0.9042397091045872  0.2117969896723437  1.0000
  O   O13       1.0  0.8774572694557747  0.9436823404881308  0.002857930809575699  1.0000
  O   O14       1.0  0.9336922266096792  0.8265837026930356  0.003084985436778698  1.0000
  O   O15       1.0  0.18650116003990294  0.031172244306056012  0.8549189083049668  1.0000
  O   O16       1.0  0.18320022597846028  0.9170233589867111  0.9214653384602157  1.0000
  O   O17       1.0  0.05095919429111721  0.18426718768343872  0.13348777573692416  1.0000
  O   O18       1.0  0.933366116906619  0.178235002305442  0.0720453863818662  1.0000
  O   O19       1.0  0.17843839079029775  0.017528042674406698  0.1493080946614782  1.0000
  O   O20       1.0  0.1877388462403928  0.9188207618417721  0.07043966722726937  1.0000
  O   O21       1.0  0.05405842723467201  0.19248049573080556  0.8764691303273011  1.0000
  O   O22       1.0  0.9272746512095864  0.1747959886512547  0.9254963635600504  1.0000
  O   O23       1.0  0.19455652599645384  0.1805197967862924  0.8965055043870931  1.0000
  O   O24       1.0  0.0640235660602002  0.06855711522331381  0.7889274887830806  1.0000
  O   O25       1.0  0.1916019452149555  0.16560894389793657  0.08726211533651448  1.0000
  O   O26       1.0  0.08418484838836802  0.07524179202228962  0.21990618296111814  1.0000
  O   O27       1.0  0.1435120761517439  0.03638376227136321  0.9968753853533271  1.0000
  O   O28       1.0  0.0265823773967284  0.09296434625379392  0.998217186616884  1.0000
  O   O29       1.0  0.026874785069594485  0.9400771753820222  0.9185756472936433  1.0000
  O   O30       1.0  0.9451017940464509  0.029231090427259698  0.11479906353022774  1.0000
  O   O31       1.0  0.9396195566624355  0.026421223558678306  0.8862910924716088  1.0000
  O   O32       1.0  0.03105583863279542  0.9422716837228934  0.08128172926633678  1.0000
