data_image0
_chemical_formula_structural       Cd6H36C42S6N6Cl6O12
_chemical_formula_sum              "Cd6 H36 C42 S6 N6 Cl6 O12"
_cell_length_a       8.531641910414983
_cell_length_b       14.78342196058669
_cell_length_c       14.783441837217834
_cell_angle_alpha    116.40836650947617
_cell_angle_beta     101.07284685027696
_cell_angle_gamma    101.07249973950529

_space_group_name_H-M_alt    "P 1"
_space_group_IT_number       1

loop_
  _space_group_symop_operation_xyz
  'x, y, z'

loop_
  _atom_site_type_symbol
  _atom_site_label
  _atom_site_symmetry_multiplicity
  _atom_site_fract_x
  _atom_site_fract_y
  _atom_site_fract_z
  _atom_site_occupancy
  Cd  Cd1       1.0  0.5683247986149099  0.250535157158744  0.5716908008344603  1.0000
  Cd  Cd2       1.0  0.3175586442693684  0.3209931819719997  0.7494393305938657  1.0000
  Cd  Cd3       1.0  0.9964978049764072  0.4282779398706679  0.6789461719923082  1.0000
  Cd  Cd4       1.0  0.8175578059175165  0.7494376517470085  0.3209934120200302  1.0000
  Cd  Cd5       1.0  0.4964981831582519  0.6789465650779645  0.4282772823861478  1.0000
  Cd  Cd6       1.0  0.06832660412926829  0.5716937529161967  0.25053680849396903  1.0000
  H   H1        1.0  0.9178380027951362  0.47139282336532057  0.0009832645591955672  1.0000
  H   H2        1.0  0.44554799897743896  0.5297324445190483  0.5287259917220553  1.0000
  H   H3        1.0  0.9166880322512511  0.9991742355502707  0.4704819529160246  1.0000
  H   H4        1.0  0.9455485408079838  0.5287277679745727  0.5297319987728669  1.0000
  H   H5        1.0  0.41669226729412406  0.4704842435276079  0.9991781550001377  1.0000
  H   H6        1.0  0.4178389413035291  0.0009827423086861001  0.4713923999330802  1.0000
  H   H7        1.0  0.8257980962921961  0.30352237034374946  0.832838424796229  1.0000
  H   H8        1.0  0.5216949674503013  0.5294463056332859  0.6965410520068358  1.0000
  H   H9        1.0  0.9929076321169674  0.16728134177575524  0.4707596965481499  1.0000
  H   H10       1.0  0.021695491284603515  0.6965434371896464  0.5294457497270528  1.0000
  H   H11       1.0  0.4929093229110322  0.47076074009756746  0.1672848342287807  1.0000
  H   H12       1.0  0.3257977903895081  0.8328377178782487  0.3035218927460335  1.0000
  H   H13       1.0  0.01623979714002387  0.16016687674142097  0.012992618597507983  1.0000
  H   H14       1.0  0.8559549230463046  0.8527704733085455  0.8396317085965349  1.0000
  H   H15       1.0  0.0032613648148895054  0.9869408379422138  0.14718168325420308  1.0000
  H   H16       1.0  0.35595771241296603  0.8396319505733842  0.852769862566788  1.0000
  H   H17       1.0  0.5032580330270022  0.14718184007228527  0.9869424273529432  1.0000
  H   H18       1.0  0.5162308288620493  0.012988488717105898  0.16016250519879796  1.0000
  H   H19       1.0  0.09539715429323078  0.33660451843817896  0.17562791364372288  1.0000
  H   H20       1.0  0.7585903323158762  0.8389063538898681  0.6632008563459025  1.0000
  H   H21       1.0  0.919900511852973  0.8243610211320488  0.16103626891698045  1.0000
  H   H22       1.0  0.258591508995984  0.6632010290913611  0.8389052050288868  1.0000
  H   H23       1.0  0.41989971051913944  0.16103726388659098  0.8243636684156925  1.0000
  H   H24       1.0  0.595396626183522  0.1756243535888871  0.3366018451132788  1.0000
  H   H25       1.0  0.7401908699086235  0.03861732879422419  0.6153593793962742  1.0000
  H   H26       1.0  0.7009056932715154  0.5767487196968587  0.9612949459201799  1.0000
  H   H27       1.0  0.12525838905307296  0.38472612375920084  0.4233441857438578  1.0000
  H   H28       1.0  0.200905992521399  0.961297433379137  0.5767496980719642  1.0000
  H   H29       1.0  0.6252621231769737  0.4233440505409617  0.3847273862925249  1.0000
  H   H30       1.0  0.24018862529341325  0.6153562836251253  0.038614861606674815  1.0000
  H   H31       1.0  0.6626177503087405  0.1384367754808622  0.6953707761860881  1.0000
  H   H32       1.0  0.5236259221998623  0.5569719438804553  0.8614531189562696  1.0000
  H   H33       1.0  0.9675066327184539  0.3048586416545049  0.4431407182826065  1.0000
  H   H34       1.0  0.023629388988361068  0.8614557150280217  0.5569732629083217  1.0000
  H   H35       1.0  0.46750773022775866  0.44314251773467106  0.30486189462793317  1.0000
  H   H36       1.0  0.1626165002358846  0.6953684075859384  0.13843464507080236  1.0000
  C   C1        1.0  0.9373260099771699  0.4004677850104414  0.00044150771947205756  1.0000
  C   C2        1.0  0.5361271307601497  0.6000661228369849  0.5995671965603364  1.0000
  C   C3        1.0  0.9368579128018694  0.9996712035988934  0.40010399742061514  1.0000
  C   C4        1.0  0.03612870569894252  0.599569014580183  0.6000652459934699  1.0000
  C   C5        1.0  0.4368615364337387  0.40010684176901623  0.9996732648695498  1.0000
  C   C6        1.0  0.4373254923581058  0.0004394371583202999  0.4004652481108549  1.0000
  C   C7        1.0  0.8858675448775699  0.3050356532582157  0.9055068252556423  1.0000
  C   C8        1.0  0.5803074990692281  0.6005721751499705  0.6949929677784751  1.0000
  C   C9        1.0  0.9805101535930376  0.0945944679469477  0.3996246210290053  1.0000
  C   C10       1.0  0.08030884135267506  0.694993909109229  0.6005712353088698  1.0000
  C   C11       1.0  0.4805133563219002  0.39962578989319303  0.09459871934125634  1.0000
  C   C12       1.0  0.3858717079751628  0.9055071037599092  0.305035671784644  1.0000
  C   C13       1.0  0.9130817124052939  0.21469101214765374  0.9065677264940675  1.0000
  C   C14       1.0  0.6980726871824245  0.6919168781748865  0.7852542068556261  1.0000
  C   C15       1.0  0.006628058195701694  0.09347228523855479  0.3081847006597584  1.0000
  C   C16       1.0  0.1980737687421623  0.7852562450611912  0.6919166096601969  1.0000
  C   C17       1.0  0.5066290747552457  0.3081858111574789  0.09347384794040178  1.0000
  C   C18       1.0  0.41307783993654124  0.9065652035972677  0.21468900370155103  1.0000
  C   C19       1.0  0.9907334983907177  0.22682588019363684  0.006305388616389972  1.0000
  C   C20       1.0  0.763654029579044  0.779462371310032  0.7730509809166007  1.0000
  C   C21       1.0  0.9845185378560118  0.9936835031298228  0.22056262207201618  1.0000
  C   C22       1.0  0.26365621036642756  0.7730520353503748  0.7794620446855802  1.0000
  C   C23       1.0  0.4845205846860239  0.2205647191277079  0.9936880505645006  1.0000
  C   C24       1.0  0.490728016517778  0.0063009967241285  0.2268224510910812  1.0000
  C   C25       1.0  0.03609545816573241  0.3251479393286159  0.09740896711112154  1.0000
  C   C26       1.0  0.7105910033234792  0.7722165582777905  0.6747395987940976  1.0000
  C   C27       1.0  0.9387824687305938  0.9026019329439097  0.22779249388387518  1.0000
  C   C28       1.0  0.21059239658848838  0.674740926336149  0.7722161514679512  1.0000
  C   C29       1.0  0.43878360946999356  0.22779393942214907  0.9026049967039924  1.0000
  C   C30       1.0  0.5360919568832826  0.09740640123696659  0.3251441303485336  1.0000
  C   C31       1.0  0.7772310674174533  0.11644658011901744  0.6884939783881306  1.0000
  C   C32       1.0  0.6601613660773039  0.5719891601345495  0.8834434466805305  1.0000
  C   C33       1.0  0.08900225605455599  0.3116256890889487  0.4280339917921978  1.0000
  C   C34       1.0  0.16016525976100116  0.8834462422022822  0.5719911199907627  1.0000
  C   C35       1.0  0.589003789242618  0.42803479115123366  0.3116273519819259  1.0000
  C   C36       1.0  0.2772290228749838  0.6884915625555972  0.11644497477235648  1.0000
  C   C37       1.0  0.9054616912354377  0.19788296756396306  0.6799517647004762  1.0000
  C   C38       1.0  0.7070122814211076  0.4818820638719215  0.8020215579406055  1.0000
  C   C39       1.0  0.2255513565545755  0.32002007489620604  0.5180256346654915  1.0000
  C   C40       1.0  0.20701588307861835  0.8020243481783068  0.4818838843220874  1.0000
  C   C41       1.0  0.7255504214858065  0.5180253504676243  0.32001965652978004  1.0000
  C   C42       1.0  0.4054607141735005  0.6799505922719717  0.1978820332943627  1.0000
  S   S1        1.0  0.8583268320111229  0.09056393503087179  0.7933797215522275  1.0000
  S   S2        1.0  0.7674483754037593  0.7027298306216704  0.9093062494717328  1.0000
  S   S3        1.0  0.0651379002131307  0.20662707142291478  0.2972360090739343  1.0000
  S   S4        1.0  0.26745115595843333  0.9093071070915784  0.7027310273367179  1.0000
  S   S5        1.0  0.5651357825670615  0.29723603794614206  0.20662845229612256  1.0000
  S   S6        1.0  0.358320884717969  0.7933764037793762  0.09056057520467684  1.0000
  N   N1        1.0  0.010951081837724516  0.4117789040286866  0.09552752217808805  1.0000
  N   N2        1.0  0.598601315062531  0.6837725695442172  0.5881855397282294  1.0000
  N   N3        1.0  0.9154131730255769  0.904539681153352  0.31631841749662476  1.0000
  N   N4        1.0  0.09860216225244756  0.5881878972385407  0.6837717849290996  1.0000
  N   N5        1.0  0.41541670881414217  0.3163202801225395  0.9045424582366621  1.0000
  N   N6        1.0  0.5109492799918273  0.0955267752453253  0.4117767563664074  1.0000
  Cl  Cl1       1.0  0.3726247320647502  0.1449025778673416  0.6311748439658302  1.0000
  Cl  Cl2       1.0  0.22735731356311814  0.4861067054111813  0.8550059428213785  1.0000
  Cl  Cl3       1.0  0.741448887415018  0.3687715147927193  0.5138517765993811  1.0000
  Cl  Cl4       1.0  0.7273585441583705  0.855005848900376  0.48610680009041124  1.0000
  Cl  Cl5       1.0  0.24144825394690625  0.5138528169585328  0.36877234346235344  1.0000
  Cl  Cl6       1.0  0.8726237305771534  0.6311757076019617  0.14490250542816344  1.0000
  O   O1        1.0  0.8468618462671174  0.25593607957099346  0.6471300832255196  1.0000
  O   O2        1.0  0.5903046903511183  0.39107080336252403  0.7438647452227087  1.0000
  O   O3        1.0  0.1994932728270413  0.3526948415708445  0.6088348935397434  1.0000
  O   O4        1.0  0.09030588589867247  0.7438663603010338  0.39107251840516705  1.0000
  O   O5        1.0  0.699494862672438  0.6088343860299688  0.35269557093697296  1.0000
  O   O6        1.0  0.34686185912288897  0.6471302100898484  0.25593598417679436  1.0000
  O   O7        1.0  0.05667972481425208  0.20244255075109405  0.7042204265917178  1.0000
  O   O8        1.0  0.8537468334762011  0.5014220587169261  0.7975488492163123  1.0000
  O   O9        1.0  0.35259852407682496  0.2957931559601548  0.4983988698521173  1.0000
  O   O10       1.0  0.3537501192667918  0.7975509087686703  0.5014228561423977  1.0000
  O   O11       1.0  0.8525984914616203  0.49839690055712527  0.2957916892811737  1.0000
  O   O12       1.0  0.5566791091168568  0.7042197966522467  0.20244151114178532  1.0000
