data_image0
_chemical_formula_structural       Cu3H30C36S6N12
_chemical_formula_sum              "Cu3 H30 C36 S6 N12"
_cell_length_a       8.45021787116227
_cell_length_b       8.830592299291638
_cell_length_c       15.262981360409311
_cell_angle_alpha    92.21433000012512
_cell_angle_beta     97.06658759177735
_cell_angle_gamma    115.23837688601287

_space_group_name_H-M_alt    "P 1"
_space_group_IT_number       1

loop_
  _space_group_symop_operation_xyz
  'x, y, z'

loop_
  _atom_site_type_symbol
  _atom_site_label
  _atom_site_symmetry_multiplicity
  _atom_site_fract_x
  _atom_site_fract_y
  _atom_site_fract_z
  _atom_site_occupancy
  Cu  Cu1       1.0  0.1700713114209051  0.17654690943782472  0.16211908651973772  1.0000
  Cu  Cu2       1.0  0.829937699378533  0.8234690493838103  0.8378892330875447  1.0000
  Cu  Cu3       1.0  0.49999046453770984  0.4999650421147877  0.4999902156329342  1.0000
  H   H1        1.0  0.005216418415500227  0.9092631471267367  0.2846195280835603  1.0000
  H   H2        1.0  0.9947806710236405  0.0907502638075641  0.7153715490810342  1.0000
  H   H3        1.0  0.7209565289397871  0.781605444128033  0.34759786556462313  1.0000
  H   H4        1.0  0.2790519377037199  0.2183991081407655  0.6524056002057677  1.0000
  H   H5        1.0  0.4934747990774111  0.8897892157628461  0.3093787793677194  1.0000
  H   H6        1.0  0.5065207265615257  0.110197795287803  0.6906273823381215  1.0000
  H   H7        1.0  0.5598188427556322  0.12289259073470761  0.2105215389301378  1.0000
  H   H8        1.0  0.44015472712689513  0.8770908079867323  0.7894797796421287  1.0000
  H   H9        1.0  0.8517619271355628  0.2386596179052276  0.15423080483770246  1.0000
  H   H10       1.0  0.14820148795819668  0.7613301424923478  0.845763399346936  1.0000
  H   H11       1.0  0.530366773065367  0.45427286494836483  0.21123936358483064  1.0000
  H   H12       1.0  0.4696565026894745  0.5457353191259384  0.7887625626739592  1.0000
  H   H13       1.0  0.8145125700628809  0.5851359692307054  0.14728537671133068  1.0000
  H   H14       1.0  0.18550846282423805  0.4148494810909611  0.8527152823175612  1.0000
  H   H15       1.0  0.8249006024881779  0.4654136795856446  0.9973726963559246  1.0000
  H   H16       1.0  0.17510674115811733  0.5345756641532587  0.002623833796675987  1.0000
  H   H17       1.0  0.5536376374056645  0.2224962181041406  0.9174970717479028  1.0000
  H   H18       1.0  0.4463572020072774  0.7774995620368513  0.0824987374917754  1.0000
  H   H19       1.0  0.27984228459369126  0.10908611181746859  0.989885543975696  1.0000
  H   H20       1.0  0.7201644532903515  0.8909096096192356  0.010117625689367983  1.0000
  H   H21       1.0  0.34025306351295365  0.5800182541584319  0.6445942056492414  1.0000
  H   H22       1.0  0.6597876980907812  0.41992507730593337  0.35537877189937467  1.0000
  H   H23       1.0  0.0388293251312389  0.4825870511058453  0.6911153107589385  1.0000
  H   H24       1.0  0.9612162549231087  0.5174485392113723  0.3088651005690224  1.0000
  H   H25       1.0  0.77883848875004  0.2542763965970209  0.5935950411633544  1.0000
  H   H26       1.0  0.22117752138083077  0.7457571485411805  0.40640886868573745  1.0000
  H   H27       1.0  0.827784084698422  0.13550491073291937  0.45356729439286175  1.0000
  H   H28       1.0  0.17216927079118696  0.8644837327352023  0.5464327544677445  1.0000
  H   H29       1.0  0.13619127710327913  0.25017608965236343  0.4154720439087144  1.0000
  H   H30       1.0  0.8637457757505801  0.749746843401404  0.584507877576428  1.0000
  C   C1        1.0  0.6441043340784913  0.8470410039091333  0.6555911369119302  1.0000
  C   C2        1.0  0.35592743745693417  0.15305196904493806  0.34443666763398545  1.0000
  C   C3        1.0  0.03265578826525207  0.8207665245395501  0.01902471155961648  1.0000
  C   C4        1.0  0.9673516404824625  0.17921531959873246  0.9809821558033109  1.0000
  C   C5        1.0  0.9031595269077638  0.9531081546379099  0.27042384896026306  1.0000
  C   C6        1.0  0.09683403060013522  0.0469027932862502  0.7295708691789785  1.0000
  C   C7        1.0  0.7450155148989522  0.8825897976109401  0.3049110355670949  1.0000
  C   C8        1.0  0.25498346533419186  0.1174097511495447  0.6950870971911699  1.0000
  C   C9        1.0  0.6184816298083148  0.9428722617885299  0.28362011898754963  1.0000
  C   C10       1.0  0.38150850295109257  0.0571210927052945  0.7163825279641289  1.0000
  C   C11       1.0  0.6553420428502932  0.07278690139841609  0.2288639541994826  1.0000
  C   C12       1.0  0.34463387415797797  0.9271989767011136  0.7711342982822273  1.0000
  C   C13       1.0  0.8167641785376034  0.13763422050718788  0.197345801551279  1.0000
  C   C14       1.0  0.18320573438334242  0.8623592495302076  0.8026462990671845  1.0000
  C   C15       1.0  0.5424813954149739  0.4074811118933324  0.14654905274094426  1.0000
  C   C16       1.0  0.45753423259449016  0.5925183336861225  0.8534567627595993  1.0000
  C   C17       1.0  0.6990022678774537  0.4787571918610567  0.11078934620433502  1.0000
  C   C18       1.0  0.30101164861423507  0.5212283409220076  0.8892127957391622  1.0000
  C   C19       1.0  0.7047319257962172  0.4123348569345069  0.027433653745482907  1.0000
  C   C20       1.0  0.2952760265370669  0.5876532330609479  0.9725648580528843  1.0000
  C   C21       1.0  0.5534701856359519  0.27740180032133577  0.9825996462771656  1.0000
  C   C22       1.0  0.4465300491773262  0.7225876416252318  0.01740033317997809  1.0000
  C   C23       1.0  0.4016588083859034  0.21329030908901098  0.022565000068610203  1.0000
  C   C24       1.0  0.598348553107982  0.7867016307439982  0.9774401011746578  1.0000
  C   C25       1.0  0.3350244288137033  0.5312555392329229  0.3145155128566799  1.0000
  C   C26       1.0  0.6649826493479054  0.4687869892976336  0.6854945225178852  1.0000
  C   C27       1.0  0.22252563696086716  0.4824868259799757  0.6044871743582547  1.0000
  C   C28       1.0  0.7774859507538209  0.5174732352398905  0.39548743175517137  1.0000
  C   C29       1.0  0.05589204292463982  0.4274807753770559  0.6298906183802657  1.0000
  C   C30       1.0  0.944129363915579  0.5725310806986954  0.3700942200648498  1.0000
  C   C31       1.0  0.9111040238172946  0.3009039445808384  0.5755851745814127  1.0000
  C   C32       1.0  0.08889663264238112  0.6991094434934199  0.42440745524748286  1.0000
  C   C33       1.0  0.9378285289849514  0.23446442562233474  0.4974226437786414  1.0000
  C   C34       1.0  0.062150323669626764  0.7655226361217726  0.5025692805517608  1.0000
  C   C35       1.0  0.10823601607943796  0.2968624125562441  0.4759733277081679  1.0000
  C   C36       1.0  0.8917263951979848  0.7030893570766352  0.5240095574706558  1.0000
  S   S1        1.0  0.5692496820460419  0.8627058924774859  0.5556090555383336  1.0000
  S   S2        1.0  0.43078277549005856  0.13748582386740785  0.44444175704812494  1.0000
  S   S3        1.0  0.13334376661418895  0.8375210413984676  0.11836030537518383  1.0000
  S   S4        1.0  0.8666537439935454  0.16243183210878703  0.8816459567506031  1.0000
  S   S5        1.0  0.2246315480588592  0.5290367533877217  0.22001929284255792  1.0000
  S   S6        1.0  0.775360636542601  0.47079717732842147  0.7799606165319659  1.0000
  N   N1        1.0  0.69311608826019  0.8316839679543475  0.7296482706506852  1.0000
  N   N2        1.0  0.30686365026500084  0.16826915107207438  0.2703666147364744  1.0000
  N   N3        1.0  0.9618400004498326  0.8054315088118004  0.9449102793641729  1.0000
  N   N4        1.0  0.03817550333715047  0.19459070850493276  0.0550986085977598  1.0000
  N   N5        1.0  0.9381239379566042  0.07835832600030557  0.21753312321127546  1.0000
  N   N6        1.0  0.061856601209683386  0.9216451554054004  0.7824599028904873  1.0000
  N   N7        1.0  0.39717933106690145  0.2770033266600933  0.10321496851597092  1.0000
  N   N8        1.0  0.6028369329544603  0.722989804206655  0.8967920730318826  1.0000
  N   N9        1.0  0.4224994856011719  0.5372429659063156  0.382875536896755  1.0000
  N   N10       1.0  0.5775229041391299  0.4630500115384137  0.6171838438551944  1.0000
  N   N11       1.0  0.24751008647447034  0.41797894050717593  0.5289885205038232  1.0000
  N   N12       1.0  0.7524785601209628  0.5819497917712794  0.4709904431032613  1.0000
