data_image0
_chemical_formula_structural       Cd2H12C16I4Br4N8
_chemical_formula_sum              "Cd2 H12 C16 I4 Br4 N8"
_cell_length_a       4.036482880155981
_cell_length_b       10.476587539397592
_cell_length_c       16.891725245062354
_cell_angle_alpha    90.00013078648892
_cell_angle_beta     89.99971730857048
_cell_angle_gamma    90.54340658344286

_space_group_name_H-M_alt    "P 1"
_space_group_IT_number       1

loop_
  _space_group_symop_operation_xyz
  'x, y, z'

loop_
  _atom_site_type_symbol
  _atom_site_label
  _atom_site_symmetry_multiplicity
  _atom_site_fract_x
  _atom_site_fract_y
  _atom_site_fract_z
  _atom_site_occupancy
  Cd  Cd1       1.0  0.499997376940712  0.4999989910713866  0.4999999093055221  1.0000
  Cd  Cd2       1.0  0.5000053352373044  2.5831200650019647e-07  2.9901920579999987e-07  1.0000
  H   H1        1.0  0.7097610260843651  0.20285067429590245  0.47643537343237324  1.0000
  H   H2        1.0  0.29023186104929266  0.2971521837824653  0.9764355314427388  1.0000
  H   H3        1.0  0.2902312941806854  0.7971501680643488  0.5235644451821384  1.0000
  H   H4        1.0  0.7097728611913041  0.7028496302287266  0.02356487917104739  1.0000
  H   H5        1.0  0.2194216788319565  0.26764505806417566  0.21637405345145302  1.0000
  H   H6        1.0  0.7805815129571199  0.2323549700374272  0.7163735441411914  1.0000
  H   H7        1.0  0.780578000763292  0.7323510218269007  0.7836251731495023  1.0000
  H   H8        1.0  0.2194207318231349  0.7676468405508885  0.28362568246235736  1.0000
  H   H9        1.0  0.2829389363352703  0.45058191444079637  0.31364603468302465  1.0000
  H   H10       1.0  0.7170647356238221  0.04941941863083339  0.8136465221927904  1.0000
  H   H11       1.0  0.7170483705035408  0.5494151028946702  0.686354375937533  1.0000
  H   H12       1.0  0.28295238858007105  0.9505833670334097  0.18635566443194304  1.0000
  C   C1        1.0  0.6018466589670908  0.2171807700915735  0.4179659900837007  1.0000
  C   C2        1.0  0.3981524217060439  0.2828237953384233  0.9179648171169388  1.0000
  C   C3        1.0  0.39815063084962776  0.7828210336583865  0.5820350125402668  1.0000
  C   C4        1.0  0.6018547926258788  0.7171789766396017  0.08203559349607298  1.0000
  C   C5        1.0  0.5738899618012071  0.11869226800382648  0.3621983938634158  1.0000
  C   C6        1.0  0.42610033321015084  0.381310175708606  0.8621967369860852  1.0000
  C   C7        1.0  0.4260998663541571  0.8813076163927464  0.6378032007693972  1.0000
  C   C8        1.0  0.5739043890426955  0.6186916383004686  0.1378024896160142  1.0000
  C   C9        1.0  0.33163778356305323  0.25353757852045083  0.27443495040873955  1.0000
  C   C10       1.0  0.6683617298576789  0.24646265328312467  0.7744345927867966  1.0000
  C   C11       1.0  0.668354463608317  0.7464584911094008  0.7255648682024043  1.0000
  C   C12       1.0  0.3316405003038412  0.7535382027591098  0.22556463381608433  1.0000
  C   C13       1.0  0.3623175784067029  0.354154611480162  0.328158350388449  1.0000
  C   C14       1.0  0.6376857787678747  0.14584581881603495  0.8281590688315601  1.0000
  C   C15       1.0  0.6376746687646672  0.6458414581496896  0.6718414682226947  1.0000
  C   C16       1.0  0.36232639050309245  0.8541569600045733  0.17184193378438545  1.0000
  I   I1        1.0  0.7521436122480764  0.9350332638123221  0.39055536091566967  1.0000
  I   I2        1.0  0.2478529671569802  0.5649687982019672  0.8905540525212028  1.0000
  I   I3        1.0  0.2478561111788977  0.06496567972121882  0.6094462337106704  1.0000
  I   I4        1.0  0.7521492776171498  0.4350330123874072  0.10944576608818578  1.0000
  Br  Br1       1.0  0.9979577022840332  0.6279877003326391  0.41767300884593783  1.0000
  Br  Br2       1.0  0.0020531664463163996  0.8720135243990724  0.9176724276472255  1.0000
  Br  Br3       1.0  0.002039470619521902  0.372006467042354  0.5823244417375901  1.0000
  Br  Br4       1.0  0.9979590320988618  0.12799116350735318  0.08232502293502357  1.0000
  N   N1        1.0  0.4938817738405917  0.3343581708503152  0.4002142500080976  1.0000
  N   N2        1.0  0.5061127482628364  0.1656482335087333  0.9002157429633824  1.0000
  N   N3        1.0  0.5061031432564249  0.6656445703376904  0.5997843846004256  1.0000
  N   N4        1.0  0.49389943562687216  0.8343554998579562  0.09978525965323824  1.0000
  N   N5        1.0  0.4363637027482952  0.1354870858922865  0.29156626963716537  1.0000
  N   N6        1.0  0.5636329350319399  0.3645103399616829  0.7915638355554858  1.0000
  N   N7        1.0  0.5636334701124  0.864507081490096  0.708435324987249  1.0000
  N   N8        1.0  0.43636681765699586  0.6354905126597857  0.20843539104883743  1.0000
