data_image0
_chemical_formula_structural       Cd4H48C52N8O20
_chemical_formula_sum              "Cd4 H48 C52 N8 O20"
_cell_length_a       10.388843201
_cell_length_b       10.906655301678002
_cell_length_c       12.9737
_cell_angle_alpha    90.0
_cell_angle_beta     90.0
_cell_angle_gamma    113.53479021375334

_space_group_name_H-M_alt    "P 1"
_space_group_IT_number       1

loop_
  _space_group_symop_operation_xyz
  'x, y, z'

loop_
  _atom_site_type_symbol
  _atom_site_label
  _atom_site_symmetry_multiplicity
  _atom_site_fract_x
  _atom_site_fract_y
  _atom_site_fract_z
  _atom_site_occupancy
  Cd  Cd1       1.0  0.169925401484555  0.47335366572301746  0.013566677200799402  1.0000
  Cd  Cd2       1.0  0.8300751297593438  0.5266457804446105  0.5135666772007994  1.0000
  Cd  Cd3       1.0  0.3125813547334246  0.6130408299069501  0.7031987790684227  1.0000
  Cd  Cd4       1.0  0.6874182139393952  0.386958616260678  0.2031987790684227  1.0000
  H   H1        1.0  0.08879681710041609  0.6294807907601907  0.829125076115524  1.0000
  H   H2        1.0  0.9112045526094407  0.3705206555243378  0.329125076115524  1.0000
  H   H3        1.0  0.06932141515223118  0.6750534543092  0.7124844878484924  1.0000
  H   H4        1.0  0.9306785727535644  0.3249469919168816  0.21248448784849222  1.0000
  H   H5        1.0  0.6100899638069136  0.6489299274883251  0.6539429769456646  1.0000
  H   H6        1.0  0.3899096048659062  0.3510695186793029  0.1539437477358021  1.0000
  H   H7        1.0  0.519402185872984  0.5303029941948623  0.5888852062249016  1.0000
  H   H8        1.0  0.4805978020328183  0.4696974520312196  0.088885977015039  1.0000
  H   H9        1.0  0.09205821930131458  0.9993794099288705  0.5387283504320308  1.0000
  H   H10       1.0  0.9079427311755666  0.0006210362972112  0.03872835043203081  1.0000
  H   H11       1.0  0.1965693757296378  0.2307364856707892  0.6117584035394686  1.0000
  H   H12       1.0  0.8034306121761575  0.7692639605552924  0.111757632749331  1.0000
  H   H13       1.0  0.9585204468308818  0.0914673459187938  0.8887541719016172  1.0000
  H   H14       1.0  0.041478159270859266  0.9085321002488342  0.388754171901617  1.0000
  H   H15       1.0  0.6404616970586829  0.836479889070894  0.8179100796226209  1.0000
  H   H16       1.0  0.35953799571925765  0.16351755697984058  0.3179093088324835  1.0000
  H   H17       1.0  0.629014936418102  0.4930798186416965  0.9877382705010902  1.0000
  H   H18       1.0  0.3709851755928213  0.5069186274674848  0.4877374997109527  1.0000
  H   H19       1.0  0.020775022940426918  0.7780384733922219  0.8739858328772814  1.0000
  H   H20       1.0  0.979224545732393  0.22196097277540613  0.37398583287728127  1.0000
  H   H21       1.0  0.45760303622610377  0.6393083651445721  0.17189236686527215  1.0000
  H   H22       1.0  0.5423979142507704  0.3606920810815097  0.6718923668652721  1.0000
  H   H23       1.0  0.04667566487415801  0.6239814693457504  0.19590479200228125  1.0000
  H   H24       1.0  0.9533243230316444  0.37601897688032426  0.6959047920022812  1.0000
  H   H25       1.0  0.20057335727376815  0.7556271635363243  0.3678488018067299  1.0000
  H   H26       1.0  0.7994262113990516  0.24437228263130348  0.86784880180673  1.0000
  H   H27       1.0  0.54380620094021  0.7170039061536995  0.3586941273499491  1.0000
  H   H28       1.0  0.45619378696559215  0.2829965400723822  0.8586933565598116  1.0000
  H   H29       1.0  0.4411027275385139  0.7791265369854088  0.43418839652527913  1.0000
  H   H30       1.0  0.558896841134306  0.2208729091822264  0.9341883965252793  1.0000
  H   H31       1.0  0.5163608010079699  0.9830084531086527  0.3140453378758536  1.0000
  H   H32       1.0  0.4836391868978325  0.0169919931174292  0.8140453378758536  1.0000
  H   H33       1.0  0.6159346578200555  0.9144604467381612  0.24310104287905435  1.0000
  H   H34       1.0  0.38406533008574684  0.08553999948792068  0.7431010428790543  1.0000
  H   H35       1.0  0.745105162708235  0.9195997471107376  0.4219505615206174  1.0000
  H   H36       1.0  0.2548934433935059  0.0803996990568905  0.92194979073048  1.0000
  H   H37       1.0  0.7917801273410063  0.063146690684114  0.3436382836045198  1.0000
  H   H38       1.0  0.20821944133181342  0.9368527554835211  0.8436382836045198  1.0000
  H   H39       1.0  0.7736016309239275  0.11246057289313428  0.5309819095554857  1.0000
  H   H40       1.0  0.22639877621485033  0.8875408733913943  0.0309819095554857  1.0000
  H   H41       1.0  0.6642486245044524  0.16028936830447546  0.4496003453139822  1.0000
  H   H42       1.0  0.3357499815972885  0.8397100778631525  0.9495995745238448  1.0000
  H   H43       1.0  0.6332504652063022  0.8576651272675591  0.6140160478506544  1.0000
  H   H44       1.0  0.3667499419324757  0.1423363190169695  0.114015277060517  1.0000
  H   H45       1.0  0.4097107907578987  0.0719712064435285  0.48764115094383004  1.0000
  H   H46       1.0  0.5902887779149208  0.9280282397241064  0.9876411509438299  1.0000
  H   H47       1.0  0.2235811226240187  0.8501886902982321  0.5967896590795192  1.0000
  H   H48       1.0  0.7764184460488012  0.1498107558694031  0.09678965907951921  1.0000
  C   C1        1.0  0.9287700972431241  0.938523853152823  0.773688307884413  1.0000
  C   C2        1.0  0.0712300147677922  0.0614745929563583  0.2736875370942755  1.0000
  C   C3        1.0  0.9671580513698717  0.9146314567330478  0.6738324456400235  1.0000
  C   C4        1.0  0.032842479874020086  0.08536798943458727  0.1738324456400235  1.0000
  C   C5        1.0  0.0632479177240342  0.0193251294803858  0.6157634290911603  1.0000
  C   C6        1.0  0.9367516509487858  0.9806743166872492  0.1157634290911602  1.0000
  C   C7        1.0  0.1210640868412867  0.1482806664414866  0.6557011492480953  1.0000
  C   C8        1.0  0.8789359010645156  0.8517197797845952  0.1557011492480953  1.0000
  C   C9        1.0  0.0815931312468408  0.1737571554454576  0.7537772570662187  1.0000
  C   C10       1.0  0.9184054748549002  0.8262422907221704  0.2537772570662185  1.0000
  C   C11       1.0  0.9852996590265803  0.0689500298672385  0.8118508983559067  1.0000
  C   C12       1.0  0.014698527842178073  0.9310484162419428  0.3118508983559067  1.0000
  C   C13       1.0  0.8411664424135098  0.821463011391458  0.837999182962456  1.0000
  C   C14       1.0  0.15883408883038902  0.17853643477617703  0.3379991829624558  1.0000
  C   C15       1.0  0.6963192545023986  0.7800115887133146  0.8514872395692807  1.0000
  C   C16       1.0  0.3036818200796035  0.21998685739586676  0.3514872395692805  1.0000
  C   C17       1.0  0.619732811385667  0.6625457232798553  0.9064823450519129  1.0000
  C   C18       1.0  0.3802666331820319  0.3374557230046804  0.4064815742617753  1.0000
  C   C19       1.0  0.6880907940264152  0.5862672650938308  0.9477119094784072  1.0000
  C   C20       1.0  0.31190793618044677  0.4137301809569038  0.4477111386882697  1.0000
  C   C21       1.0  0.8327410801507042  0.6278436950781695  0.9371759790961749  1.0000
  C   C22       1.0  0.16725806928913298  0.3721547510310117  0.4371759790961747  1.0000
  C   C23       1.0  0.9078700362802224  0.7453275615637267  0.8825284999653178  1.0000
  C   C24       1.0  0.09212911315962197  0.25467088454545456  0.3825277291751803  1.0000
  C   C25       1.0  0.8993160553512283  0.7784184956030771  0.6263833755983229  1.0000
  C   C26       1.0  0.10068489512564581  0.22158195062300476  0.1263833755983228  1.0000
  C   C27       1.0  0.1439656817963098  0.3129892930348176  0.7970008555770534  1.0000
  C   C28       1.0  0.8560338868765173  0.6870101531328102  0.2970000847869159  1.0000
  C   C29       1.0  0.4649433025322978  0.6188281681548844  0.9219459367797924  1.0000
  C   C30       1.0  0.5350581912826797  0.3811712780127507  0.42194593677979253  1.0000
  C   C31       1.0  0.9075442208454023  0.5490090874949303  0.98517231013512  1.0000
  C   C32       1.0  0.09245631039849658  0.4509903586726977  0.4851715393449823  1.0000
  C   C33       1.0  0.36666707698534406  0.6554023057742455  0.1983543630575682  1.0000
  C   C34       1.0  0.63333387349153  0.3445981404518363  0.6983543630575683  1.0000
  C   C35       1.0  0.1557223223658895  0.6495879659481787  0.2153294742440508  1.0000
  C   C36       1.0  0.8442776655399059  0.3504124802779032  0.7153294742440509  1.0000
  C   C37       1.0  0.23083285153518318  0.7152448033408233  0.3002582146958872  1.0000
  C   C38       1.0  0.7691667171376366  0.28475464282680457  0.8002582146958872  1.0000
  C   C39       1.0  0.4841420394745484  0.7806256246013774  0.3569683282332718  1.0000
  C   C40       1.0  0.515857948431254  0.21937482162469726  0.8569675574431346  1.0000
  C   C41       1.0  0.5787808124915017  0.9221168942284237  0.3212129153595384  1.0000
  C   C42       1.0  0.4212195946472761  0.0778845520561049  0.8212129153595384  1.0000
  C   C43       1.0  0.706646927708597  0.9928550286035716  0.3909663395947192  1.0000
  C   C44       1.0  0.2933526409642226  0.0071444175640565  0.8909663395947192  1.0000
  C   C45       1.0  0.6821142149892623  0.07421833777981128  0.479493899196065  1.0000
  C   C46       1.0  0.31788577291654013  0.9257821084462633  0.9794938991960651  1.0000
  C   C47       1.0  0.5458021277350866  0.8860417857754184  0.5989309140800217  1.0000
  C   C48       1.0  0.4541992419747701  0.11395966050910998  0.09893014328988411  1.0000
  C   C49       1.0  0.4261814666236816  0.9945951303059032  0.53111525624918  1.0000
  C   C50       1.0  0.573819064620217  0.005404315861724698  0.0311152562491799  1.0000
  C   C51       1.0  0.33615757647453387  0.8856917653180573  0.5854613564364826  1.0000
  C   C52       1.0  0.6638429547693648  0.11430768084957779  0.0854605856463451  1.0000
  N   N1        1.0  0.24161698705868417  0.6128278174571875  0.1524684554136471  1.0000
  N   N2        1.0  0.7583830008471183  0.38717262876889436  0.6524684554136473  1.0000
  N   N3        1.0  0.36414988566604484  0.7176419434445549  0.2882562414731353  1.0000
  N   N4        1.0  0.6358501022397506  0.282358502781527  0.7882554706829981  1.0000
  N   N5        1.0  0.5582406368593311  0.993475064842336  0.540536624093356  1.0000
  N   N6        1.0  0.4417593510464642  0.0065253813837458  0.0405358533032185  1.0000
  N   N7        1.0  0.4122718764413236  0.8189008616435416  0.6272805753177553  1.0000
  N   N8        1.0  0.5877296173736539  0.1810985845240936  0.1272798045276247  1.0000
  O   O1        1.0  0.773880451044569  0.7414753364158102  0.5964805722345972  1.0000
  O   O2        1.0  0.22612008019932972  0.2585241097518249  0.0964805722345972  1.0000
  O   O3        1.0  0.9730877888183826  0.7091944497206483  0.6148369393465245  1.0000
  O   O4        1.0  0.026913161658491395  0.2908059965054335  0.1148369393465245  1.0000
  O   O5        1.0  0.24512887480367604  0.3982592767413422  0.7462913432559689  1.0000
  O   O6        1.0  0.754870693869144  0.6017401694262929  0.24629134325596883  1.0000
  O   O7        1.0  0.08940414841332969  0.3325454360170638  0.8795756029505882  1.0000
  O   O8        1.0  0.9105968020635516  0.6674550102090179  0.3795756029505881  1.0000
  O   O9        1.0  0.3997194819661232  0.6779176217089001  0.8740205184334471  1.0000
  O   O10       1.0  0.6002820118488543  0.3220818244587278  0.3740189768531721  1.0000
  O   O11       1.0  0.4063735000656123  0.52355059954305  0.986309996377287  1.0000
  O   O12       1.0  0.593625525269104  0.4764498466830317  0.48630845479701185  1.0000
  O   O13       1.0  0.8480653363853321  0.46304606328282455  0.053566060568691405  1.0000
  O   O14       1.0  0.15193519485856646  0.5369533828848034  0.5535660605686914  1.0000
  O   O15       1.0  0.03320607582232779  0.5777267659341092  0.9517863061424238  1.0000
  O   O16       1.0  0.9667944554215708  0.4222726802335259  0.4517863061424237  1.0000
  O   O17       1.0  0.13809265703121554  0.6714332427215908  0.7641520923098286  1.0000
  O   O18       1.0  0.8619073308745798  0.3285672035044911  0.2641520923098284  1.0000
  O   O19       1.0  0.5147225017790618  0.5769687216292992  0.6537487378311513  1.0000
  O   O20       1.0  0.485277066893758  0.4230307245383358  0.1537495086212886  1.0000
