data_image0
_chemical_formula_structural       Cs4H20C24Cl8O24
_chemical_formula_sum              "Cs4 H20 C24 Cl8 O24"
_cell_length_a       7.6551040090060605
_cell_length_b       9.238158248224552
_cell_length_c       14.912614708907805
_cell_angle_alpha    95.72385923398873
_cell_angle_beta     90.0010211717579
_cell_angle_gamma    89.99954763594097

_space_group_name_H-M_alt    "P 1"
_space_group_IT_number       1

loop_
  _space_group_symop_operation_xyz
  'x, y, z'

loop_
  _atom_site_type_symbol
  _atom_site_label
  _atom_site_symmetry_multiplicity
  _atom_site_fract_x
  _atom_site_fract_y
  _atom_site_fract_z
  _atom_site_occupancy
  Cs  Cs1       1.0  0.43307076875386497  0.018545866442224196  0.841829791263727  1.0000
  Cs  Cs2       1.0  0.9330488291699268  0.48146510413040755  0.6581762912662299  1.0000
  Cs  Cs3       1.0  0.5669560457523417  0.9814529263494056  0.1581732014513619  1.0000
  Cs  Cs4       1.0  0.06692442625001148  0.5185445808495859  0.3418279576242752  1.0000
  H   H1        1.0  0.039198652621834584  0.11387760096432942  0.7392769969810756  1.0000
  H   H2        1.0  0.539195527651721  0.38613703781219755  0.760719551348167  1.0000
  H   H3        1.0  0.9608111796146729  0.8861385824612212  0.2607262600244979  1.0000
  H   H4        1.0  0.46079862904525015  0.613864029718947  0.2392882580538398  1.0000
  H   H5        1.0  0.9606870972925422  0.05806257863294922  0.8433669841278615  1.0000
  H   H6        1.0  0.4606557867156482  0.4419373159205904  0.6566311500371353  1.0000
  H   H7        1.0  0.03935408663099341  0.9419383472665427  0.1566341113801997  1.0000
  H   H8        1.0  0.5393109375023785  0.558063879067646  0.3433827018752922  1.0000
  H   H9        1.0  0.844376200956944  0.901108344847785  0.9291069637091808  1.0000
  H   H10       1.0  0.3443240311601841  0.5988838378400487  0.570884660393176  1.0000
  H   H11       1.0  0.1556623699967474  0.0988792584365896  0.0708806735978413  1.0000
  H   H12       1.0  0.6556387739636592  0.4011150824366752  0.4291243748179312  1.0000
  H   H13       1.0  0.7847906386415031  0.0674281676641186  0.9418393925473578  1.0000
  H   H14       1.0  0.28473599324018284  0.4325685487508864  0.558149699563117  1.0000
  H   H15       1.0  0.21524923866789436  0.9325638292930736  0.05815049285602212  1.0000
  H   H16       1.0  0.7152307307571562  0.5674325046417011  0.44185743843684117  1.0000
  H   H17       1.0  0.9393656943117178  0.7703766064428876  0.1627150475551034  1.0000
  H   H18       1.0  0.43932242437067964  0.7296259536384967  0.3372954252754496  1.0000
  H   H19       1.0  0.06066634537243941  0.2296297726170664  0.8372870117432356  1.0000
  H   H20       1.0  0.5606416869237806  0.2703717797214863  0.6627088517169141  1.0000
  C   C1        1.0  0.6435780325055375  0.41957654790142834  0.9230352975070487  1.0000
  C   C2        1.0  0.1435291839452688  0.0804357413381638  0.5769605446501131  1.0000
  C   C3        1.0  0.3564722956132372  0.5804188965184665  0.0769634914282378  1.0000
  C   C4        1.0  0.8564310079047529  0.9195726009808709  0.4230315607122818  1.0000
  C   C5        1.0  0.799303632261335  0.4030387149593652  0.0715956153923827  1.0000
  C   C6        1.0  0.2992712046932482  0.09695749663232081  0.4284056347502272  1.0000
  C   C7        1.0  0.20072840758370347  0.5969633978628649  0.9284102383313309  1.0000
  C   C8        1.0  0.7006850686548917  0.9030325655039347  0.5715955473103804  1.0000
  C   C9        1.0  0.839286413436838  0.5517729919880027  0.0787989662643511  1.0000
  C   C10       1.0  0.33923982642325967  0.9482427465931023  0.42121078673680756  1.0000
  C   C11       1.0  0.1607495453400745  0.44822910667166127  0.921206216069656  1.0000
  C   C12       1.0  0.6607046900303218  0.05176586476968481  0.5787940750531106  1.0000
  C   C13       1.0  0.783402762026604  0.6403369012484958  0.0016252818503375102  1.0000
  C   C14       1.0  0.2833614426949822  0.8596688211923293  0.4983691302126374  1.0000
  C   C15       1.0  0.21664756595335186  0.35966282356869067  0.9983703840508156  1.0000
  C   C16       1.0  0.7165935240511345  0.14033416709420268  0.5016267110925482  1.0000
  C   C17       1.0  0.7009073832723798  0.33164026297556853  0.000173079577436404  1.0000
  C   C18       1.0  0.20085497407904276  0.16837453522648357  0.4998264016747314  1.0000
  C   C19       1.0  0.2991351070189622  0.6683530483314541  0.9998276065674504  1.0000
  C   C20       1.0  0.7990986863604875  0.8316470305977078  0.5001744621463686  1.0000
  C   C21       1.0  0.6904137070787256  0.5670297021159953  0.9283812073800988  1.0000
  C   C22       1.0  0.19036647624577802  0.93297801628011  0.5716144711631443  1.0000
  C   C23       1.0  0.3096418461695833  0.43295363491765226  0.07161022435898448  1.0000
  C   C24       1.0  0.8095858779547883  0.06703486131440428  0.42838659620447567  1.0000
  Cl  Cl1       1.0  0.634702027354038  0.6647361427944389  0.8395203882182614  1.0000
  Cl  Cl2       1.0  0.1346766649793807  0.8352738223228257  0.660474692030746  1.0000
  Cl  Cl3       1.0  0.36534176911504096  0.3352548937970639  0.16047548122735825  1.0000
  Cl  Cl4       1.0  0.8652652384865649  0.16474111760072668  0.3395211211638411  1.0000
  Cl  Cl5       1.0  0.8686191799456608  0.2994773196004418  0.1551246924104248  1.0000
  Cl  Cl6       1.0  0.368537705759138  0.2005086983601529  0.3448619867575786  1.0000
  Cl  Cl7       1.0  0.1314481301886659  0.7005158642514928  0.8448699512230105  1.0000
  Cl  Cl8       1.0  0.6314055041586144  0.7994790182737505  0.6551310216418713  1.0000
  O   O1        1.0  0.050271944400463994  0.1189928366172026  0.8085578164863846  1.0000
  O   O2        1.0  0.5502486497890047  0.3810108505944286  0.6914354701848281  1.0000
  O   O3        1.0  0.9497653203868881  0.8810156189193564  0.19143966003633753  1.0000
  O   O4        1.0  0.4497219932135295  0.6189891433155026  0.30857295211863794  1.0000
  O   O5        1.0  0.832822635423554  0.9905199755942177  0.8972826129922139  1.0000
  O   O6        1.0  0.332764912672694  0.5094776779409428  0.602709965803463  1.0000
  O   O7        1.0  0.1672211608105911  0.0094730949991941  0.10270665950198318  1.0000
  O   O8        1.0  0.6671861356712085  0.4905256643377244  0.3973026602813547  1.0000
  O   O9        1.0  0.5584137016887851  0.3509529039971896  0.8590704682992296  1.0000
  O   O10       1.0  0.05836793883344879  0.14905849863382065  0.6409286052683854  1.0000
  O   O11       1.0  0.44162225716002723  0.6490415942305817  0.14093497606234004  1.0000
  O   O12       1.0  0.9415778839025178  0.8509555517218674  0.35907654892467633  1.0000
  O   O13       1.0  0.8249519525145389  0.7727924497273976  0.00878640450174831  1.0000
  O   O14       1.0  0.3249032201505742  0.7272144526573213  0.4912154840623231  1.0000
  O   O15       1.0  0.17508923124525208  0.22719963218619207  0.9912075092496265  1.0000
  O   O16       1.0  0.675038683738954  0.27278655827556975  0.5087896397541201  1.0000
  O   O17       1.0  0.9223307000953297  0.6165597699351792  0.1451240240964538  1.0000
  O   O18       1.0  0.4223056275172611  0.8834316975140624  0.3548744368698351  1.0000
  O   O19       1.0  0.0776948079234643  0.3834378217821453  0.8548735390076203  1.0000
  O   O20       1.0  0.5776571772221502  0.11655823718110271  0.6451207026721235  1.0000
  O   O21       1.0  0.6590216322891891  0.1989175600101731  0.9954050550237099  1.0000
  O   O22       1.0  0.1589460397915303  0.30107811959080516  0.5045771656430915  1.0000
  O   O23       1.0  0.3410469840598935  0.8010744652441489  0.004586173173486017  1.0000
  O   O24       1.0  0.8410128459291571  0.698918327740472  0.4954176533892322  1.0000
