data_image0
_chemical_formula_structural       AlH6C21Br6NO6
_chemical_formula_sum              "Al1 H6 C21 Br6 N1 O6"
_cell_length_a       4.16743647341638
_cell_length_b       13.550337461120865
_cell_length_c       13.549868365251077
_cell_angle_alpha    119.9981658072525
_cell_angle_beta     90.00153488896326
_cell_angle_gamma    89.99881263531769

_space_group_name_H-M_alt    "P 1"
_space_group_IT_number       1

loop_
  _space_group_symop_operation_xyz
  'x, y, z'

loop_
  _atom_site_type_symbol
  _atom_site_label
  _atom_site_symmetry_multiplicity
  _atom_site_fract_x
  _atom_site_fract_y
  _atom_site_fract_z
  _atom_site_occupancy
  Al  Al1       1.0  4.926355209999992e-06  0.499993549831274  0.9999992906907096  1.0000
  H   H1        1.0  0.23620073494854674  0.9015310654317119  0.8728460014118371  1.0000
  H   H2        1.0  0.7637981755623288  0.6271687349241688  0.5984567482214017  1.0000
  H   H3        1.0  0.7637961227836456  0.9712902302502685  0.8728398233932425  1.0000
  H   H4        1.0  0.23621292081713824  0.9713031817256237  0.5984529955115507  1.0000
  H   H5        1.0  0.763773970188005  0.9015306087344828  0.5286890543202534  1.0000
  H   H6        1.0  0.23621423040582104  0.6271601207843888  0.5287083785861953  1.0000
  C   C1        1.0  0.5000194129600716  0.32578794238002484  0.9128957886019081  1.0000
  C   C2        1.0  0.500007493981343  0.5870959372250938  0.17419936342811587  1.0000
  C   C3        1.0  0.4999962640715907  0.5870867709089256  0.912891694836546  1.0000
  C   C4        1.0  0.3640691668360532  0.760260577178748  0.8941915479052797  1.0000
  C   C5        1.0  0.35246275691402223  0.8187705904407354  0.8342443739367483  1.0000
  C   C6        1.0  0.499998802765937  0.7728491996240338  0.7271501308386662  1.0000
  C   C7        1.0  0.6475443429605434  0.6657566453386892  0.6812209739537138  1.0000
  C   C8        1.0  0.63593982695118  0.6058029770543953  0.7397218242700276  1.0000
  C   C9        1.0  0.4999913246127718  0.6514385805946435  0.8485440348467892  1.0000
  C   C10       1.0  0.6475343506928724  0.015454349531893419  0.8342399146189692  1.0000
  C   C11       1.0  0.6359527167020503  0.1339098580595889  0.8941872148129021  1.0000
  C   C12       1.0  0.5000041420255457  0.19709390479871305  0.8485473366085329  1.0000
  C   C13       1.0  0.3640426684467215  0.1339167154641104  0.7397285816731056  1.0000
  C   C14       1.0  0.3524518458226993  0.01546317626256414  0.6812199100581751  1.0000
  C   C15       1.0  0.499987926566746  0.9542971226053397  0.7271486037704378  1.0000
  C   C16       1.0  0.6475211093906168  0.8187717081046203  0.48452654512665577  1.0000
  C   C17       1.0  0.6359400826662098  0.7602659185323262  0.3660734227061725  1.0000
  C   C18       1.0  0.5000085077539183  0.6514436734319773  0.30289587055148104  1.0000
  C   C19       1.0  0.3640634872250601  0.605808193206073  0.3660821101200327  1.0000
  C   C20       1.0  0.35244555172353403  0.6657585581804001  0.48453695448177575  1.0000
  C   C21       1.0  0.49997895391212677  0.772849353897364  0.5456984885269875  1.0000
  Br  Br1       1.0  0.8084961568686849  0.45611456066672673  0.6656865670184473  1.0000
  Br  Br2       1.0  0.19157375818441122  0.8343032092459381  0.04389490626908118  1.0000
  Br  Br3       1.0  0.8084991062773313  0.2095607994713617  0.043885693719573717  1.0000
  Br  Br4       1.0  0.19153040180382425  0.20957026555110064  0.6656773095424313  1.0000
  Br  Br5       1.0  0.8084504563108936  0.8343163631750912  0.29042159025578246  1.0000
  Br  Br6       1.0  0.19156109828591641  0.4561116396116205  0.29043066806404744  1.0000
  N   N1        1.0  0.49998456186649787  0.8333315699632351  0.6666665551850314  1.0000
  O   O1        1.0  0.7368803713824904  0.603571445598938  0.9781630222450985  1.0000
  O   O2        1.0  0.7369108988446627  0.37457853690813897  0.8964157331078013  1.0000
  O   O3        1.0  0.7369301971975447  0.5218184002443422  0.1254161245902381  1.0000
  O   O4        1.0  0.2630775086035372  0.5218066218574436  0.8963976752189994  1.0000
  O   O5        1.0  0.26312299556377644  0.603578520674617  0.1254073077376674  1.0000
  O   O6        1.0  0.2631051744019572  0.3745856149899185  0.9781818961281985  1.0000
