data_image0
_chemical_formula_structural       Al2H18C42N6O24
_chemical_formula_sum              "Al2 H18 C42 N6 O24"
_cell_length_a       4.049749417086259
_cell_length_b       24.523991855919856
_cell_length_c       24.523955717995015
_cell_angle_alpha    120.0001297711098
_cell_angle_beta     89.99949315781289
_cell_angle_gamma    89.999807231882

_space_group_name_H-M_alt    "P 1"
_space_group_IT_number       1

loop_
  _space_group_symop_operation_xyz
  'x, y, z'

loop_
  _atom_site_type_symbol
  _atom_site_label
  _atom_site_symmetry_multiplicity
  _atom_site_fract_x
  _atom_site_fract_y
  _atom_site_fract_z
  _atom_site_occupancy
  Al  Al1       1.0  0.008320808099320199  0.49999809264861744  0.5000032894489268  1.0000
  Al  Al2       1.0  0.0080296139179268  0.16666705799293874  0.8333369381255552  1.0000
  H   H1        1.0  0.5785779653757359  0.44007102150678884  0.736384236380225  1.0000
  H   H2        1.0  0.5785121711263556  0.22663711931021163  0.5969995306351096  1.0000
  H   H3        1.0  0.3491652410670553  0.3248483862737783  0.8259233430630887  1.0000
  H   H4        1.0  0.3058866037020848  0.3893994697129133  0.77481129965652  1.0000
  H   H5        1.0  0.34934343523075734  0.3418781137147632  0.5074634030127427  1.0000
  H   H6        1.0  0.30598214431218906  0.27732216575220997  0.5585682574716415  1.0000
  H   H7        1.0  0.578558779780529  0.7963061184742697  0.5599172894107269  1.0000
  H   H8        1.0  0.5785303929000846  0.8703558873619102  0.7733510633087806  1.0000
  H   H9        1.0  0.3491774773111799  0.00107656236605172  0.6751506792985965  1.0000
  H   H10       1.0  0.30591251111621176  0.8854136424796479  0.6105945823665311  1.0000
  H   H11       1.0  0.3493583647304348  0.665587176735592  0.6581210419651742  1.0000
  H   H12       1.0  0.3059849045799368  0.7812488973626798  0.7226735502400814  1.0000
  H   H13       1.0  0.5785735028105133  0.2636188345127409  0.20369250008888432  1.0000
  H   H14       1.0  0.578467671503084  0.40300436363157394  0.12964529866156485  1.0000
  H   H15       1.0  0.3491847546405111  0.17407769553496874  0.9989332016462458  1.0000
  H   H16       1.0  0.3059049653541804  0.2251907363044978  0.11459582845468222  1.0000
  H   H17       1.0  0.3493115770876755  0.49253751618844177  0.33442700825528254  1.0000
  H   H18       1.0  0.3059296356084005  0.4414358580954171  0.21876580048921573  1.0000
  C   C1        1.0  0.5059644885311767  0.442288964906119  0.4049233947000418  1.0000
  C   C2        1.0  0.5059653693133441  0.4626278955362935  0.5577135479378798  1.0000
  C   C3        1.0  0.5059644437822541  0.5950805671673152  0.5373732075096812  1.0000
  C   C4        1.0  0.5057157702898037  0.20408932931947965  0.7756704070875386  1.0000
  C   C5        1.0  0.505716698921688  0.07157837773144136  0.7959124456311673  1.0000
  C   C6        1.0  0.5057117143555345  0.22433475000339337  0.9284268476716167  1.0000
  C   C7        1.0  0.4815213976714288  0.42683653887296197  0.5924383457539762  1.0000
  C   C8        1.0  0.4813517837039781  0.239882939309055  0.7409483502376589  1.0000
  C   C9        1.0  0.5380266963579742  0.4527785188334761  0.6569402266750617  1.0000
  C   C10       1.0  0.5195116180516094  0.4169739897407112  0.6864367648867998  1.0000
  C   C11       1.0  0.5378534771325432  0.21393372359669624  0.6764453156698381  1.0000
  C   C12       1.0  0.5194057744444862  0.2497449350144479  0.6469535891244578  1.0000
  C   C13       1.0  0.3968486951784839  0.30378693399599405  0.7756265837067745  1.0000
  C   C14       1.0  0.3750254604237354  0.3399389744086961  0.746567973376962  1.0000
  C   C15       1.0  0.39696217410693163  0.36293622155343286  0.5577567851382383  1.0000
  C   C16       1.0  0.37504690034919  0.3267783840537178  0.5868114968055667  1.0000
  C   C17       1.0  0.44045891557503575  0.3528877865933706  0.6515349446422221  1.0000
  C   C18       1.0  0.4404462313431381  0.31382473351536777  0.6818523549986609  1.0000
  C   C19       1.0  0.48152423120136933  0.6655973143866021  0.57315999506384  1.0000
  C   C20       1.0  0.48135636151324224  0.0010627281241965007  0.7601140596504196  1.0000
  C   C21       1.0  0.5380168489494889  0.7041538674342647  0.5472121410862273  1.0000
  C   C22       1.0  0.5194955772141299  0.7694556760339922  0.5830164892680686  1.0000
  C   C23       1.0  0.5378598915171294  0.9625039247671623  0.7860581469271967  1.0000
  C   C24       1.0  0.5194183826423497  0.897202715812938  0.7502459358887777  1.0000
  C   C25       1.0  0.3968557915014017  0.9718395769806564  0.6962102453232007  1.0000
  C   C26       1.0  0.37503383424976977  0.9066282707544602  0.6600528769917915  1.0000
  C   C27       1.0  0.39697880694188104  0.6948210315921273  0.6370610727179128  1.0000
  C   C28       1.0  0.375062255622062  0.7600324555752708  0.6732143362446907  1.0000
  C   C29       1.0  0.4404591315756789  0.7986428439395895  0.6471009005548256  1.0000
  C   C30       1.0  0.440454928880321  0.8680221162563061  0.6861634388614847  1.0000
  C   C31       1.0  0.4815132712124565  0.40756436085951003  0.33440791261539726  1.0000
  C   C32       1.0  0.4813475657377849  0.2590539522164405  0.9989421240130272  1.0000
  C   C33       1.0  0.5380221390458217  0.3430612591008639  0.295848316907616  1.0000
  C   C34       1.0  0.5194994959541646  0.31356760510232806  0.2305463666856014  1.0000
  C   C35       1.0  0.5378337650718095  0.32355681298237476  0.03749803822871908  1.0000
  C   C36       1.0  0.519378811600063  0.35305131445118576  0.10280084864385938  1.0000
  C   C37       1.0  0.39684610473510407  0.22437491996023343  0.028167549314090868  1.0000
  C   C38       1.0  0.3750131715023953  0.2534328005123214  0.09337934016688375  1.0000
  C   C39       1.0  0.39694543354140427  0.4422448668714622  0.3051890928353274  1.0000
  C   C40       1.0  0.37502998090292283  0.4131898322793646  0.23997780876914032  1.0000
  C   C41       1.0  0.44044063781844045  0.348467959219839  0.20136376357390165  1.0000
  C   C42       1.0  0.4404229547394463  0.31814981044949064  0.13198329792577823  1.0000
  N   N1        1.0  0.6355125123575077  0.5195189521489424  0.6957030504542489  1.0000
  N   N2        1.0  0.6352488547529517  0.1471896705883893  0.6376816302192055  1.0000
  N   N3        1.0  0.6354841181969916  0.6761739608805186  0.48047122755349403  1.0000
  N   N4        1.0  0.6352812236413782  0.990483709162852  0.8528012254786149  1.0000
  N   N5        1.0  0.6354970237058948  0.3042950526426934  0.3238225097323594  1.0000
  N   N6        1.0  0.6352400742839847  0.3623169869519529  0.009513979096929918  1.0000
  O   O1        1.0  0.7481323768493339  0.5725514411893117  0.5525506988910893  1.0000
  O   O2        1.0  0.7481389916493839  0.4799931134996811  0.4274521454908182  1.0000
  O   O3        1.0  0.7481345508027244  0.4474508959195731  0.5200069621907063  1.0000
  O   O4        1.0  0.27381802666617716  0.5642350881904364  0.4997358312870619  1.0000
  O   O5        1.0  0.27381215514081697  0.5002652329244056  0.5645059113142921  1.0000
  O   O6        1.0  0.27381855995972865  0.43549507224307854  0.43576943797553014  1.0000
  O   O7        1.0  0.7478535973612848  0.18662642532360954  0.9058768037238212  1.0000
  O   O8        1.0  0.7478605052384281  0.21924722437383784  0.8133779679848275  1.0000
  O   O9        1.0  0.7478651506293159  0.09412934009071706  0.7807561531794324  1.0000
  O   O10       1.0  0.2735375557290283  0.2311442402999686  0.8975979743294434  1.0000
  O   O11       1.0  0.27354302959863463  0.10240651324740906  0.8335510010994724  1.0000
  O   O12       1.0  0.2735439597566369  0.16645067408808248  0.7688599351769129  1.0000
  O   O13       1.0  0.7181772909846271  0.5475534609591435  0.6674823466337116  1.0000
  O   O14       1.0  0.6316389568465155  0.5430659980939082  0.7536642208631152  1.0000
  O   O15       1.0  0.7180733275548903  0.11916590683038916  0.6659026635647224  1.0000
  O   O16       1.0  0.6311268541194793  0.12362837216945614  0.5797151561383418  1.0000
  O   O17       1.0  0.7181794375557329  0.6199223434042267  0.45244012422212176  1.0000
  O   O18       1.0  0.6315655754821633  0.7105872903246109  0.45692068198342645  1.0000
  O   O19       1.0  0.7180884697415663  0.04672596515357699  0.8808267421155379  1.0000
  O   O20       1.0  0.6311918632779125  0.9560733964357053  0.8763585572879508  1.0000
  O   O21       1.0  0.718164617321925  0.3325149106839405  0.38007839346558114  1.0000
  O   O22       1.0  0.6316118563431272  0.24633459497412247  0.2894070981761702  1.0000
  O   O23       1.0  0.7180785954557436  0.33409497674519867  0.9532701173250475  1.0000
  O   O24       1.0  0.6311099311651702  0.42028272770782144  0.04391678437300334  1.0000
