data_image0
_chemical_formula_structural       Zr6H48C88Br4O32
_chemical_formula_sum              "Zr6 H48 C88 Br4 O32"
_cell_length_a       19.144118549737225
_cell_length_b       19.116906479468526
_cell_length_c       19.116364917624168
_cell_angle_alpha    59.78383311470417
_cell_angle_beta     59.95193433002306
_cell_angle_gamma    59.952975627471815

_space_group_name_H-M_alt    "P 1"
_space_group_IT_number       1

loop_
  _space_group_symop_operation_xyz
  'x, y, z'

loop_
  _atom_site_type_symbol
  _atom_site_label
  _atom_site_symmetry_multiplicity
  _atom_site_fract_x
  _atom_site_fract_y
  _atom_site_fract_z
  _atom_site_occupancy
  Zr  Zr1       1.0  0.9075231788303881  0.40694064864875645  0.5930257862096014  1.0000
  Zr  Zr2       1.0  0.09253173389178936  0.5924448082422984  0.4075540424432163  1.0000
  Zr  Zr3       1.0  0.09250488636903509  0.4069425191486572  0.593023668649991  1.0000
  Zr  Zr4       1.0  0.9074669444644459  0.592443434820261  0.40755557727656827  1.0000
  Zr  Zr5       1.0  0.9076639358109517  0.5921148979366178  0.5925535871056057  1.0000
  Zr  Zr6       1.0  0.09234907609174306  0.4074803659224954  0.4078173887631422  1.0000
  H   H1        1.0  0.9271544047590796  0.42678939666198074  0.7188980951153212  1.0000
  H   H2        1.0  0.9270902232107545  0.718317635623677  0.42749723175873555  1.0000
  H   H3        1.0  0.2179420885526896  0.4271234605590734  0.42758187799515923  1.0000
  H   H4        1.0  0.9273484617935427  0.42712319707073465  0.42758244938163165  1.0000
  H   H5        1.0  0.32036081746569767  0.6132970648157752  0.17768814348817594  1.0000
  H   H6        1.0  0.45005626881275174  0.6130152733998029  0.05022780750254443  1.0000
  H   H7        1.0  0.6779801770340727  0.38811017930358077  0.8209825242476188  1.0000
  H   H8        1.0  0.5503559660661852  0.38636775167358905  0.9505537670405675  1.0000
  H   H9        1.0  0.678335748851964  0.612807796387621  0.8200890062636149  1.0000
  H   H10       1.0  0.5506951399772575  0.6128382935680606  0.9497050834197084  1.0000
  H   H11       1.0  0.320109725813417  0.3886143810084801  0.1784417421809222  1.0000
  H   H12       1.0  0.44981628541859914  0.3865763577611715  0.050938608064271265  1.0000
  H   H13       1.0  0.1128583810792423  0.8207932111978733  0.38825052252848025  1.0000
  H   H14       1.0  0.11267083838782799  0.9503951054232188  0.3863946277049593  1.0000
  H   H15       1.0  0.8886224745177101  0.17749951644705647  0.6134246701238483  1.0000
  H   H16       1.0  0.8866565899594081  0.05010368750355113  0.6130329029044786  1.0000
  H   H17       1.0  0.11278564749203925  0.17835554312156177  0.3887165522782752  1.0000
  H   H18       1.0  0.11263215720735788  0.050883117119901976  0.386576982337573  1.0000
  H   H19       1.0  0.8886777457083854  0.820019203692233  0.6129580794034198  1.0000
  H   H20       1.0  0.8867151885727862  0.9496565781574021  0.612864593471535  1.0000
  H   H21       1.0  0.3201389145179193  0.17835344238339695  0.38871925484969694  1.0000
  H   H22       1.0  0.4499042320343989  0.050883317361289856  0.38657773791868527  1.0000
  H   H23       1.0  0.6783438070204684  0.8200190793366317  0.6129576781313802  1.0000
  H   H24       1.0  0.5507611621006633  0.9496570541634526  0.6128636382709801  1.0000
  H   H25       1.0  0.6780924506690341  0.8207921753869626  0.3882500969643845  1.0000
  H   H26       1.0  0.550533045261517  0.9503969611999918  0.38639469588429876  1.0000
  H   H27       1.0  0.3204497637966668  0.17750067297200894  0.613423324405133  1.0000
  H   H28       1.0  0.45020363995909923  0.05010597218802092  0.6130320063470764  1.0000
  H   H29       1.0  0.8887632068238819  0.6128084627594886  0.8200893896271211  1.0000
  H   H30       1.0  0.8867582287392611  0.6128382340868938  0.9497046773047944  1.0000
  H   H31       1.0  0.1128294487095829  0.3886142413023421  0.17844186157547878  1.0000
  H   H32       1.0  0.11266344468995734  0.38657734229880697  0.0509383468018214  1.0000
  H   H33       1.0  0.888650306193  0.6132977779865669  0.17768727589670158  1.0000
  H   H34       1.0  0.8866972355482547  0.6130171553447071  0.050225247095340785  1.0000
  H   H35       1.0  0.11292330426962136  0.3881129080293205  0.8209819107395903  1.0000
  H   H36       1.0  0.11271983334417268  0.3863705096782651  0.9505514022580286  1.0000
  H   H37       1.0  0.11256780936728443  0.8201086596976668  0.1782913458571755  1.0000
  H   H38       1.0  0.8890265108260068  0.8201083526048263  0.17829183589147848  1.0000
  H   H39       1.0  0.8889649806484814  0.17723116172601985  0.8212336682211048  1.0000
  H   H40       1.0  0.1125621148847601  0.17723193291115527  0.8212350962893283  1.0000
  H   H41       1.0  0.3204921272839201  0.38813272585748837  0.6134045767356043  1.0000
  H   H42       1.0  0.45006349648227967  0.3862343870712763  0.6131487316469376  1.0000
  H   H43       1.0  0.6780825171698412  0.613116440388154  0.3884342243199228  1.0000
  H   H44       1.0  0.5506589144504944  0.6130324581619175  0.38637009453447757  1.0000
  H   H45       1.0  0.6779665740736932  0.3881359201640748  0.6134019934004656  1.0000
  H   H46       1.0  0.5505493471384213  0.3862372799733078  0.6131480888381234  1.0000
  H   H47       1.0  0.3203624874741919  0.6131152669425716  0.38843534555132214  1.0000
  H   H48       1.0  0.44993276790589937  0.6130326916122185  0.3863724801266102  1.0000
  C   C1        1.0  0.7631658116920335  0.5014001362854329  0.7334014491874542  1.0000
  C   C2        1.0  0.0019956556007371816  0.7331008554922389  0.5017365927199651  1.0000
  C   C3        1.0  0.23291332961100156  0.5021915101621345  0.26295905828472854  1.0000
  C   C4        1.0  0.0019803157423509826  0.26265008237829324  0.5024755059448366  1.0000
  C   C5        1.0  0.0018775753423768493  0.2614650318501574  0.7347740106600825  1.0000
  C   C6        1.0  0.7629791109362145  0.5017209212056883  0.5021741910900843  1.0000
  C   C7        1.0  0.0019237578362023748  0.7338671851026888  0.2622801210743191  1.0000
  C   C8        1.0  0.233122658947366  0.5017205962074697  0.5021758981668683  1.0000
  C   C9        1.0  0.0020309401513429943  0.5013994782693985  0.7334001076923543  1.0000
  C   C10       1.0  0.2328882848381824  0.26264874416240497  0.5024770613454167  1.0000
  C   C11       1.0  0.001930274286763676  0.5021908819613542  0.2629597048632348  1.0000
  C   C12       1.0  0.7631626504448196  0.7331012558052876  0.501734856472922  1.0000
  C   C13       1.0  0.31160756635089376  0.501345217814254  0.18592759661733987  1.0000
  C   C14       1.0  0.6859858637253996  0.5008340165893158  0.8119272520129146  1.0000
  C   C15       1.0  0.3494643963456739  0.563972091350351  0.14904495416197963  1.0000
  C   C16       1.0  0.4227782370404967  0.5630681594718752  0.07708758182113225  1.0000
  C   C17       1.0  0.6491688887211708  0.4371672717479527  0.8498949533572785  1.0000
  C   C18       1.0  0.5771113906153503  0.43685105214178327  0.9231078162673115  1.0000
  C   C19       1.0  0.649391113514085  0.5635777544780536  0.8494006485949869  1.0000
  C   C20       1.0  0.5773496844050925  0.5628868451314233  0.9226227355079004  1.0000
  C   C21       1.0  0.34929401879745114  0.4375833661716299  0.14945988056878431  1.0000
  C   C22       1.0  0.4225845324819701  0.437063603006571  0.07749618446751329  1.0000
  C   C23       1.0  0.4612998498812218  0.49988491484610603  0.03898893187945876  1.0000
  C   C24       1.0  0.5388989530078234  0.49978235397209386  0.9614467178690803  1.0000
  C   C25       1.0  0.001194177092870001  0.8117288921760704  0.5010172446710541  1.0000
  C   C26       1.0  0.001101545451398043  0.18574091607528925  0.5014903034554195  1.0000
  C   C27       1.0  0.06369919365133102  0.8497249202754276  0.4372988597970603  1.0000
  C   C28       1.0  0.06286064928013262  0.9229814021912189  0.43690851313542833  1.0000
  C   C29       1.0  0.9374807337321157  0.14888576191759753  0.5640714181277816  1.0000
  C   C30       1.0  0.9370182450261383  0.07697032156539028  0.5631115272500936  1.0000
  C   C31       1.0  0.0636241927140873  0.14935114958004894  0.4376611858363121  1.0000
  C   C32       1.0  0.06281423738726497  0.07741761711776711  0.43708550523543727  1.0000
  C   C33       1.0  0.937565633279995  0.8492946360030584  0.563691603598123  1.0000
  C   C34       1.0  0.937090079454585  0.922550179407075  0.5629307881958782  1.0000
  C   C35       1.0  0.9998258117112189  0.9613589965801025  0.4998134255456178  1.0000
  C   C36       1.0  0.9997842216136021  0.03890616736543237  0.4999064835406628  1.0000
  C   C37       1.0  0.3116626312223475  0.18574012565469633  0.5014909146544397  1.0000
  C   C38       1.0  0.686057817703791  0.8117302299007176  0.501015576159631  1.0000
  C   C39       1.0  0.349357440959274  0.14935100799289092  0.4376622056079712  1.0000
  C   C40       1.0  0.42267825053937014  0.07741693936597462  0.4370860541569642  1.0000
  C   C41       1.0  0.6494451731996378  0.8492947195427547  0.5636903064132923  1.0000
  C   C42       1.0  0.5774264115980473  0.9225495671717567  0.5629320656453842  1.0000
  C   C43       1.0  0.6492713316663197  0.8497246612200796  0.43729852303204114  1.0000
  C   C44       1.0  0.5772453428538498  0.9229799672888743  0.4369092489955051  1.0000
  C   C45       1.0  0.3495573306349513  0.14888639072197635  0.56407156881712  1.0000
  C   C46       1.0  0.42289656720817  0.07697045681924655  0.5631113726299476  1.0000
  C   C47       1.0  0.4614003035329474  0.038906317487992115  0.4999060333921293  1.0000
  C   C48       1.0  0.5390011198461271  0.9613572979871844  0.4998124964979382  1.0000
  C   C49       1.0  0.0012517339187709362  0.500834746865756  0.8119259312035966  1.0000
  C   C50       1.0  0.001113894853595822  0.5013455135723247  0.1859278794273536  1.0000
  C   C51       1.0  0.9376291025880974  0.5635771488691148  0.8494007331556832  1.0000
  C   C52       1.0  0.9371405382586957  0.5628871865595642  0.9226224930889941  1.0000
  C   C53       1.0  0.0636580040395032  0.4375825307897755  0.14946176606994746  1.0000
  C   C54       1.0  0.06285207531290365  0.4370631557219441  0.07749571334426261  1.0000
  C   C55       1.0  0.9375135065092907  0.5639728531556898  0.14904501646994825  1.0000
  C   C56       1.0  0.9370608046544933  0.563069079480087  0.07708636854838607  1.0000
  C   C57       1.0  0.06376713681620305  0.43716868145538257  0.8498932868795138  1.0000
  C   C58       1.0  0.06292786649072475  0.4368509769807501  0.9231083024821488  1.0000
  C   C59       1.0  0.9998694573518918  0.49978256260536796  0.9614447079880722  1.0000
  C   C60       1.0  0.999822304036691  0.49988540321423575  0.03898839337137615  1.0000
  C   C61       1.0  0.06396366480042548  0.8500133578054161  0.1486733348055934  1.0000
  C   C62       1.0  0.06475906674120314  0.9240804189773468  0.07577163922285017  1.0000
  C   C63       1.0  0.12900246045727207  0.9636679377894807  0.03663438740874609  1.0000
  C   C64       1.0  0.9373446354004785  0.8500116648322518  0.1486725152476468  1.0000
  C   C65       1.0  0.9353839030969556  0.9240785230112818  0.07577239353583554  1.0000
  C   C66       1.0  0.8706918499301821  0.9636661398951318  0.036631424915370275  1.0000
  C   C67       1.0  0.9373468065791501  0.1476961543601688  0.8510416009824555  1.0000
  C   C68       1.0  0.9353913872585056  0.0747643434742215  0.9251151010991807  1.0000
  C   C69       1.0  0.8707107216187355  0.035653294398819695  0.9646292157606954  1.0000
  C   C70       1.0  0.06391047800330096  0.14769576134040113  0.8510435662799053  1.0000
  C   C71       1.0  0.06472154947472585  0.0747640615571257  0.9251161037601535  1.0000
  C   C72       1.0  0.12900070757920917  0.035655366353630064  0.9646301370288556  1.0000
  C   C73       1.0  0.001178473615666965  0.8132585748049477  0.1843786323106967  1.0000
  C   C74       1.0  0.9999494630021816  0.9622330516096653  0.037862364602098436  1.0000
  C   C75       1.0  0.001118366548830398  0.183505974887531  0.8142512225115796  1.0000
  C   C76       1.0  0.9999369752773294  0.036813701547764165  0.9633050312958888  1.0000
  C   C77       1.0  0.311742340260352  0.5010037804817526  0.5013157979106283  1.0000
  C   C78       1.0  0.6859367608557035  0.5010032808971161  0.5013142426890838  1.0000
  C   C79       1.0  0.34959690190683557  0.43720598637008823  0.5640164529105078  1.0000
  C   C80       1.0  0.4228024986580864  0.43678945537235575  0.5631471082478258  1.0000
  C   C81       1.0  0.6492393020645935  0.5637728490619978  0.43747461602303167  1.0000
  C   C82       1.0  0.5773153452353129  0.5630036140704321  0.43696279404723987  1.0000
  C   C83       1.0  0.6491794466642562  0.4372096691458438  0.5640136609545294  1.0000
  C   C84       1.0  0.5772589050797522  0.4367902462240351  0.5631466861600316  1.0000
  C   C85       1.0  0.349510791820201  0.5637694596694586  0.4374778570160132  1.0000
  C   C86       1.0  0.42271604811564617  0.5630009575485742  0.43696594824984203  1.0000
  C   C87       1.0  0.46140972831458554  0.49976768922240206  0.499884288320658  1.0000
  C   C88       1.0  0.5389395823101779  0.49976886373024587  0.4998832895480163  1.0000
  Br  Br1       1.0  0.21424216809711552  0.08654947766240172  0.9137872748679928  1.0000
  Br  Br2       1.0  0.21428858905444065  0.9129040200780593  0.08744019012675604  1.0000
  Br  Br3       1.0  0.7854167576634055  0.0865487652380636  0.9137860850810288  1.0000
  Br  Br4       1.0  0.7853654249737264  0.912899572017167  0.08743620865885773  1.0000
  O   O1        1.0  0.7939010875080544  0.44168924237678875  0.7030692951145099  1.0000
  O   O2        1.0  0.06136280025749859  0.7026380290136129  0.4421273168178814  1.0000
  O   O3        1.0  0.20219851606485417  0.5617601720431152  0.29348848939638833  1.0000
  O   O4        1.0  0.9427085225616878  0.2929893495318651  0.5622054632942693  1.0000
  O   O5        1.0  0.06124478347873452  0.2919000630688798  0.7044355061220673  1.0000
  O   O6        1.0  0.7936684115583927  0.5613661057926861  0.4424835398005983  1.0000
  O   O7        1.0  0.9424458789199122  0.7035745860404958  0.2926877086289749  1.0000
  O   O8        1.0  0.20256259627534234  0.44197042643080653  0.5618173063767955  1.0000
  O   O9        1.0  0.9425595455522713  0.5608729678641353  0.702583377637936  1.0000
  O   O10       1.0  0.2022618218310441  0.2935621429998532  0.44284643215455344  1.0000
  O   O11       1.0  0.061312227031201795  0.44257415985292436  0.2938354252320395  1.0000
  O   O12       1.0  0.7939488769748806  0.7022990805831311  0.5612313973516834  1.0000
  O   O13       1.0  0.2020926458375813  0.29298756079221977  0.5622068809333384  1.0000
  O   O14       1.0  0.9425486052323535  0.5617583807061449  0.29348902347843625  1.0000
  O   O15       1.0  0.7938680839010956  0.702638227476541  0.4421266913921756  1.0000
  O   O16       1.0  0.06133646609862346  0.4416882060662104  0.7030705993672727  1.0000
  O   O17       1.0  0.9424126185988515  0.29190009246143206  0.7044331373741529  1.0000
  O   O18       1.0  0.20247870274112503  0.5613672276370635  0.4424829393115033  1.0000
  O   O19       1.0  0.061290064017427294  0.7035719431964651  0.2926902662449535  1.0000
  O   O20       1.0  0.7936475165783891  0.44196898425664694  0.5618187365924073  1.0000
  O   O21       1.0  0.06132409079263813  0.29356152925630136  0.4428478399798053  1.0000
  O   O22       1.0  0.7939821812732931  0.5608684635987373  0.7025864942815832  1.0000
  O   O23       1.0  0.9425160477222361  0.7022985962929693  0.5612306671624128  1.0000
  O   O24       1.0  0.2022729588864821  0.44257478973159436  0.29383467138698915  1.0000
  O   O25       1.0  0.9479323383498726  0.4478054186392414  0.44831515567921815  1.0000
  O   O26       1.0  0.15594277557139688  0.4478075616413334  0.4483137586881726  1.0000
  O   O27       1.0  0.948135525488631  0.6561379843133963  0.44758740571283084  1.0000
  O   O28       1.0  0.9481487795322111  0.44698629946696383  0.6567107956585475  1.0000
  O   O29       1.0  0.038480276113794745  0.5380045082029098  0.5385825279289025  1.0000
  O   O30       1.0  0.8849284910352253  0.5380025760953301  0.5385850651993637  1.0000
  O   O31       1.0  0.03831245777045911  0.5386552537403446  0.38471794114453683  1.0000
  O   O32       1.0  0.03831017911303999  0.3842302744601368  0.5391428470532277  1.0000
