data_image0
_chemical_formula_structural       Cu2H8C8I2N4
_chemical_formula_sum              "Cu2 H8 C8 I2 N4"
_cell_length_a       4.137678612996498
_cell_length_b       6.871779593096009
_cell_length_c       11.004995837518292
_cell_angle_alpha    89.99940243128414
_cell_angle_beta     99.72983617278683
_cell_angle_gamma    89.99996443559864

_space_group_name_H-M_alt    "P 1"
_space_group_IT_number       1

loop_
  _space_group_symop_operation_xyz
  'x, y, z'

loop_
  _atom_site_type_symbol
  _atom_site_label
  _atom_site_symmetry_multiplicity
  _atom_site_fract_x
  _atom_site_fract_y
  _atom_site_fract_z
  _atom_site_occupancy
  Cu  Cu1       1.0  0.50000642381179  0.20758012962306796  0.25000149313788  1.0000
  Cu  Cu2       1.0  0.49999648214998865  0.7924316699561443  0.749996604429235  1.0000
  H   H1        1.0  0.7602181969116728  0.6016796629779506  0.3287695767613315  1.0000
  H   H2        1.0  0.2397955107132645  0.6016839905614761  0.1712327414197432  1.0000
  H   H3        1.0  0.2397947961303899  0.39831321857281676  0.6712372932363451  1.0000
  H   H4        1.0  0.7601925597255815  0.39831471201423346  0.8287608481364259  1.0000
  H   H5        1.0  0.2560293553737765  0.1769630347054445  0.4936792292492029  1.0000
  H   H6        1.0  0.7439713302496429  0.17696126750674074  0.006322329598937395  1.0000
  H   H7        1.0  0.743983420301312  0.823025481218025  0.5063212667131438  1.0000
  H   H8        1.0  0.25601438147947425  0.8230287036847201  0.9936738474320065  1.0000
  C   C1        1.0  0.6425816385658933  0.5544234433688828  0.4052249031745702  1.0000
  C   C2        1.0  0.357429722340484  0.5544261194523301  0.09477485477083289  1.0000
  C   C3        1.0  0.3574430860119832  0.4455679830779999  0.5947672084428318  1.0000
  C   C4        1.0  0.6425514892964656  0.4455696725504127  0.905232871181795  1.0000
  C   C5        1.0  0.3672985987803727  0.32120365157629044  0.4962909955394252  1.0000
  C   C6        1.0  0.6326966708536118  0.3212077845857523  0.003712042572232093  1.0000
  C   C7        1.0  0.6327265604948095  0.6788139688505697  0.503713864090301  1.0000
  C   C8        1.0  0.36727436052657936  0.6788142016041901  0.9962841791898356  1.0000
  I   I1        1.0  1.1148708694000522e-05  0.9747701230282078  0.2500076680621319  1.0000
  I   I2        1.0  0.999994457575248  0.025240221260503404  0.7499978584284079  1.0000
  N   N1        1.0  0.5095762822396139  0.3740757614130458  0.3994629962714669  1.0000
  N   N2        1.0  0.4904285109526896  0.37407684270248615  0.10053844454143498  1.0000
  N   N3        1.0  0.4904292930302957  0.6259156649308794  0.6005416197037192  1.0000
  N   N4        1.0  0.5095644943244863  0.625918949408053  0.8994563441831716  1.0000
