data_image0
_chemical_formula_structural       Cd4H40C64N32
_chemical_formula_sum              "Cd4 H40 C64 N32"
_cell_length_a       9.164833012028701
_cell_length_b       12.528401533020551
_cell_length_c       14.58894542303049
_cell_angle_alpha    90.00009047876445
_cell_angle_beta     90.00021726646838
_cell_angle_gamma    90.00018629940712

_space_group_name_H-M_alt    "P 1"
_space_group_IT_number       1

loop_
  _space_group_symop_operation_xyz
  'x, y, z'

loop_
  _atom_site_type_symbol
  _atom_site_label
  _atom_site_symmetry_multiplicity
  _atom_site_fract_x
  _atom_site_fract_y
  _atom_site_fract_z
  _atom_site_occupancy
  Cd  Cd1       1.0  0.8795983266400073  0.32672685211291963  0.18538958871129543  1.0000
  Cd  Cd2       1.0  0.6204000222462939  0.6732756102470462  0.6853852110536918  1.0000
  Cd  Cd3       1.0  0.1204010556987569  0.8267276098102344  0.3146115122679021  1.0000
  Cd  Cd4       1.0  0.3796016693233853  0.17327710336888905  0.8146153127650775  1.0000
  H   H1        1.0  0.013849052573242206  0.2198496226378737  0.3552287186820351  1.0000
  H   H2        1.0  0.48614955121453823  0.7801495788673376  0.8552253620239794  1.0000
  H   H3        1.0  0.9861509431514579  0.7198481207641977  0.1447708683057982  1.0000
  H   H4        1.0  0.5138504358101841  0.2801502750281273  0.644773248525908  1.0000
  H   H5        1.0  0.0671301555520998  0.0166116908225362  0.59473396369917  1.0000
  H   H6        1.0  0.43287016118491556  0.9833886219318374  0.0947318084224307  1.0000
  H   H7        1.0  0.9328686534823663  0.5166105480552401  0.905266350369281  1.0000
  H   H8        1.0  0.5671277391477079  0.4833875346698307  0.405265389592941  1.0000
  H   H9        1.0  0.6149198999788084  0.2103664227945004  0.5060155211378541  1.0000
  H   H10       1.0  0.8850806477882501  0.7896341091434919  0.0060129917482215  1.0000
  H   H11       1.0  0.3850808662571198  0.7103673423743332  0.9939857377879233  1.0000
  H   H12       1.0  0.11491638648205077  0.28963211754381035  0.4939860032142248  1.0000
  H   H13       1.0  0.031890752687211  0.07402504863138401  0.43376139246688433  1.0000
  H   H14       1.0  0.4681083215403988  0.9259758955016509  0.9337588731885161  1.0000
  H   H15       1.0  0.968109682344604  0.5740241560194832  0.06623868473926108  1.0000
  H   H16       1.0  0.5318901350513626  0.4259740935159329  0.5662385616923301  1.0000
  H   H17       1.0  0.8756341361393325  0.05405328618719811  0.7114808890160376  1.0000
  H   H18       1.0  0.6243654601627214  0.9459436374618234  0.21147862855367083  1.0000
  H   H19       1.0  0.12436593138949802  0.5540540046707535  0.7885201606333039  1.0000
  H   H20       1.0  0.3756300905415842  0.44594267804112053  0.2885192047773017  1.0000
  H   H21       1.0  0.5599919212858779  0.0692884069134223  0.40172749377274636  1.0000
  H   H22       1.0  0.9400077235359064  0.9307128619710809  0.9017269697367778  1.0000
  H   H23       1.0  0.4400074014447811  0.569288719458349  0.09827120619033987  1.0000
  H   H24       1.0  0.0599929364866867  0.4307084071417507  0.5982732132889054  1.0000
  H   H25       1.0  0.3169504947751492  0.182895371745758  0.16799413971201455  1.0000
  H   H26       1.0  0.1830502608152003  0.8171026828871033  0.6679949031468694  1.0000
  H   H27       1.0  0.6830504269010689  0.6828958962340508  0.3320060832536311  1.0000
  H   H28       1.0  0.816953164772059  0.3171020500654862  0.8320058132313972  1.0000
  H   H29       1.0  0.5354434227554136  0.29592597339009064  0.12733972273027655  1.0000
  H   H30       1.0  0.9645556695356492  0.7040755826810425  0.6273403250915236  1.0000
  H   H31       1.0  0.46455691302595886  0.7959252586262408  0.372659966111179  1.0000
  H   H32       1.0  0.0354450685694729  0.2040723789762069  0.8726602399586338  1.0000
  H   H33       1.0  0.33201584413030366  0.065801570600577  0.3067751866990846  1.0000
  H   H34       1.0  0.16798574279753353  0.9341967424886517  0.8067753852908337  1.0000
  H   H35       1.0  0.6679845541434445  0.5658025991849911  0.19322350859751933  1.0000
  H   H36       1.0  0.8320192973151779  0.43419588684398036  0.6932248024068101  1.0000
  H   H37       1.0  0.6515461178927211  0.1481631508013237  0.6679518342374067  1.0000
  H   H38       1.0  0.8484521265326492  0.8518360863390767  0.16794861475845116  1.0000
  H   H39       1.0  0.3484532791715581  0.6481636821730205  0.8320493414073551  1.0000
  H   H40       1.0  0.1515419123886304  0.3518338797905827  0.332049092576625  1.0000
  C   C1        1.0  0.9690931651046454  0.06030785884671991  0.5754451273485158  1.0000
  C   C2        1.0  0.5309045251838923  0.9396936005744507  0.07544194873194238  1.0000
  C   C3        1.0  0.030908021501893805  0.5603054168812064  0.9245559306738116  1.0000
  C   C4        1.0  0.46909099757665734  0.43969151917706745  0.4245545053295529  1.0000
  C   C5        1.0  0.7141971773454826  0.1680985963315251  0.5254954298782193  1.0000
  C   C6        1.0  0.7858023959886823  0.8319003755128376  0.025495460581190295  1.0000
  C   C7        1.0  0.28580339995413334  0.6680992448232319  0.9745050870075429  1.0000
  C   C8        1.0  0.21419482722408395  0.3319017751904454  0.47450633277278337  1.0000
  C   C9        1.0  0.8222730993153391  0.14840421064232598  0.45922482072851506  1.0000
  C   C10       1.0  0.6777268899280531  0.8515971653201715  0.9592228757642685  1.0000
  C   C11       1.0  0.17772657705882716  0.6484037957663559  0.040775356057487486  1.0000
  C   C12       1.0  0.32227123420168624  0.35159561831242303  0.540775830437475  1.0000
  C   C13       1.0  0.9499644165695217  0.09397445736293972  0.4852576622516266  1.0000
  C   C14       1.0  0.550034637490171  0.9060269670799387  0.9852554836592231  1.0000
  C   C15       1.0  0.050036107635044395  0.5939728938067006  0.014743127113383998  1.0000
  C   C16       1.0  0.4499637299347371  0.40602567360657094  0.5147426099642942  1.0000
  C   C17       1.0  0.8615540769164483  0.080703052090243  0.6409000515113092  1.0000
  C   C18       1.0  0.6384450965871977  0.9192953364857741  0.14089710371613506  1.0000
  C   C19       1.0  0.13844720085671014  0.5807023389484484  0.8591003483673203  1.0000
  C   C20       1.0  0.36155033500165257  0.4192944752099237  0.35910069393743516  1.0000
  C   C21       1.0  0.6648077986294895  0.18622595370317188  0.31493801132183546  1.0000
  C   C22       1.0  0.8351891440460123  0.8137751535484979  0.8149384500343186  1.0000
  C   C23       1.0  0.33518986454526367  0.6862261799671217  0.18506015974724474  1.0000
  C   C24       1.0  0.16481208440308137  0.3137711082638718  0.6850615764335544  1.0000
  C   C25       1.0  0.5491962421454347  0.12041537149553957  0.3418438171679695  1.0000
  C   C26       1.0  0.9508030439498188  0.8795841894919293  0.841842565143011  1.0000
  C   C27       1.0  0.4508044002481952  0.6204158210995985  0.1581556366971952  1.0000
  C   C28       1.0  0.04919738753279291  0.3795838115833235  0.6581548076309218  1.0000
  C   C29       1.0  0.41452141034944384  0.18183393887288446  0.2106100848661469  1.0000
  C   C30       1.0  0.08547960052784023  0.8181657914984374  0.7106113009735039  1.0000
  C   C31       1.0  0.5854762332051209  0.6818357495925227  0.2893908221258598  1.0000
  C   C32       1.0  0.9145238298102499  0.3181637137116482  0.7893901022776217  1.0000
  C   C33       1.0  0.5348913802483681  0.2450384520317641  0.18799314679283435  1.0000
  C   C34       1.0  0.965108075357307  0.7549600242475875  0.6879903913543399  1.0000
  C   C35       1.0  0.46510981920098987  0.7450384238050135  0.3120071593712907  1.0000
  C   C36       1.0  0.0348928901980017  0.2549591008441822  0.8120088709218151  1.0000
  C   C37       1.0  0.808428676327182  0.1872717932078203  0.3637436312091395  1.0000
  C   C38       1.0  0.69157183208317  0.8127294049379328  0.8637416674395478  1.0000
  C   C39       1.0  0.19157226490786172  0.6872707907089506  0.13625659761475356  1.0000
  C   C40       1.0  0.3084293916935863  0.3127272048195379  0.6362576721789777  1.0000
  C   C41       1.0  0.42245836206260645  0.11818104824257597  0.28860198108231566  1.0000
  C   C42       1.0  0.07754202489310563  0.881822020121575  0.7886046342608991  1.0000
  C   C43       1.0  0.5775422703485164  0.6181826949461282  0.2113981552427829  1.0000
  C   C44       1.0  0.9224595077244402  0.38181821948440836  0.7113968542111448  1.0000
  C   C45       1.0  0.8595697779417293  0.1457818013913439  0.0178852183174882  1.0000
  C   C46       1.0  0.6404352054237564  0.8542219453963041  0.5178756473926069  1.0000
  C   C47       1.0  0.14043097784358594  0.6457821202236858  0.4821163258603675  1.0000
  C   C48       1.0  0.3595651127032157  0.3542221067148148  0.9821251186785387  1.0000
  C   C49       1.0  0.7101315263486755  0.11326512364318118  0.8938263295770594  1.0000
  C   C50       1.0  0.7898691622512928  0.8867369287079825  0.3938189034989604  1.0000
  C   C51       1.0  0.28986880584044883  0.6132642976090565  0.6061720575436594  1.0000
  C   C52       1.0  0.2101272149491535  0.3867384310131569  0.10618296327044158  1.0000
  C   C53       1.0  0.8623277562594751  0.4774884534165125  0.3682089147567922  1.0000
  C   C54       1.0  0.6376705966576209  0.522511954860711  0.8682119166651601  1.0000
  C   C55       1.0  0.13767229994092392  0.9774849205547725  0.13178553355823644  1.0000
  C   C56       1.0  0.36233151214352693  0.022513864839041296  0.6317897762097076  1.0000
  C   C57       1.0  0.8053311002664643  0.5327310051617148  0.5151687860415419  1.0000
  C   C58       1.0  0.6946716845885633  0.46726635108262116  0.015169480720714997  1.0000
  C   C59       1.0  0.1946677808179373  0.032730781508448104  0.984830178707497  1.0000
  C   C60       1.0  0.30533050821256313  0.9672678631770283  0.48483386477123946  1.0000
  C   C61       1.0  0.7343974132760068  0.13452778149017058  0.6157226524544368  1.0000
  C   C62       1.0  0.7656027005436244  0.8654713583869266  0.11572199416617218  1.0000
  C   C63       1.0  0.26560301396234115  0.6345282141709702  0.8842771340351516  1.0000
  C   C64       1.0  0.2343957638462513  0.365470243250087  0.38427847323216463  1.0000
  N   N1        1.0  0.9193286186301464  0.22190119965753036  0.3179488392834101  1.0000
  N   N2        1.0  0.5806705243238427  0.7780991150142995  0.8179458775041721  1.0000
  N   N3        1.0  0.0806713862656494  0.7219000201429252  0.18205075045134575  1.0000
  N   N4        1.0  0.4193305446604399  0.278099657042695  0.6820520448512039  1.0000
  N   N5        1.0  0.8615473489360073  0.47352218879972713  0.2872777701013831  1.0000
  N   N6        1.0  0.6384516103063618  0.5264804633151953  0.7872787228438082  1.0000
  N   N7        1.0  0.13845487180726224  0.9735180103260533  0.21272284196022884  1.0000
  N   N8        1.0  0.3615526985030968  0.026482522177552405  0.7127277735004609  1.0000
  N   N9        1.0  0.6561408815525381  0.24703969597617  0.23867618940234075  1.0000
  N   N10       1.0  0.8438577865465433  0.7529620674386948  0.7386758820513533  1.0000
  N   N11       1.0  0.3438603268393053  0.7470392865826907  0.26132343399034846  1.0000
  N   N12       1.0  0.15614535232812443  0.2529581436792583  0.7613240630009981  1.0000
  N   N13       1.0  0.6164853821571443  0.12441562626553797  0.839103969076902  1.0000
  N   N14       1.0  0.8835138875269382  0.8755879205491653  0.33910018010191567  1.0000
  N   N15       1.0  0.38351390874743174  0.6244143254459756  0.6608951184212939  1.0000
  N   N16       1.0  0.11648243983578511  0.37559010145646  0.16090030084033907  1.0000
  N   N17       1.0  0.9096899105318885  0.1877665270663584  0.08294004305348318  1.0000
  N   N18       1.0  0.5903209181558184  0.8122349463203093  0.5829282392686249  1.0000
  N   N19       1.0  0.0903088506663963  0.687766606199503  0.4170615573318911  1.0000
  N   N20       1.0  0.4096803034168275  0.31223271046151513  0.917073156039393  1.0000
  N   N21       1.0  0.752395347369536  0.5813636996890494  0.5759407967927144  1.0000
  N   N22       1.0  0.7476067103969232  0.41863217335909286  0.07594155342174957  1.0000
  N   N23       1.0  0.24759938659900638  0.0813658826169288  0.9240596039644868  1.0000
  N   N24       1.0  0.25239962952826994  0.9186342452672914  0.42406309786406376  1.0000
  N   N25       1.0  0.870771153480824  0.47265552686012313  0.45653607366202914  1.0000
  N   N26       1.0  0.6292299107947416  0.5273442477280668  0.9565390617768724  1.0000
  N   N27       1.0  0.129227790003128  0.9726526077229136  0.04346248088467769  1.0000
  N   N28       1.0  0.37077331074980446  0.027346013182452097  0.54346812117285  1.0000
  N   N29       1.0  0.8188799364904185  0.09223229101752392  0.9466527454915548  1.0000
  N   N30       1.0  0.6811221596949508  0.9077738506486241  0.4466464574481463  1.0000
  N   N31       1.0  0.18112030168826013  0.5922335039521728  0.5533456134712009  1.0000
  N   N32       1.0  0.31887758491351553  0.40777391540830626  0.05335406658801388  1.0000
