data_image0
_chemical_formula_structural       Cd3H28C32N6O14
_chemical_formula_sum              "Cd3 H28 C32 N6 O14"
_cell_length_a       7.893230622125755
_cell_length_b       8.731989413528723
_cell_length_c       14.197775845997421
_cell_angle_alpha    84.39507104706745
_cell_angle_beta     80.09079511244013
_cell_angle_gamma    72.47794925319431

_space_group_name_H-M_alt    "P 1"
_space_group_IT_number       1

loop_
  _space_group_symop_operation_xyz
  'x, y, z'

loop_
  _atom_site_type_symbol
  _atom_site_label
  _atom_site_symmetry_multiplicity
  _atom_site_fract_x
  _atom_site_fract_y
  _atom_site_fract_z
  _atom_site_occupancy
  Cd  Cd1       1.0  0.5000034338546087  0.5000036918038975  0.9999995411605269  1.0000
  Cd  Cd2       1.0  0.8409550139996612  0.8624940872464326  0.8229274742580514  1.0000
  Cd  Cd3       1.0  0.1590419521259605  0.13750273383095651  0.1770733624468548  1.0000
  H   H1        1.0  0.41484728700540063  0.8569964377705406  0.9546873870141255  1.0000
  H   H2        1.0  0.5851626309035822  0.14301228210370462  0.04531503655740471  1.0000
  H   H3        1.0  0.24664711941831288  0.8405566906165451  0.030237218945096282  1.0000
  H   H4        1.0  0.753363411124461  0.15944603529621304  0.9697640834804844  1.0000
  H   H5        1.0  0.4100554702476345  0.36089228307731963  0.4920117821926766  1.0000
  H   H6        1.0  0.5899332237120163  0.6391022120166528  0.507986463686926  1.0000
  H   H7        1.0  0.8276727348626738  0.8604675369857165  0.6006313429327433  1.0000
  H   H8        1.0  0.17233122404104512  0.13953160261515765  0.39937432123085864  1.0000
  H   H9        1.0  0.01072031684680751  0.724311874049285  0.4566644517461924  1.0000
  H   H10       1.0  0.989274234677936  0.27568853146910755  0.5433406362596855  1.0000
  H   H11       1.0  0.3438818936126254  0.39520858240947393  0.6465118225725561  1.0000
  H   H12       1.0  0.6561176465511523  0.6047882284134546  0.35348806256293125  1.0000
  H   H13       1.0  0.1385080696656756  0.5411168247256984  0.7831039373848654  1.0000
  H   H14       1.0  0.8614975409252993  0.4588811351045195  0.2168974099105441  1.0000
  H   H15       1.0  0.23084110001396135  0.7108620069880519  0.16992782652476993  1.0000
  H   H16       1.0  0.7691429715010686  0.28913490564052335  0.8300721333114893  1.0000
  H   H17       1.0  0.1678482943297297  0.719413859587654  0.3433626570941968  1.0000
  H   H18       1.0  0.832127279947308  0.28058550861409504  0.656637274525238  1.0000
  H   H19       1.0  0.5386070064872044  0.23729159264399172  0.35533858185198863  1.0000
  H   H20       1.0  0.46139464230828514  0.7627147962119738  0.6446619552337012  1.0000
  H   H21       1.0  0.5991459681622688  0.25823433531668644  0.17972348151162978  1.0000
  H   H22       1.0  0.4008596965489986  0.7417756198964442  0.8202778714422863  1.0000
  H   H23       1.0  0.34941035202012943  0.29590446378029617  0.8042239843690381  1.0000
  H   H24       1.0  0.6505913868299446  0.7040935290536298  0.19577632509236054  1.0000
  H   H25       1.0  0.29599633683500315  0.18287550090038715  0.7204033619539273  1.0000
  H   H26       1.0  0.7040008962730158  0.8171285541427838  0.27959210044311794  1.0000
  H   H27       1.0  0.9839411678371235  0.2253362762438017  0.9902344285791358  1.0000
  H   H28       1.0  0.0160693055328878  0.7746544593209068  0.009766163848482284  1.0000
  C   C1        1.0  0.9438945149046277  0.7557959236095758  0.6070415282211953  1.0000
  C   C2        1.0  0.05610671662862639  0.2441996419894751  0.3929631964592062  1.0000
  C   C3        1.0  0.04923827495078105  0.6801728555897598  0.5262533667127015  1.0000
  C   C4        1.0  0.9507651369538979  0.3198239222294605  0.4737475562567965  1.0000
  C   C5        1.0  0.1997420021903836  0.5474018792463868  0.5382745949332203  1.0000
  C   C6        1.0  0.800257537973387  0.45259493157654884  0.461725290202267  1.0000
  C   C7        1.0  0.22953926629744362  0.4971949708457048  0.633043802676987  1.0000
  C   C8        1.0  0.7704629951318367  0.5028054240487736  0.3669556132627605  1.0000
  C   C9        1.0  0.11628401777369383  0.5780403984440883  0.7093234941709808  1.0000
  C   C10       1.0  0.8837215897648037  0.4219575664209929  0.2906771487849653  1.0000
  C   C11       1.0  0.295267564021529  0.6065584423058968  0.21321012300740697  1.0000
  C   C12       1.0  0.7047229471676034  0.3934384371342435  0.7867885144144964  1.0000
  C   C13       1.0  0.2560311096497615  0.6093283812071848  0.31249976587229616  1.0000
  C   C14       1.0  0.7439503878271128  0.3906685416758507  0.6875011455333818  1.0000
  C   C15       1.0  0.34091211201106836  0.47426753606837496  0.36728509127084413  1.0000
  C   C16       1.0  0.6590746929793883  0.5257329404922902  0.6327172167275492  1.0000
  C   C17       1.0  0.4645482428300909  0.3448542663316162  0.3174889740255153  1.0000
  C   C18       1.0  0.5354481106617401  0.6551485487072599  0.6825129838253332  1.0000
  C   C19       1.0  0.49835136825244325  0.35488011057395874  0.21854686671895246  1.0000
  C   C20       1.0  0.5016528576336725  0.6451262629926904  0.7814534231367886  1.0000
  C   C21       1.0  0.5036215916877397  0.05515495161532162  0.7992804139513864  1.0000
  C   C22       1.0  0.49637897226710254  0.944846698572768  0.20071275376451328  1.0000
  C   C23       1.0  0.3247497254137884  0.18174372362448576  0.7933419399719241  1.0000
  C   C24       1.0  0.6752563772316053  0.8182566886149235  0.20665147040714518  1.0000
  C   C25       1.0  0.16553031419027772  0.16545516291984094  0.8635484471783741  1.0000
  C   C26       1.0  0.8344751880312415  0.8345512231416027  0.1364489017045116  1.0000
  C   C27       1.0  0.0736441366480776  0.05025849018726802  0.8389071511568176  1.0000
  C   C28       1.0  0.9263607766640264  0.9497335185701704  0.1610882682313459  1.0000
  C   C29       1.0  0.10149054234457114  0.2462988371975429  0.9445513648132646  1.0000
  C   C30       1.0  0.8985155908256108  0.7537015246932272  0.055449088960493456  1.0000
  C   C31       1.0  0.18391973957962898  0.3526392986867963  0.9856922912090553  1.0000
  C   C32       1.0  0.8160809449545923  0.6473539051306079  0.014307692277242288  1.0000
  N   N1        1.0  0.9755021423120313  0.7076962967786147  0.6968117212321445  1.0000
  N   N2        1.0  0.024502191943540242  0.29230165055680857  0.3031925670361204  1.0000
  N   N3        1.0  0.320227761703336  0.45954763981129093  0.4666878906559547  1.0000
  N   N4        1.0  0.6797636596267793  0.5404504292845048  0.5333112947068486  1.0000
  N   N5        1.0  0.41331202757506713  0.4832531978107612  0.1661144442528624  1.0000
  N   N6        1.0  0.5866859867614521  0.5167484223528689  0.8338853097482044  1.0000
  O   O1        1.0  0.5315412321858093  0.9726097878525695  0.8777018259542899  1.0000
  O   O2        1.0  0.46846297233295797  0.0273966209581289  0.1222935335251663  1.0000
  O   O3        1.0  0.6257407236025331  0.043231299025087815  0.7267248378086819  1.0000
  O   O4        1.0  0.3742564431752839  0.956760780774623  0.2732678015719898  1.0000
  O   O5        1.0  0.9216800305069344  0.04653495028671981  0.8906385412591931  1.0000
  O   O6        1.0  0.07831669528427203  0.9534666775215759  0.10936133635685508  1.0000
  O   O7        1.0  0.1431028951190427  0.9623692605146844  0.7690360882999343  1.0000
  O   O8        1.0  0.8569079894082352  0.037632308376672106  0.2309589078540384  1.0000
  O   O9        1.0  0.2685763218304587  0.4388995088294366  0.9321672941856534  1.0000
  O   O10       1.0  0.7314282405496186  0.561093651914533  0.0678351358135956  1.0000
  O   O11       1.0  0.16296271459221157  0.3513796820556438  0.0773126272624864  1.0000
  O   O12       1.0  0.8370368286240437  0.6486171237324215  0.9226879622124642  1.0000
  O   O13       1.0  0.35011236417646074  0.7792952463747869  0.9853158984779141  1.0000
  O   O14       1.0  0.6499055375487472  0.22070860076114238  0.014689559850495505  1.0000
