data_image0
_chemical_formula_structural       Cu2H24C12N4Cl4O4F4
_chemical_formula_sum              "Cu2 H24 C12 N4 Cl4 O4 F4"
_cell_length_a       8.084017865469173
_cell_length_b       9.020716897720185
_cell_length_c       9.020753988005614
_cell_angle_alpha    84.61277176712781
_cell_angle_beta     68.27371089294738
_cell_angle_gamma    68.27379026638305

_space_group_name_H-M_alt    "P 1"
_space_group_IT_number       1

loop_
  _space_group_symop_operation_xyz
  'x, y, z'

loop_
  _atom_site_type_symbol
  _atom_site_label
  _atom_site_symmetry_multiplicity
  _atom_site_fract_x
  _atom_site_fract_y
  _atom_site_fract_z
  _atom_site_occupancy
  Cu  Cu1       1.0  0.24560802882511018  0.6170213035864619  0.7339596283464047  1.0000
  Cu  Cu2       1.0  0.7456170411120553  0.7339524853304837  0.617018167809391  1.0000
  H   H1        1.0  0.5068267300980694  0.3303281703128106  0.6807555394304642  1.0000
  H   H2        1.0  0.006834075289312085  0.6807449649774  0.3303245705012827  1.0000
  H   H3        1.0  0.5564308586768477  0.4588672068825943  0.7624019270598053  1.0000
  H   H4        1.0  0.05644144008215339  0.7623924146019261  0.45885550775449246  1.0000
  H   H5        1.0  0.18729735718910245  0.9641660704268843  0.6484189277020744  1.0000
  H   H6        1.0  0.6872838263005577  0.6484223671952021  0.9641651053065345  1.0000
  H   H7        1.0  0.3669939653914441  0.019696005390123603  0.6517782199155419  1.0000
  H   H8        1.0  0.866985638893617  0.6517849538121964  0.019695353631007575  1.0000
  H   H9        1.0  0.20166229991802007  0.13938474350207736  0.5767561218548138  1.0000
  H   H10       1.0  0.7016587664857711  0.5767560875422361  0.13938454886771723  1.0000
  H   H11       1.0  0.43011658378588896  0.12759009382810393  0.8370307492513547  1.0000
  H   H12       1.0  0.9301162866000112  0.8370258260469824  0.1275836378769739  1.0000
  H   H13       1.0  0.2682963276686722  0.1702623442839624  0.03652010838631977  1.0000
  H   H14       1.0  0.7682957109093707  0.036517075064459406  0.17026244425302647  1.0000
  H   H15       1.0  0.00826430251227352  0.35182743485847107  0.9578786213832089  1.0000
  H   H16       1.0  0.5082687991853021  0.9578714693285023  0.35183334293365226  1.0000
  H   H17       1.0  0.1579397782700483  0.3504203092399577  0.7595435518418796  1.0000
  H   H18       1.0  0.6579448769761317  0.759537446912958  0.3504145583901276  1.0000
  H   H19       1.0  0.10160826501989824  0.045009409881870986  0.9103945082020958  1.0000
  H   H20       1.0  0.6015929057570946  0.9104002245393586  0.04501534227762254  1.0000
  H   H21       1.0  0.9467125482740857  0.18316290370870547  0.8212462790863525  1.0000
  H   H22       1.0  0.4467013490079026  0.8212475549499557  0.18317122486182316  1.0000
  H   H23       1.0  0.4431042969832505  0.27693091522481683  0.1446689040726028  1.0000
  H   H24       1.0  0.9431134638556102  0.1446613444530414  0.2769191482317268  1.0000
  C   C1        1.0  0.1954391153392478  0.4941302499258669  0.0407663760717725  1.0000
  C   C2        1.0  0.6954456535702536  0.0407562386750939  0.49414392250612577  1.0000
  C   C3        1.0  0.37311264699086183  0.3586227633572888  0.9317411867388186  1.0000
  C   C4        1.0  0.8731127114896186  0.9317378041736786  0.358623213267883  1.0000
  C   C5        1.0  0.3069895133595254  0.22177058021642884  0.9190281418424533  1.0000
  C   C6        1.0  0.806980925047981  0.919029531117779  0.22177125461567482  1.0000
  C   C7        1.0  0.13735148854866  0.2756094876555011  0.8636266860706668  1.0000
  C   C8        1.0  0.6373509263392878  0.8636218415823221  0.27560578582103556  1.0000
  C   C9        1.0  0.09057577556224324  0.1392848408831568  0.8246559847971966  1.0000
  C   C10       1.0  0.5905616155977572  0.8246601926369903  0.13929658492107663  1.0000
  C   C11       1.0  0.5140136292423351  0.2969039863493991  0.018716079781555112  1.0000
  C   C12       1.0  0.014015040392045805  0.0187097668935863  0.2968947004054669  1.0000
  N   N1        1.0  0.4507231390332151  0.4165856799945117  0.7720002390447362  1.0000
  N   N2        1.0  0.9507273699179709  0.772002294300165  0.4165761546991149  1.0000
  N   N3        1.0  0.2224175244272857  0.060328720582482696  0.6637836713608394  1.0000
  N   N4        1.0  0.7224109938474189  0.6637888707976457  0.06032856687679099  1.0000
  Cl  Cl1       1.0  0.3887807117507552  0.6148778323093678  0.4696298615742619  1.0000
  Cl  Cl2       1.0  0.8887866091016223  0.469617653072298  0.6148699888442835  1.0000
  Cl  Cl3       1.0  0.9807689447323262  0.8352766212573923  0.7488135509748726  1.0000
  Cl  Cl4       1.0  0.4807709042606376  0.7488172545026115  0.8352762301576745  1.0000
  O   O1        1.0  0.13490825376477747  0.48416237987132144  0.18790851232695624  1.0000
  O   O2        1.0  0.6349048790536999  0.18791761419603148  0.48416373538954355  1.0000
  O   O3        1.0  0.11026688671834965  0.6082824988832981  0.9654753820123999  1.0000
  O   O4        1.0  0.6102813742656463  0.9654667462932239  0.6082783908475164  1.0000
  F   F1        1.0  0.6600921790884231  0.1558562121566496  0.944770927168413  1.0000
  F   F2        1.0  0.16009135633607516  0.9447662309888256  0.15584237340708995  1.0000
  F   F3        1.0  0.6021333279016404  0.404250052016323  0.015216699824705417  1.0000
  F   F4        1.0  0.10214506667639972  0.015216154719993798  0.4042280157307658  1.0000
