data_image0
_chemical_formula_structural       Zn2H48C52N8O12
_chemical_formula_sum              "Zn2 H48 C52 N8 O12"
_cell_length_a       9.341147094968827
_cell_length_b       11.857343450486939
_cell_length_c       13.095277090880511
_cell_angle_alpha    109.19911273574378
_cell_angle_beta     97.74373181607852
_cell_angle_gamma    113.10279379395409

_space_group_name_H-M_alt    "P 1"
_space_group_IT_number       1

loop_
  _space_group_symop_operation_xyz
  'x, y, z'

loop_
  _atom_site_type_symbol
  _atom_site_label
  _atom_site_symmetry_multiplicity
  _atom_site_fract_x
  _atom_site_fract_y
  _atom_site_fract_z
  _atom_site_occupancy
  Zn  Zn1       1.0  0.6347947282041275  0.20695062409085813  0.21482175953376276  1.0000
  Zn  Zn2       1.0  0.3652065051628385  0.7930500994107988  0.7851767729039596  1.0000
  H   H1        1.0  0.6214676665785036  0.4250052240176675  0.3974123327501291  1.0000
  H   H2        1.0  0.3785297178449624  0.5749924701727308  0.6025864702742467  1.0000
  H   H3        1.0  0.7573741414561254  0.5620369566353745  0.6108701876430161  1.0000
  H   H4        1.0  0.24262381068628974  0.4379617533783957  0.3891297314014183  1.0000
  H   H5        1.0  0.08968497655919806  0.21637926298411267  0.4751219407728586  1.0000
  H   H6        1.0  0.9103146183985802  0.7836204568454335  0.5248776679044911  1.0000
  H   H7        1.0  0.9529610398082083  0.5079961114174266  0.7083715256081575  1.0000
  H   H8        1.0  0.04703962583982259  0.4920035962608651  0.29162589080951323  1.0000
  H   H9        1.0  0.07828776121819911  0.2196288049805588  0.7447438084126219  1.0000
  H   H10       1.0  0.9217129132421817  0.7803709149850635  0.255255139750112  1.0000
  H   H11       1.0  0.8754754818048693  0.20513280022959182  0.3820162519984152  1.0000
  H   H12       1.0  0.12452463815510144  0.7948659223436537  0.6179838777618515  1.0000
  H   H13       1.0  0.31879509919230037  0.33567340793456424  0.7039509088899792  1.0000
  H   H14       1.0  0.6812055752680805  0.6643263120310577  0.29604803927275475  1.0000
  H   H15       1.0  0.4249794459288124  0.337102275500932  0.5426015450398438  1.0000
  H   H16       1.0  0.5750212285315683  0.66289744446469  0.457397403122883  1.0000
  H   H17       1.0  0.30713417031159906  0.1599297005935156  0.46870926505643246  1.0000
  H   H18       1.0  0.6928642892083019  0.8400679875892934  0.5312881115807999  1.0000
  H   H19       1.0  0.5884910832576935  0.21302070807171702  0.5534779912154522  1.0000
  H   H20       1.0  0.41150738507455753  0.7869769923984226  0.44652091716684356  1.0000
  H   H21       1.0  0.5926398617582079  0.3135630653560639  0.6885891240861001  1.0000
  H   H22       1.0  0.4073607743916058  0.6864346476735578  0.3114099950120349  1.0000
  H   H23       1.0  0.5482613083358955  0.09104814866973501  0.680609873990605  1.0000
  H   H24       1.0  0.4517388072179002  0.9089505677598454  0.3193894898971338  1.0000
  H   H25       1.0  0.3783414208822434  0.006992207474219503  0.5575700047424023  1.0000
  H   H26       1.0  0.6216570430438324  0.9930054868522548  0.44242813776736517  1.0000
  H   H27       1.0  0.4026715537252982  0.20208559287618036  0.7907051058691297  1.0000
  H   H28       1.0  0.5973280456386549  0.7979141330970237  0.209295268680748  1.0000
  H   H29       1.0  0.28693126119803475  0.024837467831126503  0.7332986303013131  1.0000
  H   H30       1.0  0.7130678043513756  0.9751632431110481  0.2666996914205699  1.0000
  H   H31       1.0  0.12288813185185887  0.029066001295774403  0.5676190695651898  1.0000
  H   H32       1.0  0.8771114586997444  0.9709337123901066  0.4323797732396245  1.0000
  H   H33       1.0  0.6751517471698563  0.8336740143208845  0.7102119889257213  1.0000
  H   H34       1.0  0.3248461873478448  0.1663246711182254  0.2897848666285796  1.0000
  H   H35       1.0  0.7939360957226427  0.28438452629252714  0.9792117228379241  1.0000
  H   H36       1.0  0.20606132260522272  0.7156151686901994  0.020786143378515587  1.0000
  H   H37       1.0  0.5294034836086183  0.08104190964550641  0.9277500092103212  1.0000
  H   H38       1.0  0.47059611575533483  0.9189578163277049  0.07225036533955637  1.0000
  H   H39       1.0  0.9992890201297866  0.26267369936044827  0.8799517037081233  1.0000
  H   H40       1.0  0.0007144369900233115  0.737329068211352  0.12004993200016406  1.0000
  H   H41       1.0  0.7215547239946359  0.43462028522839097  0.010402428932103223  1.0000
  H   H42       1.0  0.2784471286203711  0.565383479463634  0.989599346207868  1.0000
  H   H43       1.0  0.6814354655608169  0.5404093568292083  0.8789601210109199  1.0000
  H   H44       1.0  0.31856304108200106  0.4595903505769313  0.1210386164359747  1.0000
  H   H45       1.0  0.7242360190063767  0.8868058596754628  0.019315307163268194  1.0000
  H   H46       1.0  0.27576367019725007  0.1131978986007454  0.980687023133399  1.0000
  H   H47       1.0  0.8288703469342025  0.7522329005739864  0.8883077603218369  1.0000
  H   H48       1.0  0.17113147618258745  0.24776886946936824  0.11169571749860552  1.0000
  C   C1        1.0  0.7088426460415603  0.40802030214678814  0.4465430934913997  1.0000
  C   C2        1.0  0.2911553105070226  0.59197841401064  0.5534575914255698  1.0000
  C   C3        1.0  0.7833973701089931  0.48182564422421603  0.5628352632844625  1.0000
  C   C4        1.0  0.21660223366113485  0.5181740878926604  0.43716587713794314  1.0000
  C   C5        1.0  0.8924483286783841  0.45169203821984627  0.6175078739078687  1.0000
  C   C6        1.0  0.10755070296663405  0.5483066719299927  0.3824913846219574  1.0000
  C   C7        1.0  0.9288059785189376  0.3513089884956246  0.5542850358446645  1.0000
  C   C8        1.0  0.0711946959414434  0.6486907314699905  0.4457139123180697  1.0000
  C   C9        1.0  0.8514734066197177  0.2829806142250177  0.4373305415137736  1.0000
  C   C10       1.0  0.1485261839318853  0.7170190994608632  0.5626683012910406  1.0000
  C   C11       1.0  0.04817458499488946  0.32494795850461605  0.619284469241862  1.0000
  C   C12       1.0  0.9518260938716735  0.6750517676046713  0.3807152447934002  1.0000
  C   C13       1.0  0.2550548207829664  0.24575638651803192  0.6223741256345365  1.0000
  C   C14       1.0  0.7449447697686367  0.7542433271678491  0.3776247171702708  1.0000
  C   C15       1.0  0.3748979135134504  0.2426638308362357  0.5538052599109095  1.0000
  C   C16       1.0  0.6251049243583183  0.7573358955452039  0.446193133095129  1.0000
  C   C17       1.0  0.5125380777464058  0.22290028781083043  0.6096509061185815  1.0000
  C   C18       1.0  0.4874631261223429  0.7770984410421563  0.3903493289996122  1.0000
  C   C19       1.0  0.4466894418678605  0.09992601972074773  0.6370847450419606  1.0000
  C   C20       1.0  0.5533090264643903  0.9000716807493914  0.3629141633403421  1.0000
  C   C21       1.0  0.3343738364941871  0.11061404573947439  0.710324628299425  1.0000
  C   C22       1.0  0.6656284851877462  0.8893866901855962  0.2896747753687452  1.0000
  C   C23       1.0  0.19148415405176417  0.1204015690328575  0.6482607469628405  1.0000
  C   C24       1.0  0.808514356997236  0.8795981445169404  0.3517387563565821  1.0000
  C   C25       1.0  0.96347967233595  0.019350578957571005  0.718846416252987  1.0000
  C   C26       1.0  0.036518843119225354  0.9806491407358993  0.28115385293896383  1.0000
  C   C27       1.0  0.8501370659353212  0.04569637235016441  0.7829993766102561  1.0000
  C   C28       1.0  0.14986087739473675  0.9543023253762682  0.21699901068911492  1.0000
  C   C29       1.0  0.7026764463438652  0.9359698418844499  0.765253296125792  1.0000
  C   C30       1.0  0.29732311470951334  0.06402787715276051  0.2347472493594864  1.0000
  C   C31       1.0  0.7700001736063271  0.18809852439658675  0.914701704325765  1.0000
  C   C32       1.0  0.23000103466860392  0.8119002106000723  0.08529929666496384  1.0000
  C   C33       1.0  0.6236894798989852  0.07454158255394822  0.8891643253078599  1.0000
  C   C34       1.0  0.37630959005660025  0.9254591345318917  0.1108347622865581  1.0000
  C   C35       1.0  0.8839877667747158  0.17417330610302884  0.8602451907858043  1.0000
  C   C36       1.0  0.11601345777989994  0.8258274051113049  0.13975180990685496  1.0000
  C   C37       1.0  0.5422007322877535  0.37241508426038206  0.14872701981032324  1.0000
  C   C38       1.0  0.4577999509849848  0.6275846479925705  0.8512734600974741  1.0000
  C   C39       1.0  0.5216723093391379  0.43949702074584707  0.072675844818562  1.0000
  C   C40       1.0  0.4783234322689581  0.5604996636287751  0.9273232685729058  1.0000
  C   C41       1.0  0.624098232467304  0.4628641400484169  0.004714562044355796  1.0000
  C   C42       1.0  0.37589971526892907  0.537134563821681  0.9952845911275435  1.0000
  C   C43       1.0  0.6025075649134592  0.5223465982570091  0.932290955492235  1.0000
  C   C44       1.0  0.3974920344504936  0.4776531277162021  0.06770941905764255  1.0000
  C   C45       1.0  0.8783643588491825  0.15833664590945062  0.14515166422203413  1.0000
  C   C46       1.0  0.12163582585841237  0.841664120461786  0.8548528898380214  1.0000
  C   C47       1.0  0.9419009493329893  0.07506401150176602  0.07232089846485927  1.0000
  C   C48       1.0  0.058098705966237875  0.9249377459821064  0.9276823686397366  1.0000
  C   C49       1.0  0.8450699442473351  0.9352597875275638  0.010585077149976089  1.0000
  C   C50       1.0  0.15493190836767917  0.06474397716445422  0.9894166979899952  1.0000
  C   C51       1.0  0.902851838743537  0.8606302804587146  0.9382982916420988  1.0000
  C   C52       1.0  0.09715161090893082  0.13937052318274112  0.06170887610931433  1.0000
  N   N1        1.0  0.7421779549876746  0.3100242448007863  0.3853870485926266  1.0000
  N   N2        1.0  0.2578189088397737  0.6899744527895708  0.6146119992213602  1.0000
  N   N3        1.0  0.5904699614479014  0.9504804734518473  0.8152063823475333  1.0000
  N   N4        1.0  0.4095301924164686  0.049520249913740606  0.1847928106048045  1.0000
  N   N5        1.0  0.1231202068353312  0.26002719151832565  0.5623752938190522  1.0000
  N   N6        1.0  0.8768804676250569  0.7399725284472894  0.437623654343682  1.0000
  N   N7        1.0  0.07876474450221589  0.1279137738815663  0.7139663743262619  1.0000
  N   N8        1.0  0.9212337709529594  0.8720859458119038  0.28603389486569614  1.0000
  O   O1        1.0  0.6162397350273352  0.29979561434496566  0.11931805854232647  1.0000
  O   O2        1.0  0.3837620321541806  0.700204124187728  0.8806825267233835  1.0000
  O   O3        1.0  0.48777933053700195  0.3863223679986163  0.23201539870639468  1.0000
  O   O4        1.0  0.512220793829144  0.6136763607183015  0.7679854969264073  1.0000
  O   O5        1.0  0.7328890299160021  0.0908055925278362  0.1507463876982627  1.0000
  O   O6        1.0  0.26710896494315506  0.9091951305655924  0.8492541262832988  1.0000
  O   O7        1.0  0.9594988877033188  0.2838647788552607  0.19285948313053325  1.0000
  O   O8        1.0  0.04050998589923449  0.7161360623285661  0.8071489772830065  1.0000
  O   O9        1.0  0.07623300228911496  0.36575361351759744  0.7246356413672502  1.0000
  O   O10       1.0  0.923768239890215  0.6342471222713896  0.2753644228155352  1.0000
  O   O11       1.0  0.945858391148839  0.902098991988723  0.6711533647629582  1.0000
  O   O12       1.0  0.054140115493979124  0.09790071541741702  0.32884537268393643  1.0000
