data_image0
_chemical_formula_structural       K4H20C12O16
_chemical_formula_sum              "K4 H20 C12 O16"
_cell_length_a       4.726106351540861
_cell_length_b       10.542624107020393
_cell_length_c       10.747656581884518
_cell_angle_alpha    90.00015763499735
_cell_angle_beta     102.2368801390021
_cell_angle_gamma    89.99980799821168

_space_group_name_H-M_alt    "P 1"
_space_group_IT_number       1

loop_
  _space_group_symop_operation_xyz
  'x, y, z'

loop_
  _atom_site_type_symbol
  _atom_site_label
  _atom_site_symmetry_multiplicity
  _atom_site_fract_x
  _atom_site_fract_y
  _atom_site_fract_z
  _atom_site_occupancy
  K   K1        1.0  0.3672602555671959  0.49420800762638345  0.1469801664272339  1.0000
  K   K2        1.0  0.1327380352599405  0.9942073308419881  0.3530233175310684  1.0000
  K   K3        1.0  0.6327426775834368  0.505795098814204  0.8530238008182848  1.0000
  K   K4        1.0  0.8672627441824119  0.005788187360259701  0.6469832419011254  1.0000
  H   H1        1.0  0.19022935789462278  0.7425193270586307  0.9228443851939473  1.0000
  H   H2        1.0  0.309766479080551  0.2425179973415439  0.5771544607192496  1.0000
  H   H3        1.0  0.8097713950231409  0.25747998525628907  0.07715565873344592  1.0000
  H   H4        1.0  0.6902364351387575  0.7574832120316161  0.4228448525894493  1.0000
  H   H5        1.0  0.7332235865945621  0.7662490510543947  0.7797942511306388  1.0000
  H   H6        1.0  0.7667801415434781  0.26625103384252213  0.7202086830922028  1.0000
  H   H7        1.0  0.26677717011678226  0.23374836420092046  0.22020672358173243  1.0000
  H   H8        1.0  0.23322061514956974  0.7337520725955073  0.27979229162613006  1.0000
  H   H9        1.0  0.47171553170090164  0.855546716454448  0.0803967761373414  1.0000
  H   H10       1.0  0.028281466662157608  0.3555439284279416  0.41960156334045  1.0000
  H   H11       1.0  0.5282830447501325  0.14445544144926004  0.919600275265843  1.0000
  H   H12       1.0  0.9717171135946502  0.6444525382943596  0.5803964188437405  1.0000
  H   H13       1.0  0.8104160174471104  0.9564609254022899  0.975970700492141  1.0000
  H   H14       1.0  0.6895778159439843  0.4564577307465854  0.5240290390309355  1.0000
  H   H15       1.0  0.18958039391184664  0.043540283972319606  0.02402615074376511  1.0000
  H   H16       1.0  0.31042292561437523  0.5435406330339633  0.4759682125345607  1.0000
  H   H17       1.0  0.49575303535687004  0.9184457926340884  0.85723665142266  1.0000
  H   H18       1.0  0.0042438317613787005  0.41844321141797286  0.6427618322844921  1.0000
  H   H19       1.0  0.504245537315832  0.0815535196769588  0.14275946919057966  1.0000
  H   H20       1.0  0.9957547446988001  0.5815561008943818  0.3572352191157151  1.0000
  C   C1        1.0  0.8350466171875938  0.7305026617202232  0.10909580426026368  1.0000
  C   C2        1.0  0.6649419081686219  0.23050053528002937  0.39090471063990856  1.0000
  C   C3        1.0  0.16495630459448307  0.26950234177734705  0.890905370626342  1.0000
  C   C4        1.0  0.33505452592743973  0.7694968799806078  0.6090977253138306  1.0000
  C   C5        1.0  0.5761529751469328  0.7936890882991534  0.02026560843635391  1.0000
  C   C6        1.0  0.9238437929559711  0.293685872161987  0.479733047088601  1.0000
  C   C7        1.0  0.4238456050915859  0.20631306960586226  0.9797323737538051  1.0000
  C   C8        1.0  0.07615695997093748  0.7063105945615721  0.5202669968358081  1.0000
  C   C9        1.0  0.684126940420093  0.8782802223723181  0.9240368413706008  1.0000
  C   C10       1.0  0.8158673956528659  0.37827793156422024  0.5759627344315064  1.0000
  C   C11       1.0  0.31586947472939647  0.12172003847314984  0.07596094065127798  1.0000
  C   C12       1.0  0.1841268619825627  0.6217204322243006  0.42403670899604146  1.0000
  O   O1        1.0  0.8507285462327376  0.6109024509962354  0.1131460321712012  1.0000
  O   O2        1.0  0.6492650821103896  0.11089843978215447  0.3868555633860709  1.0000
  O   O3        1.0  0.14927871330846193  0.38910444956214724  0.8868574046238962  1.0000
  O   O4        1.0  0.3507356670442832  0.8890932842878456  0.613143549746411  1.0000
  O   O5        1.0  0.37661093350089203  0.6994009422335595  0.9606280014764436  1.0000
  O   O6        1.0  0.12338518072157002  0.19939789061308494  0.5393707541387016  1.0000
  O   O7        1.0  0.6233898194107681  0.30060026714225785  0.039372042452939085  1.0000
  O   O8        1.0  0.8766177448693357  0.8006004731726367  0.4606313515279155  1.0000
  O   O9        1.0  0.8655608615471808  0.8135627018539892  0.8532732359471992  1.0000
  O   O10       1.0  0.6344360519544168  0.31355993525260584  0.6467254737057004  1.0000
  O   O11       1.0  0.1344398837925667  0.1864375589887645  0.1467249464072538  1.0000
  O   O12       1.0  0.3655603669795084  0.6864412741246115  0.3532732391041407  1.0000
  O   O13       1.0  0.019776887875245605  0.8070981498885461  0.1734234355958009  1.0000
  O   O14       1.0  0.4802160993892174  0.30709441823611894  0.326576263663938  1.0000
  O   O15       1.0  0.9802195423936839  0.1929115962666473  0.8265780695838885  1.0000
  O   O16       1.0  0.519782499817218  0.6928982543709027  0.6734263724511251  1.0000
