data_image0
_chemical_formula_structural       Nd2H26C32O24
_chemical_formula_sum              "Nd2 H26 C32 O24"
_cell_length_a       8.930601557857056
_cell_length_b       9.827237667686829
_cell_length_c       12.06940708105043
_cell_angle_alpha    100.25326270906571
_cell_angle_beta     103.64437513201085
_cell_angle_gamma    108.39553697110526

_space_group_name_H-M_alt    "P 1"
_space_group_IT_number       1

loop_
  _space_group_symop_operation_xyz
  'x, y, z'

loop_
  _atom_site_type_symbol
  _atom_site_label
  _atom_site_symmetry_multiplicity
  _atom_site_fract_x
  _atom_site_fract_y
  _atom_site_fract_z
  _atom_site_occupancy
  Nd  Nd1       1.0  0.26954637999180875  0.5376619505718525  0.9589371634598505  1.0000
  Nd  Nd2       1.0  0.7304560305202796  0.46233868531198397  0.041067446526618305  1.0000
  H   H1        1.0  0.43040900972613366  0.7692388859480487  0.7053413639550569  1.0000
  H   H2        1.0  0.5695859680480237  0.23075503103006412  0.29466507742387893  1.0000
  H   H3        1.0  0.6810858737382545  0.9224207343077424  0.32458347726445425  1.0000
  H   H4        1.0  0.31891770219925764  0.0775797998074523  0.6754262852409312  1.0000
  H   H5        1.0  0.6743006712007047  0.9620101910807795  0.6851882552848352  1.0000
  H   H6        1.0  0.32569590003170384  0.0379983090224485  0.3148182643251189  1.0000
  H   H7        1.0  0.27422270209981997  0.6175493320419391  0.3969883199170496  1.0000
  H   H8        1.0  0.7257776173101077  0.3824490403320766  0.6030180668550926  1.0000
  H   H9        1.0  0.6580321703091625  0.0011208891401040064  0.9504149282995795  1.0000
  H   H10       1.0  0.34196449099768245  0.9988798637033514  0.04958541529921944  1.0000
  H   H11       1.0  0.0946357330176184  0.0910204963271966  0.8400601762070181  1.0000
  H   H12       1.0  0.90535710236535  0.9089847422940734  0.15994188504745213  1.0000
  H   H13       1.0  0.7754890051469017  0.635728147668516  0.7889171158009914  1.0000
  H   H14       1.0  0.2244891713664217  0.3642673857261158  0.2110685144880975  1.0000
  H   H15       1.0  0.1400416074160944  0.28589294130402015  0.7356443250779989  1.0000
  H   H16       1.0  0.8599770351251336  0.7141054305959218  0.2643552100604438  1.0000
  H   H17       1.0  0.9277058809929812  0.4705075095587574  0.7893960899938861  1.0000
  H   H18       1.0  0.07230149988943423  0.5294886442857418  0.2106061674155129  1.0000
  H   H19       1.0  0.047100249679935785  0.6135024891196893  0.7681682546769935  1.0000
  H   H20       1.0  0.9529022329246216  0.38649048993904245  0.23182521863519406  1.0000
  H   H21       1.0  0.330270792845397  0.30334685949629403  0.796150477855292  1.0000
  H   H22       1.0  0.6697488592884326  0.6966534556536176  0.20386527773983695  1.0000
  H   H23       1.0  0.1201463442975737  0.8749877271753025  0.7328508340862853  1.0000
  H   H24       1.0  0.8798575161680302  0.12501614764108385  0.2671603308756686  1.0000
  H   H25       1.0  0.015075481155591309  0.21358332379289643  0.5016102045447041  1.0000
  H   H26       1.0  0.9849172315260971  0.7864164989636891  0.4983810398698054  1.0000
  C   C1        1.0  0.3997873454343618  0.6859536200675506  0.21794863135060888  1.0000
  C   C2        1.0  0.600217087424518  0.3140435921573826  0.7820582669996199  1.0000
  C   C3        1.0  0.47212057591058  0.7612363823290025  0.3477126593207842  1.0000
  C   C4        1.0  0.5278783982651447  0.23876425741184462  0.6522930286527071  1.0000
  C   C5        1.0  0.6229147300855613  0.8832093858355137  0.3883612155144576  1.0000
  C   C6        1.0  0.37708195819424617  0.11679123135591851  0.6116465690790278  1.0000
  C   C7        1.0  0.6951987050929205  0.9541674607445504  0.5096304403807252  1.0000
  C   C8        1.0  0.3047954815182408  0.045835480365013795  0.4903739732267666  1.0000
  C   C9        1.0  0.616970782593441  0.9040757006072724  0.591116070507411  1.0000
  C   C10       1.0  0.3830238893335574  0.09592831009817358  0.40889107927669943  1.0000
  C   C11       1.0  0.46449521435396685  0.7825304463808394  0.5498657677494165  1.0000
  C   C12       1.0  0.5355074956711902  0.21747345484195788  0.45014437857956574  1.0000
  C   C13       1.0  0.393041589122525  0.7113378027030633  0.4278487344999391  1.0000
  C   C14       1.0  0.606960159261952  0.28866391411062153  0.5721584198073728  1.0000
  C   C15       1.0  0.8534184216101649  0.0852967768403659  0.5532158551237956  1.0000
  C   C16       1.0  0.1465908732225359  0.9147171199610756  0.4467978042994432  1.0000
  C   C17       1.0  0.554431647750434  0.7030901377809259  0.8904791423124931  1.0000
  C   C18       1.0  0.44556528309952625  0.2969140311259508  0.10951846985692983  1.0000
  C   C19       1.0  0.702341153274716  0.807234198105597  0.8718391780685834  1.0000
  C   C20       1.0  0.2976523382418818  0.1927699897307207  0.12815868531068014  1.0000
  C   C21       1.0  0.7378373533360189  0.9599829071180185  0.9100320260264779  1.0000
  C   C22       1.0  0.2621607189634076  0.040021280599781106  0.08996412444435718  1.0000
  C   C23       1.0  0.8809274689608272  0.06162554068665574  0.9002462678850306  1.0000
  C   C24       1.0  0.11906641214328326  0.9383741652288365  0.09975095582557712  1.0000
  C   C25       1.0  0.983494792254241  0.010307732011092703  0.8470217708175907  1.0000
  C   C26       1.0  0.016503681620669473  0.9896919134960954  0.15297704709335136  1.0000
  C   C27       1.0  0.9411771847912856  0.8570512823403434  0.803248470088718  1.0000
  C   C28       1.0  0.05881228934477889  0.142946288240374  0.19674435925567477  1.0000
  C   C29       1.0  0.8031720155567825  0.7548371270257592  0.8181741473218905  1.0000
  C   C30       1.0  0.19681448058579318  0.24516165265986697  0.18181505519144983  1.0000
  C   C31       1.0  0.9202884538778519  0.22508532187740135  0.9481976588407761  1.0000
  C   C32       1.0  0.07970973846596516  0.774910967856151  0.05180058339077936  1.0000
  O   O1        1.0  0.25540545489435834  0.5829864111983484  0.17524737265055282  1.0000
  O   O2        1.0  0.7445982978549351  0.4170119723911156  0.8247571093573781  1.0000
  O   O3        1.0  0.4873714436443564  0.7251748368198677  0.1505438955403094  1.0000
  O   O4        1.0  0.5126370279141239  0.2748155582321487  0.8494659259830397  1.0000
  O   O5        1.0  0.37475291845478864  0.7273991772233688  0.6193085902215785  1.0000
  O   O6        1.0  0.6252459689835915  0.2725958657834228  0.38069620223820516  1.0000
  O   O7        1.0  0.9253123120469906  0.15660595036871436  0.657504715947894  1.0000
  O   O8        1.0  0.07468478362677904  0.8433961283022101  0.3424843086153331  1.0000
  O   O9        1.0  0.915485287508389  0.1222369291265579  0.4651538819860548  1.0000
  O   O10       1.0  0.08450965430182583  0.877757168720919  0.5348426380666353  1.0000
  O   O11       1.0  0.5661105335596658  0.5990938182672069  0.9388475627016604  1.0000
  O   O12       1.0  0.4338969998184794  0.4009136345525165  0.06115069829483844  1.0000
  O   O13       1.0  0.41796350794719933  0.7228642099401271  0.8602654898838223  1.0000
  O   O14       1.0  0.5820296063099732  0.27713107060584724  0.1397284219707871  1.0000
  O   O15       1.0  0.03170322113067677  0.7974472922918495  0.7458474643984232  1.0000
  O   O16       1.0  0.968292957857329  0.20255237588326486  0.2541509698009391  1.0000
  O   O17       1.0  0.04904413605014918  0.3182973240325921  0.9383900160424119  1.0000
  O   O18       1.0  0.95094964333164  0.6816968605110817  0.061602178268550835  1.0000
  O   O19       1.0  0.8207962472650224  0.25989954102725227  0.9962328582699485  1.0000
  O   O20       1.0  0.17920846712495833  0.740101026971324  0.0037746157596601207  1.0000
  O   O21       1.0  0.2543395446638995  0.3572557326293478  0.7787046886654067  1.0000
  O   O22       1.0  0.7456789480384957  0.6427446541443163  0.22130756796518375  1.0000
  O   O23       1.0  0.03862025266019492  0.5149926308456402  0.7792863490105972  1.0000
  O   O24       1.0  0.9613820441415937  0.48500254395617054  0.22070992446747786  1.0000
