data_image0
_chemical_formula_structural       Zn4H16C46S10N4O20
_chemical_formula_sum              "Zn4 H16 C46 S10 N4 O20"
_cell_length_a       11.410181775825807
_cell_length_b       12.69416193304986
_cell_length_c       23.76898047141605
_cell_angle_alpha    90.04300573808574
_cell_angle_beta     89.77132305349944
_cell_angle_gamma    90.32849423979549

_space_group_name_H-M_alt    "P 1"
_space_group_IT_number       1

loop_
  _space_group_symop_operation_xyz
  'x, y, z'

loop_
  _atom_site_type_symbol
  _atom_site_label
  _atom_site_symmetry_multiplicity
  _atom_site_fract_x
  _atom_site_fract_y
  _atom_site_fract_z
  _atom_site_occupancy
  Zn  Zn1       1.0  0.6191377148712721  0.5050983570201311  0.49933417940902564  1.0000
  Zn  Zn2       1.0  0.3760153781117667  0.5037363352364749  0.4960484095739233  1.0000
  Zn  Zn3       1.0  0.38093025109422035  0.5026972508405692  0.9645966415310027  1.0000
  Zn  Zn4       1.0  0.6237975244790803  0.5044771805056313  0.9606317574692511  1.0000
  H   H1        1.0  0.8258162974618701  0.4427605200163213  0.4228727714398701  1.0000
  H   H2        1.0  0.16760439165921787  0.5669951417939812  0.5774298627799652  1.0000
  H   H3        1.0  0.6824165883920303  0.14870382624528838  0.5061922270183885  1.0000
  H   H4        1.0  0.3118816132908719  0.8595261579092082  0.4991628177735166  1.0000
  H   H5        1.0  0.626781153764867  0.35634211362511076  0.8361638825391111  1.0000
  H   H6        1.0  0.743880674579309  0.22553729110608595  0.7845245417939495  1.0000
  H   H7        1.0  0.6300585058116115  0.3530042848495753  0.6261323337936275  1.0000
  H   H8        1.0  0.7463510966534062  0.22429557459249586  0.6794303668389006  1.0000
  H   H9        1.0  0.32924512813130496  0.5264211667075143  0.30753700140217427  1.0000
  H   H10       1.0  0.6873114561946636  0.4511640725600471  0.152021623640529  1.0000
  H   H11       1.0  0.1676634179708216  0.4179906333509891  0.0344850256624909  1.0000
  H   H12       1.0  0.838201100621447  0.5873948811099367  0.8877591027928844  1.0000
  H   H13       1.0  0.32336209011468503  0.14445263822136664  0.9600541288338604  1.0000
  H   H14       1.0  0.696456309410543  0.8616195626322207  0.9609974133437688  1.0000
  H   H15       1.0  0.4534318870648735  0.7262967150773958  0.6476882649273676  1.0000
  H   H16       1.0  0.4833149932985208  0.7108660985954813  0.8210971296771276  1.0000
  C   C1        1.0  0.4966231019621788  0.7084318313736377  0.4973634497378471  1.0000
  C   C2        1.0  0.4915445177175571  0.5064645550466054  0.6078286384221201  1.0000
  C   C3        1.0  0.4966678500044708  0.2997775284795168  0.5020643234346096  1.0000
  C   C4        1.0  0.5088594780860448  0.4949421583339982  0.3880443879074845  1.0000
  C   C5        1.0  0.511134787761506  0.7077818963647642  0.9660085200911012  1.0000
  C   C6        1.0  0.49308915582036417  0.5134579085496468  0.852488661697663  1.0000
  C   C7        1.0  0.5055790365168207  0.2989708527421228  0.9552776383290366  1.0000
  C   C8        1.0  0.5027166490578524  0.48840657084656397  0.072009050728191  1.0000
  C   C9        1.0  0.8674834842308528  0.4722368256967541  0.4609812007791945  1.0000
  C   C10       1.0  0.1278196227940498  0.5365343363995336  0.5388657460447206  1.0000
  C   C11       1.0  0.006914862327995799  0.525528431124762  0.526882935073246  1.0000
  C   C12       1.0  0.9882265554774536  0.48265892455781767  0.47279323996791334  1.0000
  C   C13       1.0  0.5932241576345093  0.11829442374052229  0.5045460992405921  1.0000
  C   C14       1.0  0.4010897532369598  0.8899698638341818  0.49996752495551533  1.0000
  C   C15       1.0  0.4968264566087441  0.18374790897372864  0.5029798197611655  1.0000
  C   C16       1.0  0.49745929835484765  0.824441957636111  0.4996283401394592  1.0000
  C   C17       1.0  0.4357761253298238  0.9968722220779894  0.5011893386961148  1.0000
  C   C18       1.0  0.5586978556968206  0.011328056161303795  0.5029327134312638  1.0000
  C   C19       1.0  0.489906248319251  0.5086827002926455  0.7892288849060093  1.0000
  C   C20       1.0  0.5602496963129441  0.4326131533197852  0.7608102263257024  1.0000
  C   C21       1.0  0.4147754347654244  0.5742353409205733  0.7596884351285311  1.0000
  C   C22       1.0  0.6277027341526279  0.35686272908380795  0.7903314331909002  1.0000
  C   C23       1.0  0.6933236827166597  0.28373732891190423  0.7613418962969191  1.0000
  C   C24       1.0  0.4871644864562229  0.5029235502283882  0.6710482851091086  1.0000
  C   C25       1.0  0.410743200447854  0.568903065161706  0.6998198820668406  1.0000
  C   C26       1.0  0.5606708719360612  0.4311871553876188  0.700502944840551  1.0000
  C   C27       1.0  0.6298529513057076  0.3549900762030518  0.6719562911284243  1.0000
  C   C28       1.0  0.6946084132904461  0.2829814808890774  0.7018733780404247  1.0000
  C   C29       1.0  0.4157146175870566  0.5078230728617399  0.29111277793303  1.0000
  C   C30       1.0  0.6005068213483682  0.4681593347949187  0.1685872616943129  1.0000
  C   C31       1.0  0.5102755378011636  0.4908477296803326  0.3260419317589438  1.0000
  C   C32       1.0  0.5056225080893669  0.48628161417198595  0.1339555713563669  1.0000
  C   C33       1.0  0.5680814220303391  0.4754008054051793  0.22589754760795702  1.0000
  C   C34       1.0  0.4482651674052961  0.4990831593816197  0.23400476008815468  1.0000
  C   C35       1.0  0.12956726738314472  0.459353174892847  0.9989056596593145  1.0000
  C   C36       1.0  0.8761680176521128  0.5455886063256159  0.923227863721003  1.0000
  C   C37       1.0  0.996131402125137  0.5319485483271009  0.9360104552364135  1.0000
  C   C38       1.0  0.0099587794312157  0.4724058820093191  0.9857487413729089  1.0000
  C   C39       1.0  0.41282286922819383  0.11561016706367158  0.9586181793589788  1.0000
  C   C40       1.0  0.6069851911378095  0.8906133339304247  0.9607081790859268  1.0000
  C   C41       1.0  0.5082539088017485  0.18293238093669828  0.9556811696745839  1.0000
  C   C42       1.0  0.5108583810957441  0.8237561568576978  0.9633475850397487  1.0000
  C   C43       1.0  0.5715803798672924  0.9969239351883273  0.9580528480156545  1.0000
  C   C44       1.0  0.44848433444325053  0.009325638621561399  0.9595301276318579  1.0000
  C   C45       1.0  0.32437459227363524  0.6337878959498581  0.6666990901167154  1.0000
  C   C46       1.0  0.3395305043104173  0.6520635490675771  0.7909897259787186  1.0000
  S   S1        1.0  0.8743641625150574  0.5484312279501536  0.5585342726585409  1.0000
  S   S2        1.0  0.12070854632769111  0.4594239107568752  0.44129984034427133  1.0000
  S   S3        1.0  0.364078643924401  0.11600593619531446  0.5000564131885312  1.0000
  S   S4        1.0  0.6305043162781417  0.8921140497287607  0.501469147984146  1.0000
  S   S5        1.0  0.639304407671446  0.4641684799205166  0.289570812803376  1.0000
  S   S6        1.0  0.3767559136215866  0.5119444552031209  0.1707093523838381  1.0000
  S   S7        1.0  0.13107463401815522  0.5656700515958659  0.9095548688343627  1.0000
  S   S8        1.0  0.8749863625521999  0.4387468658933358  0.012103562175902001  1.0000
  S   S9        1.0  0.6419626738008405  0.1175016516047691  0.9539534931405383  1.0000
  S   S10       1.0  0.3775840472341373  0.8892861133462587  0.9625844998858  1.0000
  N   N1        1.0  0.7995750940083539  0.5045197100073012  0.5029867849692805  1.0000
  N   N2        1.0  0.19551521032020255  0.5042345565911217  0.4967468657270615  1.0000
  N   N3        1.0  0.20066654536018555  0.5052184352353634  0.9618785745195381  1.0000
  N   N4        1.0  0.804785238209526  0.5002156213648802  0.9602748250324069  1.0000
  O   O1        1.0  0.5956273795682847  0.6633639102523358  0.4904553825267755  1.0000
  O   O2        1.0  0.3974961554279234  0.662814538834553  0.5026606414883048  1.0000
  O   O3        1.0  0.3956116423028462  0.4907168933684716  0.5823227384702392  1.0000
  O   O4        1.0  0.5908140214720704  0.5263569100329093  0.5856204983099076  1.0000
  O   O5        1.0  0.39916784736102073  0.3438806129096505  0.4911458837152836  1.0000
  O   O6        1.0  0.5937518012284358  0.3466750017027635  0.5121306336729248  1.0000
  O   O7        1.0  0.6061712825629828  0.4808644508978047  0.41344246783584987  1.0000
  O   O8        1.0  0.4098861496334792  0.512729107777531  0.4111369741052258  1.0000
  O   O9        1.0  0.41184502752403784  0.6617004301406696  0.9617080653513596  1.0000
  O   O10       1.0  0.6102275903314407  0.6629693887740656  0.9719892557199544  1.0000
  O   O11       1.0  0.5917385515578601  0.5330990804965194  0.8751279124675406  1.0000
  O   O12       1.0  0.396536662457919  0.4969034003246122  0.8777048723040864  1.0000
  O   O13       1.0  0.6026448928382351  0.34673226018747977  0.9451307094518526  1.0000
  O   O14       1.0  0.4074135114439558  0.3424071348481376  0.9653322132623644  1.0000
  O   O15       1.0  0.4022601533000128  0.5037075567949643  0.04985813619958179  1.0000
  O   O16       1.0  0.599232212627072  0.4758116222578081  0.0455977602286168  1.0000
  O   O17       1.0  0.36895753329635994  0.7217216060325028  0.6413198865757721  1.0000
  O   O18       1.0  0.22138494085470484  0.6113892787462303  0.6614385262043001  1.0000
  O   O19       1.0  0.39901153768210673  0.7239226860298941  0.8231119491584309  1.0000
  O   O20       1.0  0.23337219514736063  0.6552809468338907  0.7884810452170469  1.0000
