data_image0
_chemical_formula_structural       H28Au4C24N4Cl4
_chemical_formula_sum              "H28 Au4 C24 N4 Cl4"
_cell_length_a       8.231569656177072
_cell_length_b       8.231579708187192
_cell_length_c       12.329454515692522
_cell_angle_alpha    92.74028152799613
_cell_angle_beta     92.74049150402233
_cell_angle_gamma    118.29728702508977

_space_group_name_H-M_alt    "P 1"
_space_group_IT_number       1

loop_
  _space_group_symop_operation_xyz
  'x, y, z'

loop_
  _atom_site_type_symbol
  _atom_site_label
  _atom_site_symmetry_multiplicity
  _atom_site_fract_x
  _atom_site_fract_y
  _atom_site_fract_z
  _atom_site_occupancy
  H   H1        1.0  0.9347313090548183  0.2899192192483114  0.4037144523718155  1.0000
  H   H2        1.0  0.7100790543864902  0.0652704650024845  0.0962852829139962  1.0000
  H   H3        1.0  0.06526837646913478  0.7100773491168372  0.5962842800666551  1.0000
  H   H4        1.0  0.2899208255720681  0.9347316353982864  0.9037144350680394  1.0000
  H   H5        1.0  0.5114521237672633  0.3297965265978107  0.5790013264246882  1.0000
  H   H6        1.0  0.6702018956784527  0.4885531727954986  0.9210009898017405  1.0000
  H   H7        1.0  0.4885512375536933  0.6702000764368706  0.42100076335911046  1.0000
  H   H8        1.0  0.32979742743618357  0.5114503120140698  0.07899956446653532  1.0000
  H   H9        1.0  0.5097230683978893  0.09127958381481702  0.6945016887913199  1.0000
  H   H10       1.0  0.9087203171598688  0.4902828561984266  0.8054993557884346  1.0000
  H   H11       1.0  0.4902815959771019  0.9087197773709478  0.30549890258151186  1.0000
  H   H12       1.0  0.09127966255020686  0.5097220127536134  0.1945012606564021  1.0000
  H   H13       1.0  0.7188232830195886  0.9528804966322468  0.656114660547587  1.0000
  H   H14       1.0  0.04711689536988224  0.2811800114559447  0.8438854384849321  1.0000
  H   H15       1.0  0.2811788445883323  0.04711608640103291  0.3438849578176857  1.0000
  H   H16       1.0  0.9528817660809068  0.7188220841442218  0.15611424222473153  1.0000
  H   H17       1.0  0.5929966440751284  0.4230354131695365  0.3602595075533159  1.0000
  H   H18       1.0  0.5769640453880456  0.40700309310895494  0.13974124975883484  1.0000
  H   H19       1.0  0.40700070925320386  0.5769639192126165  0.6397408601852704  1.0000
  H   H20       1.0  0.4230351830435027  0.5929976282162743  0.8602592174286914  1.0000
  H   H21       1.0  0.833628010756577  0.5052262462059005  0.3486278320626539  1.0000
  H   H22       1.0  0.49477499822141613  0.1663724421144793  0.15137157089888834  1.0000
  H   H23       1.0  0.16637055094269468  0.4947730808429895  0.6513709501842017  1.0000
  H   H24       1.0  0.5052248817371494  0.8336296582862847  0.8486281470831473  1.0000
  H   H25       1.0  0.7576094211419999  0.6003580407862968  0.45472420893538174  1.0000
  H   H26       1.0  0.3996426910551706  0.24239182663739467  0.04527661782748991  1.0000
  H   H27       1.0  0.24238915576253106  0.3996413014633902  0.5452770074576281  1.0000
  H   H28       1.0  0.6003571939718171  0.757610278830306  0.954723911536597  1.0000
  Au  Au1       1.0  1.2914605218389674e-07  0.9999993142108183  0.4999997482755917  1.0000
  Au  Au2       1.0  0.0  0.0  0.0  1.0000
  Au  Au3       1.0  0.9563960103324759  0.04360341456069961  0.24999920033592105  1.0000
  Au  Au4       1.0  0.04360508813386602  0.9563986906406684  0.7500005549184863  1.0000
  C   C1        1.0  0.8364858226730902  0.24912988494011765  0.4662977767265205  1.0000
  C   C2        1.0  0.7508690848854866  0.16351753324288862  0.0337019584931539  1.0000
  C   C3        1.0  0.16351386791928482  0.7508666884919604  0.5337017670940085  1.0000
  C   C4        1.0  0.24913023822915653  0.8364859515666794  0.966298595775122  1.0000
  C   C5        1.0  0.7219742442482157  0.3291635587254689  0.47982542022760555  1.0000
  C   C6        1.0  0.6708336952168352  0.27802654723887343  0.020175571492941906  1.0000
  C   C7        1.0  0.2780254463441595  0.6708330147066095  0.5201741235929163  1.0000
  C   C8        1.0  0.32916430963851445  0.7219741642188213  0.9798240470401538  1.0000
  C   C9        1.0  0.6025662719909449  0.2705778062077188  0.5638490679290911  1.0000
  C   C10       1.0  0.7294212681358516  0.39743611499961423  0.9361525502194965  1.0000
  C   C11       1.0  0.3974359604369156  0.7294215504437745  0.4361522602810481  1.0000
  C   C12       1.0  0.2705786168911289  0.6025659904680867  0.06384797914459031  1.0000
  C   C13       1.0  0.6009575047812632  0.13625855678240134  0.6286229783328353  1.0000
  C   C14       1.0  0.8637410251711373  0.39904511790106767  0.8713772007828737  1.0000
  C   C15       1.0  0.399044722578175  0.8637407948021548  0.3713775384952456  1.0000
  C   C16       1.0  0.1362595164512755  0.6009583717091047  0.12862339075778104  1.0000
  C   C17       1.0  0.7164799887930612  0.06026976689893362  0.6087867406555176  1.0000
  C   C18       1.0  0.9397285420457065  0.2835242088645842  0.8912128681509871  1.0000
  C   C19       1.0  0.2835221388148669  0.9397268161343535  0.39121287770976215  1.0000
  C   C20       1.0  0.06027199450829112  0.7164792756786584  0.1087869120076164  1.0000
  C   C21       1.0  0.7273978837857272  0.4715053083851972  0.406749093829582  1.0000
  C   C22       1.0  0.5284937534091796  0.2726032633810221  0.09325179825585653  1.0000
  C   C23       1.0  0.2726005984357087  0.5284912703801511  0.5932520354826708  1.0000
  C   C24       1.0  0.471506131617801  0.7273988420866788  0.9067487311082305  1.0000
  N   N1        1.0  0.8330775257667682  0.11664646608264212  0.5286184832932579  1.0000
  N   N2        1.0  0.8833511371258708  0.1669237359295295  0.9713802763023622  1.0000
  N   N3        1.0  0.16692402979197868  0.8833514861586454  0.4713795372121012  1.0000
  N   N4        1.0  0.11664752939333323  0.8330783647375741  0.028620215789352713  1.0000
  Cl  Cl1       1.0  0.6843000612599895  0.7740784672568213  0.2088228183871479  1.0000
  Cl  Cl2       1.0  0.22592314884751363  0.3157012170301954  0.2911761154054063  1.0000
  Cl  Cl3       1.0  0.31570159911868956  0.2259222586026794  0.7911769119630706  1.0000
  Cl  Cl4       1.0  0.7740772879549668  0.684299498961771  0.708822766290389  1.0000
