data_image0
_chemical_formula_structural       Al4H27C60N5Cl4O30
_chemical_formula_sum              "Al4 H27 C60 N5 Cl4 O30"
_cell_length_a       6.707914438506219
_cell_length_b       17.477317753022845
_cell_length_c       19.160588697436697
_cell_angle_alpha    70.72127818351963
_cell_angle_beta     88.46194196228203
_cell_angle_gamma    91.25399884800315

_space_group_name_H-M_alt    "P 1"
_space_group_IT_number       1

loop_
  _space_group_symop_operation_xyz
  'x, y, z'

loop_
  _atom_site_type_symbol
  _atom_site_label
  _atom_site_symmetry_multiplicity
  _atom_site_fract_x
  _atom_site_fract_y
  _atom_site_fract_z
  _atom_site_occupancy
  Al  Al1       1.0  0.903644232997138  0.4986332445829689  0.4995002667192525  1.0000
  Al  Al2       1.0  0.4054075652744445  0.5021199517991377  0.49690302170227346  1.0000
  Al  Al3       1.0  0.31021494243849895  0.0019379803827490995  0.002293531089911501  1.0000
  Al  Al4       1.0  0.8109634416841018  0.9955802974546304  0.9976786986880697  1.0000
  H   H1        1.0  0.8723207863028507  0.6352719717627056  0.7809579419056191  1.0000
  H   H2        1.0  0.8860687080981793  0.5646560220711693  0.6885319611243474  1.0000
  H   H3        1.0  0.37324078873673033  0.7890624342743353  0.6653860377992942  1.0000
  H   H4        1.0  0.4291979004535875  0.789901476363802  0.7802461865673181  1.0000
  H   H5        1.0  0.7718575587284207  0.8320524721664314  0.8828625160446678  1.0000
  H   H6        1.0  0.7909241973529363  0.7472326095871156  0.8009778769464049  1.0000
  H   H7        1.0  0.5061788718420104  0.6981309150464767  0.05884450118801964  1.0000
  H   H8        1.0  0.7676200340574156  0.8190857557775074  0.43986022848068274  1.0000
  H   H9        1.0  0.02440577752005881  0.7211991797790989  0.43537150388178236  1.0000
  H   H10       1.0  0.4270968392989687  0.5821637808378527  0.2937110524381978  1.0000
  H   H11       1.0  0.2557783222046126  0.7981711351581569  0.06074863779821265  1.0000
  H   H12       1.0  0.026462535987704396  0.444300903660455  0.8063949661718652  1.0000
  H   H13       1.0  0.42998068908575265  0.2930776379322992  0.5682167054862788  1.0000
  H   H14       1.0  0.23075505652386144  0.17205582935167033  0.5721445788880929  1.0000
  H   H15       1.0  0.18424531955753312  0.05564803247115442  0.6905541145917198  1.0000
  H   H16       1.0  0.3443126837779928  0.060083382978263024  0.8029473279015776  1.0000
  H   H17       1.0  0.7931372403119569  0.20599524888547904  0.9280950458976919  1.0000
  H   H18       1.0  0.8567317797021374  0.44028484910026583  0.693844876181565  1.0000
  H   H19       1.0  0.31185377550448123  0.25102288430382913  0.317028702813829  1.0000
  H   H20       1.0  0.35182258410325323  0.3322319344522456  0.40030915171993087  1.0000
  H   H21       1.0  0.9174570573913742  0.3187394390913951  0.23457269595460428  1.0000
  H   H22       1.0  0.867921552294469  0.16724981301436512  0.2612531470070252  1.0000
  H   H23       1.0  0.32071207248972666  0.19200321786123453  0.08739936268620603  1.0000
  H   H24       1.0  0.6676646877920052  0.6077162656699002  0.4630678363079568  1.0000
  H   H25       1.0  0.15074399026902094  0.3953595549372225  0.5120457244993588  1.0000
  H   H26       1.0  0.5471591697334546  0.900611698183255  0.9937174328541332  1.0000
  H   H27       1.0  0.05261974014545251  0.0888587475090077  0.017892318388931013  1.0000
  C   C1        1.0  0.6336901766189841  0.3885759715892335  0.6130921406959686  1.0000
  C   C2        1.0  0.6596066385638651  0.41819833463787864  0.4179942203875838  1.0000
  C   C3        1.0  0.17004171255921113  0.6160865063233345  0.384814639457261  1.0000
  C   C4        1.0  0.14729248101253492  0.5813594582262737  0.5786976708759823  1.0000
  C   C5        1.0  0.985682583473647  0.6535394050090344  0.7362517681550571  1.0000
  C   C6        1.0  0.9958497536578648  0.6125426451778183  0.6855147601929018  1.0000
  C   C7        1.0  0.145830332608277  0.6306101822358698  0.6293873137307531  1.0000
  C   C8        1.0  0.2842720225709244  0.6942186603999546  0.6241308562517247  1.0000
  C   C9        1.0  0.27053819226023995  0.7374115297721461  0.6736287358852878  1.0000
  C   C10       1.0  0.12319749605558883  0.7173565308474752  0.7305847171081439  1.0000
  C   C11       1.0  0.2817861369787807  0.7995561350327023  0.8005235558102157  1.0000
  C   C12       1.0  0.26380048283538576  0.8449500365999755  0.8474256199142971  1.0000
  C   C13       1.0  0.08084143687504759  0.8612724763132962  0.8752629416780097  1.0000
  C   C14       1.0  0.9127238014587392  0.8234306397003551  0.8580741323003095  1.0000
  C   C15       1.0  0.9259983361785019  0.775444193877526  0.8132343119046297  1.0000
  C   C16       1.0  0.11011731255177182  0.7643591159108285  0.781715974765277  1.0000
  C   C17       1.0  0.7637964898218429  0.8449586854996342  0.2553135948746644  1.0000
  C   C18       1.0  0.7083071797642404  0.8507857148941582  0.32351271282636423  1.0000
  C   C19       1.0  0.8103876252086551  0.8094067258003008  0.38832532721882274  1.0000
  C   C20       1.0  0.9520363787349313  0.75580214430898  0.38512408953535265  1.0000
  C   C21       1.0  0.014387098941291802  0.7466425710258947  0.3163120902087329  1.0000
  C   C22       1.0  0.9423125749704583  0.8018286932611788  0.2480585657133361  1.0000
  C   C23       1.0  0.15012074997910219  0.6864966101276694  0.31474863256280367  1.0000
  C   C24       1.0  0.24184584223871752  0.6872445153884928  0.247364392375168  1.0000
  C   C25       1.0  0.19499336424325972  0.7509282641577997  0.18017857862944456  1.0000
  C   C26       1.0  0.04992700650403489  0.8083900506346353  0.18130805458458357  1.0000
  C   C27       1.0  0.385734190388618  0.6297555674946552  0.24388440740160897  1.0000
  C   C28       1.0  0.4788639777543864  0.6366677148539  0.17736492251283656  1.0000
  C   C29       1.0  0.43174972084550234  0.696871512897289  0.11034514934539888  1.0000
  C   C30       1.0  0.2928903256983872  0.7523537493259198  0.11244040851573094  1.0000
  C   C31       1.0  0.4102888688477152  0.24285914323511545  0.6200151267672355  1.0000
  C   C32       1.0  0.2991565776422576  0.17516698746614173  0.622197793939101  1.0000
  C   C33       1.0  0.27395024000602325  0.10895017575195713  0.6891926555969121  1.0000
  C   C34       1.0  0.3633450507663625  0.11119376427802047  0.7520852653418544  1.0000
  C   C35       1.0  0.4822403369808868  0.18000739299405671  0.7522834401258792  1.0000
  C   C36       1.0  0.5031338764183887  0.24842263216932292  0.6845143995947751  1.0000
  C   C37       1.0  0.5842058025301641  0.18240905664166726  0.8151804539345733  1.0000
  C   C38       1.0  0.7028073941434274  0.2511897066730811  0.8130216926180367  1.0000
  C   C39       1.0  0.7210032951266286  0.320038317466711  0.745606337440705  1.0000
  C   C40       1.0  0.6196661199606269  0.31727181788976816  0.6830472583712606  1.0000
  C   C41       1.0  0.8021495333745605  0.25603279351022223  0.8762616943014265  1.0000
  C   C42       1.0  0.9140755638530892  0.32399763929667813  0.8722904180692268  1.0000
  C   C43       1.0  0.9350296458214019  0.3920218394845207  0.8066512745018956  1.0000
  C   C44       1.0  0.8396322422605567  0.38935226578202997  0.7451606897629118  1.0000
  C   C45       1.0  0.453217759331487  0.28271814157407243  0.3172842243018295  1.0000
  C   C46       1.0  0.47604434341349844  0.32754569318503723  0.36442028880951227  1.0000
  C   C47       1.0  0.6550214308395681  0.3698685380098254  0.36679056612023697  1.0000
  C   C48       1.0  0.815282110255268  0.36499119730831353  0.3193681038888343  1.0000
  C   C49       1.0  0.7931261877454434  0.31977822984641346  0.2719370780414465  1.0000
  C   C50       1.0  0.613075818880077  0.2785664115490577  0.27003925713184174  1.0000
  C   C51       1.0  0.7484095488939674  0.1740485433165589  0.2224389966649198  1.0000
  C   C52       1.0  0.7457213166663693  0.12711386697348107  0.1765767840696171  1.0000
  C   C53       1.0  0.5901307313502785  0.13065167431253846  0.128179104297871  1.0000
  C   C54       1.0  0.4416772220293766  0.18661974937955253  0.1252756949702345  1.0000
  C   C55       1.0  0.44754886857025167  0.23615599044691044  0.1692559925549446  1.0000
  C   C56       1.0  0.5995001431026028  0.22978211171061966  0.22014530098562088  1.0000
  C   C57       1.0  0.5758761722208235  0.0783384586377451  0.08061658197593859  1.0000
  C   C58       1.0  0.5699432070717168  0.11137999525158901  0.8855369446164759  1.0000
  C   C59       1.0  0.06198726728577952  0.916430864031675  0.92025371877115  1.0000
  C   C60       1.0  0.04978006523787569  0.8820103626177128  0.11157298981686382  1.0000
  N   N1        1.0  0.5312379455514815  0.8945988631862962  0.334156829439486  1.0000
  N   N2        1.0  0.6354713620117992  0.5794387574500421  0.17573887729571416  1.0000
  N   N3        1.0  0.017487677259595106  0.3254578509241597  0.9386256347158338  1.0000
  N   N4        1.0  0.9185529840045703  0.0742815218647763  0.183276046867114  1.0000
  N   N5        1.0  0.44972723725737046  0.8726786159239454  0.870917470928532  1.0000
  Cl  Cl1       1.0  0.5995527817623555  0.8729210906026312  0.1856702423897118  1.0000
  Cl  Cl2       1.0  0.04178739893824001  0.4158048413106671  0.3130344869819339  1.0000
  Cl  Cl3       1.0  0.4656747079179128  0.726938625403733  0.5542846779830342  1.0000
  Cl  Cl4       1.0  0.2677250148077448  0.30834739382143544  0.15704904606315748  1.0000
  O   O1        1.0  0.4898476724285531  0.4341716888779601  0.4413564536019052  1.0000
  O   O2        1.0  0.8067417389204438  0.4101764726465619  0.5832458699603151  1.0000
  O   O3        1.0  0.9771786189109338  0.5554319698976401  0.5663972693223374  1.0000
  O   O4        1.0  0.8278836728212583  0.43867506718247296  0.43639502277607517  1.0000
  O   O5        1.0  0.003158054355992598  0.5879992716727428  0.41734537531785787  1.0000
  O   O6        1.0  0.47109033675850753  0.4211202566722321  0.58856655848885  1.0000
  O   O7        1.0  0.6588713104118684  0.549661044210801  0.48854612386341495  1.0000
  O   O8        1.0  0.34027851514191104  0.5887420146957113  0.40608007732218016  1.0000
  O   O9        1.0  0.31445960004401746  0.5689464987653708  0.5525559805593474  1.0000
  O   O10       1.0  0.1530735306165028  0.4524647694394588  0.506536290925432  1.0000
  O   O11       1.0  0.7341389378866411  0.0852417581529252  0.9147501878482203  1.0000
  O   O12       1.0  0.40703974124537723  0.06996606422048053  0.0549414391051783  1.0000
  O   O13       1.0  0.21818479874805516  0.9200168750679583  0.0952502289852362  1.0000
  O   O14       1.0  0.3961266063239677  0.0842599128097277  0.9110138557949697  1.0000
  O   O15       1.0  0.22235688707829837  0.9347386276653824  0.946025741173152  1.0000
  O   O16       1.0  0.7361687118119351  0.046726390789743305  0.0681432099678148  1.0000
  O   O17       1.0  0.5535120549411445  0.9491477614821165  0.008100590078512892  1.0000
  O   O18       1.0  0.8900884844288159  0.9409419145176373  0.9293064876645547  1.0000
  O   O19       1.0  0.8953205059968499  0.8988209312544982  0.07370173917403379  1.0000
  O   O20       1.0  0.06070703268893139  0.04777884976956411  0.9938228528120376  1.0000
  O   O21       1.0  0.43636348762390753  0.864505740965541  0.3942838716607824  1.0000
  O   O22       1.0  0.48900107410556615  0.9580627291691712  0.2854471090854531  1.0000
  O   O23       1.0  0.7115397790070548  0.5844275210809045  0.11452557653114336  1.0000
  O   O24       1.0  0.6835061233928956  0.5301327012088138  0.23553256215839005  1.0000
  O   O25       1.0  0.11119255489859373  0.38887581691832207  0.9348973567687723  1.0000
  O   O26       1.0  0.006845574686892107  0.26344395799775105  0.9943945920340269  1.0000
  O   O27       1.0  0.0517776744305039  0.09693484653652722  0.1344861443799417  1.0000
  O   O28       1.0  0.9241852573369587  0.014053250744176201  0.23953282051744654  1.0000
  O   O29       1.0  0.5074913253706441  0.8293163252385297  0.9322868372922812  1.0000
  O   O30       1.0  0.5400062143155752  0.9326152863984023  0.8281853402771162  1.0000
