data_image0
_chemical_formula_structural       Cu2H34C36N4O14
_chemical_formula_sum              "Cu2 H34 C36 N4 O14"
_cell_length_a       7.497117146589223
_cell_length_b       9.67750027603755
_cell_length_c       13.281636019720255
_cell_angle_alpha    69.13667929216656
_cell_angle_beta     89.46759219011325
_cell_angle_gamma    73.64865414154339

_space_group_name_H-M_alt    "P 1"
_space_group_IT_number       1

loop_
  _space_group_symop_operation_xyz
  'x, y, z'

loop_
  _atom_site_type_symbol
  _atom_site_label
  _atom_site_symmetry_multiplicity
  _atom_site_fract_x
  _atom_site_fract_y
  _atom_site_fract_z
  _atom_site_occupancy
  Cu  Cu1       1.0  0.7373279265504209  0.8392116135317664  0.8177478163210525  1.0000
  Cu  Cu2       1.0  0.26266874470670837  0.1607907524135399  0.18225174725139232  1.0000
  H   H1        1.0  0.5344872806673635  0.83407686860928  0.02836935945270368  1.0000
  H   H2        1.0  0.4655089314480705  0.16592317127519612  0.9716345766763226  1.0000
  H   H3        1.0  0.5047529456243751  0.6181851905470804  0.19531015244169234  1.0000
  H   H4        1.0  0.49525078344697687  0.3818125443625462  0.8046958280591667  1.0000
  H   H5        1.0  0.6427536536983779  0.3445265771355039  0.210842772378669  1.0000
  H   H6        1.0  0.35724970985430815  0.6554757979852325  0.7891597468931837  1.0000
  H   H7        1.0  0.823131217656389  0.15644329834488963  0.12053826496820365  1.0000
  H   H8        1.0  0.17686363357653076  0.8435567438380147  0.8794626697546735  1.0000
  H   H9        1.0  0.9830282766727547  0.12094990788013149  0.9632994677887299  1.0000
  H   H10       1.0  0.016970167797069342  0.8790512986915999  0.03670264152608378  1.0000
  H   H11       1.0  0.0889756055387636  0.24061066943160359  0.7759995471884625  1.0000
  H   H12       1.0  0.9110223587674257  0.7593882149544695  0.22400467505829627  1.0000
  H   H13       1.0  0.1026262013142087  0.4834932991860938  0.6264981622616973  1.0000
  H   H14       1.0  0.8973760990411819  0.5165009587611779  0.3735064741011628  1.0000
  H   H15       1.0  0.9575682760042314  0.7399977149816337  0.6433788401280653  1.0000
  H   H16       1.0  0.042434483492854676  0.2599988690264681  0.35662142367822014  1.0000
  H   H17       1.0  0.15735378655912782  0.915242798918754  0.6041854068366704  1.0000
  H   H18       1.0  0.84264603757547  0.084761893657415  0.3958127741586708  1.0000
  H   H19       1.0  0.24631440114701056  0.06236847916986929  0.5211416668639118  1.0000
  H   H20       1.0  0.7536863505179738  0.9376373720581835  0.47885771157673684  1.0000
  H   H21       1.0  0.024594060607533677  0.2508305841315064  0.5979659984227652  1.0000
  H   H22       1.0  0.9754066232239963  0.7491717878357561  0.4020350372860407  1.0000
  H   H23       1.0  0.9142336346560211  0.1852562225349104  0.515578653705127  1.0000
  H   H24       1.0  0.08577152089161198  0.8147484815151242  0.48441948158346565  1.0000
  H   H25       1.0  0.47254914640674867  0.03973786366464789  0.8207243204415422  1.0000
  H   H26       1.0  0.5274510152172665  0.9602621938673082  0.1792743089499496  1.0000
  H   H27       1.0  0.6564725231750614  0.1029351161264742  0.7993048368309064  1.0000
  H   H28       1.0  0.34352413406744375  0.8970672524022872  0.20069322032512102  1.0000
  H   H29       1.0  0.7011194680358556  0.48105176168812835  0.5396290643267109  1.0000
  H   H30       1.0  0.2988867467915455  0.5189425203652506  0.4603664992575673  1.0000
  H   H31       1.0  0.5739042852356989  0.6260987731945704  0.41914136950525466  1.0000
  H   H32       1.0  0.42610152426883013  0.37389666464222415  0.5808554029510163  1.0000
  H   H33       1.0  0.5267024370493445  0.8109226509538486  0.6126423156156876  1.0000
  H   H34       1.0  0.4733019717684712  0.18906930475367997  0.3873561255354333  1.0000
  C   C1        1.0  0.5934204276132178  0.7133633684833923  0.03678399296032356  1.0000
  C   C2        1.0  0.40657669101066307  0.2866378339281468  0.9632188809893878  1.0000
  C   C3        1.0  0.5772179784082994  0.591424408409118  0.13001795895520027  1.0000
  C   C4        1.0  0.42278273345248607  0.4085779583912412  0.8699860895864477  1.0000
  C   C5        1.0  0.653638121896712  0.43932451326535477  0.13826652185678515  1.0000
  C   C6        1.0  0.3463629882796297  0.560676699043313  0.8617355646046578  1.0000
  C   C7        1.0  0.7479886031604083  0.40847922519599666  0.05246924767131135  1.0000
  C   C8        1.0  0.25200674925808647  0.5915231352973862  0.9475318337442433  1.0000
  C   C9        1.0  0.8321708273288592  0.25637652684093126  0.051190511915827096  1.0000
  C   C10       1.0  0.16782186639043312  0.7436258266237984  0.9488113455613105  1.0000
  C   C11       1.0  0.9198174895509154  0.23662779731045447  0.9641344574029633  1.0000
  C   C12       1.0  0.08017562350586616  0.7633733977874045  0.03586769761859898  1.0000
  C   C13       1.0  0.9326521857850947  0.36604216369752857  0.8719047249704632  1.0000
  C   C14       1.0  0.0673431806480308  0.6339601942124063  0.12809786286150876  1.0000
  C   C15       1.0  0.02259015923372941  0.35415460903376317  0.7800043826982163  1.0000
  C   C16       1.0  0.9774064722192007  0.6458442724838491  0.2199998509752348  1.0000
  C   C17       1.0  0.02963256742074092  0.48774452967955273  0.6969973144209405  1.0000
  C   C18       1.0  0.9703728928194266  0.5122520536068507  0.30300669257302093  1.0000
  C   C19       1.0  0.9495473062068313  0.6327425648124532  0.7051832105542105  1.0000
  C   C20       1.0  0.05045638782795691  0.36725517655580125  0.2948190039055874  1.0000
  C   C21       1.0  0.8531182883418326  0.5164489844767742  0.8725943809499557  1.0000
  C   C22       1.0  0.1468757312234031  0.48355337314814045  0.12740671189228442  1.0000
  C   C23       1.0  0.7588371005139861  0.5381268442524102  0.9621518570129979  1.0000
  C   C24       1.0  0.2411595847577672  0.4618755191094408  0.037849212975871224  1.0000
  C   C25       1.0  0.3264102313385279  0.9886137422033767  0.6887461019174312  1.0000
  C   C26       1.0  0.6735908438012501  0.011387476563918097  0.3112522185029577  1.0000
  C   C27       1.0  0.18129696091212108  0.025269925644714395  0.596734469721774  1.0000
  C   C28       1.0  0.8187028702297927  0.9747347656397235  0.40326446448177233  1.0000
  C   C29       1.0  0.9990829481407387  0.14703871101619373  0.5932313888160154  1.0000
  C   C30       1.0  0.0009177216761671109  0.8529636635345098  0.4067681404763732  1.0000
  C   C31       1.0  0.873314987192444  0.09375758075852049  0.6798664497854858  1.0000
  C   C32       1.0  0.12668217123563616  0.9062471060807126  0.320131754063219  1.0000
  C   C33       1.0  0.4797182895694903  0.6540539370741739  0.5640393138271023  1.0000
  C   C34       1.0  0.5202971593680205  0.3459368909645875  0.4359548142056867  1.0000
  C   C35       1.0  0.5590273456219207  0.5515755506571126  0.501424795087985  1.0000
  C   C36       1.0  0.4409779626970334  0.4484175688692105  0.49857183067560845  1.0000
  N   N1        1.0  0.6826515479683195  0.6869122672798297  0.9551230561165628  1.0000
  N   N2        1.0  0.3173451443107496  0.3130900947902973  0.044878767080511806  1.0000
  N   N3        1.0  0.8637133147669119  0.6460293650073085  0.7907833480804103  1.0000
  N   N4        1.0  0.13628510167366406  0.3539718467313264  0.20921574840156154  1.0000
  O   O1        1.0  0.48582518085419224  0.890842598986623  0.6931876713188815  1.0000
  O   O2        1.0  0.5141740672540606  0.10915629731000108  0.3068112670437203  1.0000
  O   O3        1.0  0.28700735211779  0.05285378650322771  0.7577521970212832  1.0000
  O   O4        1.0  0.7129964565619603  0.9471509172617939  0.24224444327757072  1.0000
  O   O5        1.0  0.8846620169502943  0.9487324393391955  0.7123115952249891  1.0000
  O   O6        1.0  0.11533556782259781  0.051271087841442416  0.28768765937634566  1.0000
  O   O7        1.0  0.763704878035085  0.191758487742149  0.7118776393626547  1.0000
  O   O8        1.0  0.23629092651778894  0.8082462001037952  0.288118316288113  1.0000
  O   O9        1.0  0.603493210243542  0.022314009472474097  0.8543392980238026  1.0000
  O   O10       1.0  0.396508277226424  0.977686052219674  0.1456585667327914  1.0000
  O   O11       1.0  0.3390221087438193  0.6487880883509048  0.6127487698498514  1.0000
  O   O12       1.0  0.660974640443854  0.3511992151016159  0.3872501882575463  1.0000
  O   O13       1.0  0.5778484197893333  0.7498749013296973  0.5622936512016282  1.0000
  O   O14       1.0  0.42215643639524103  0.25011589084407143  0.4377081003267521  1.0000
