data_image0
_chemical_formula_structural       Gd2MnH28C16O18
_chemical_formula_sum              "Gd2 Mn1 H28 C16 O18"
_cell_length_a       8.872507626939498
_cell_length_b       9.118175801209572
_cell_length_c       10.648433853255701
_cell_angle_alpha    81.92707235290048
_cell_angle_beta     72.24696916730818
_cell_angle_gamma    76.23044747419769

_space_group_name_H-M_alt    "P 1"
_space_group_IT_number       1

loop_
  _space_group_symop_operation_xyz
  'x, y, z'

loop_
  _atom_site_type_symbol
  _atom_site_label
  _atom_site_symmetry_multiplicity
  _atom_site_fract_x
  _atom_site_fract_y
  _atom_site_fract_z
  _atom_site_occupancy
  Gd  Gd1       1.0  0.915596945080736  0.0795262518247242  0.6820819197144844  1.0000
  Gd  Gd2       1.0  0.08441022600026575  0.920476919353426  0.3179157475995993  1.0000
  Mn  Mn1       1.0  9.961376719e-07  5.7102435206999985e-06  9.195554682000003e-07  1.0000
  H   H1        1.0  0.8275861437240051  0.36909282359906104  0.055654591501145566  1.0000
  H   H2        1.0  0.17236302313904875  0.6309333484653549  0.9443516781469298  1.0000
  H   H3        1.0  0.6317758038111448  0.426678620021697  0.025878001772433466  1.0000
  H   H4        1.0  0.3681816188261847  0.5733219307116143  0.9741102563710982  1.0000
  H   H5        1.0  0.7930739752541811  0.5132629474802356  0.9299613932225128  1.0000
  H   H6        1.0  0.2068712486535134  0.4867491217429746  0.07003154758260878  1.0000
  H   H7        1.0  0.7365614014535636  0.7372534929289358  0.06490039645013465  1.0000
  H   H8        1.0  0.2634683691658353  0.26274071671172544  0.93510051047069  1.0000
  H   H9        1.0  0.5772969275705722  0.7561489264319758  0.9871418774103233  1.0000
  H   H10       1.0  0.4227152203362222  0.24384224952293468  0.01286957363629432  1.0000
  H   H11       1.0  0.5729389443217129  0.8985497831439203  0.08428509834726589  1.0000
  H   H12       1.0  0.42710095647141333  0.10144305890914039  0.9157092441076456  1.0000
  H   H13       1.0  0.49518998805792347  0.8349949946230736  0.583568862621199  1.0000
  H   H14       1.0  0.5048085324448408  0.16498580359903062  0.4164382440764456  1.0000
  H   H15       1.0  0.4589956727707758  0.7066638125831375  0.7269038640212742  1.0000
  H   H16       1.0  0.5409919892250414  0.29333407790551286  0.273105027441801  1.0000
  H   H17       1.0  0.5306898968801974  0.8702050450751314  0.7330821081491197  1.0000
  H   H18       1.0  0.4693168199502864  0.12978240959098034  0.2669205758279958  1.0000
  H   H19       1.0  0.1700267305911893  0.3196521266066911  0.2550995502282092  1.0000
  H   H20       1.0  0.8299834378284389  0.6803476673480303  0.7448989066708123  1.0000
  H   H21       1.0  0.24812169072556148  0.3961688709555133  0.36291675517846045  1.0000
  H   H22       1.0  0.751883714289214  0.603835576525192  0.6370848635007533  1.0000
  H   H23       1.0  0.0497353503062854  0.4722985753749  0.3565275485536716  1.0000
  H   H24       1.0  0.9502749041346024  0.5277011844630977  0.6434699539824463  1.0000
  H   H25       1.0  0.6071506566687788  0.18234508782452954  0.6137472488371145  1.0000
  H   H26       1.0  0.39285196626057944  0.8176457181151944  0.3862539281547086  1.0000
  H   H27       1.0  0.738665922399356  0.12761883704828847  0.47768942654064966  1.0000
  H   H28       1.0  0.2613421202502408  0.8723798415714583  0.5223096073325236  1.0000
  C   C1        1.0  0.27942556588376294  0.91059595137321  0.7436059264995265  1.0000
  C   C2        1.0  0.7205811264023081  0.08940948314249646  0.25639153471646386  1.0000
  C   C3        1.0  0.7629630165158191  0.4058425368948946  0.9802775491566038  1.0000
  C   C4        1.0  0.23698533944041597  0.5941640282341963  0.01972020478317665  1.0000
  C   C5        1.0  0.6548252351225372  0.8155684345525811  0.015112519649477567  1.0000
  C   C6        1.0  0.3451988631908095  0.18443286253521043  0.9848961147679772  1.0000
  C   C7        1.0  0.812386844656949  0.2915538273773349  0.8787630767563994  1.0000
  C   C8        1.0  0.1875925465628683  0.7084493009894997  0.12123359711863912  1.0000
  C   C9        1.0  0.7466894083625987  0.8996487933070512  0.896840516103623  1.0000
  C   C10       1.0  0.25333875261429734  0.10034409629833618  0.1031552416139192  1.0000
  C   C11       1.0  0.4519322225578861  0.826794730042728  0.691795837513439  1.0000
  C   C12       1.0  0.548064569211256  0.1731894031191885  0.308209288273801  1.0000
  C   C13       1.0  0.14106999631896144  0.3661387082676839  0.350732462872493  1.0000
  C   C14       1.0  0.8589267522394695  0.6338623754251952  0.6492704062913859  1.0000
  C   C15       1.0  0.07841119099236239  0.257054784837166  0.46225707465119104  1.0000
  C   C16       1.0  0.9215973834035507  0.7429462171866774  0.5377434248871465  1.0000
  O   O1        1.0  0.1926812577818637  0.9543219380274194  0.6624747091668156  1.0000
  O   O2        1.0  0.807330491473138  0.0456904763165582  0.3375273925199025  1.0000
  O   O3        1.0  0.043636066031361095  0.289732146364166  0.580873497532167  1.0000
  O   O4        1.0  0.9563717558870763  0.7102686932429948  0.41912246715419593  1.0000
  O   O5        1.0  0.8985098500181861  0.897195956429769  0.8799447325190926  1.0000
  O   O6        1.0  0.1015092286588271  0.1028004194670018  0.1200533291520927  1.0000
  O   O7        1.0  0.9477415885673892  0.19306968490464266  0.8669726003588352  1.0000
  O   O8        1.0  0.05224321932516315  0.8069428149279856  0.1330320883779095  1.0000
  O   O9        1.0  0.6786308128473098  0.9752779897752073  0.812056100332235  1.0000
  O   O10       1.0  0.32138639386069906  0.024710488940826295  0.18794339356994527  1.0000
  O   O11       1.0  0.7271863838076839  0.2919961489394679  0.8025924712975366  1.0000
  O   O12       1.0  0.2728063887255202  0.707995452770561  0.19739928295336281  1.0000
  O   O13       1.0  0.05488757571231423  0.12939744111933743  0.4394791418007599  1.0000
  O   O14       1.0  0.9451235172273016  0.8706024470186263  0.5605219412244226  1.0000
  O   O15       1.0  0.7185370083069101  0.17873696680752718  0.5612965176439104  1.0000
  O   O16       1.0  0.2814702674616428  0.8212671995725316  0.4386972291694987  1.0000
  O   O17       1.0  0.22944069206840828  0.9317706526221272  0.8655784014681343  1.0000
  O   O18       1.0  0.7705643917903799  0.06824164013968927  0.1344203501793828  1.0000
