data_image0
_chemical_formula_structural       Cd8H32C52N8O36
_chemical_formula_sum              "Cd8 H32 C52 N8 O36"
_cell_length_a       8.93763567064347
_cell_length_b       10.718264670083132
_cell_length_c       15.858682013000028
_cell_angle_alpha    89.99999745905065
_cell_angle_beta     90.00000638422173
_cell_angle_gamma    97.92172403479282

_space_group_name_H-M_alt    "P 1"
_space_group_IT_number       1

loop_
  _space_group_symop_operation_xyz
  'x, y, z'

loop_
  _atom_site_type_symbol
  _atom_site_label
  _atom_site_symmetry_multiplicity
  _atom_site_fract_x
  _atom_site_fract_y
  _atom_site_fract_z
  _atom_site_occupancy
  Cd  Cd1       1.0  0.02554774711591528  0.25715811078684675  0.8931807788679293  1.0000
  Cd  Cd2       1.0  0.47445105392067416  0.24284132030667394  0.393182117385166  1.0000
  Cd  Cd3       1.0  0.9744520899148269  0.7428417381542333  0.1068178488238303  1.0000
  Cd  Cd4       1.0  0.5255487831101959  0.7571585286343706  0.606817771445435  1.0000
  Cd  Cd5       1.0  0.2702026508734434  0.49480759058266693  0.0315032494241052  1.0000
  Cd  Cd6       1.0  0.22979816897310454  0.005190924607710201  0.5315044530874717  1.0000
  Cd  Cd7       1.0  0.7297959167906284  0.5051913113431397  0.9684966394064745  1.0000
  Cd  Cd8       1.0  0.7702013686906567  0.9948070404086877  0.46849669688200635  1.0000
  H   H1        1.0  0.0015487191016987027  0.19489946801579797  0.6659702203805794  1.0000
  H   H2        1.0  0.4984559351947907  0.3051018822890653  0.1659715585255555  1.0000
  H   H3        1.0  0.9984532076119023  0.8050994490687983  0.3340296684501071  1.0000
  H   H4        1.0  0.501542632469409  0.6948970196367128  0.8340295914438727  1.0000
  H   H5        1.0  0.1289249219148516  0.17627299673813474  0.1076936923101002  1.0000
  H   H6        1.0  0.371077331911799  0.3237274040691461  0.6076923729190896  1.0000
  H   H7        1.0  0.8710774538495867  0.8237287462333924  0.8923061965205576  1.0000
  H   H8        1.0  0.6289226548026219  0.6762733868342251  0.3923068853420872  1.0000
  H   H9        1.0  0.8818339168536582  0.29754902306729036  0.3700963517882414  1.0000
  H   H10       1.0  0.6181633127107773  0.20245257587504278  0.8700962816774978  1.0000
  H   H11       1.0  0.11816562080998236  0.702448941949136  0.629903537042381  1.0000
  H   H12       1.0  0.3818334646377933  0.797549141831844  0.12990360715298976  1.0000
  H   H13       1.0  0.20489279442661965  0.09580917369657269  0.2469070300759526  1.0000
  H   H14       1.0  0.2951069479460955  0.40418932693963683  0.7469057036733346  1.0000
  H   H15       1.0  0.7951092819704684  0.9041906853503574  0.753091597615871  1.0000
  H   H16       1.0  0.7048919190850851  0.5958114589108163  0.2530929240183752  1.0000
  H   H17       1.0  0.8019058375529581  0.3730739269363852  0.23080419279626344  1.0000
  H   H18       1.0  0.6980956937655305  0.12692675639939918  0.7308047603626165  1.0000
  H   H19       1.0  0.19809623884432168  0.6269259321105025  0.7691963266038331  1.0000
  H   H20       1.0  0.30190317326583477  0.8730740294510184  0.2691957590373662  1.0000
  H   H21       1.0  0.7487234306847481  0.1426535120764356  0.9807864434289684  1.0000
  H   H22       1.0  0.7512770299358917  0.3573471551799372  0.480785873236414  1.0000
  H   H23       1.0  0.25127558603035977  0.8573482157362662  0.019215337109862708  1.0000
  H   H24       1.0  0.248723106462144  0.6426545776857467  0.5192133850247487  1.0000
  H   H25       1.0  0.3751967414184847  0.9289463469552145  0.8491796451421649  1.0000
  H   H26       1.0  0.12480223731388655  0.5710507851913958  0.3491778145396368  1.0000
  H   H27       1.0  0.624803915928517  0.0710516231140943  0.1508221353967727  1.0000
  H   H28       1.0  0.8751975997169764  0.42894906374964853  0.6508220742909714  1.0000
  H   H29       1.0  0.8356424941985025  0.032783425028178194  0.9617476650504104  1.0000
  H   H30       1.0  0.6643579626913761  0.46721724306797086  0.461747086310055  1.0000
  H   H31       1.0  0.16435637283286297  0.9672173608222394  0.03825285434957951  1.0000
  H   H32       1.0  0.3356409043399323  0.5327835427824538  0.5382528025205104  1.0000
  C   C1        1.0  0.19344471186982296  0.06431569451511618  0.8041658233719033  1.0000
  C   C2        1.0  0.3065551914067655  0.43568374555774625  0.30416525424171686  1.0000
  C   C3        1.0  0.8065549754775531  0.9356832124635874  0.1958353265975603  1.0000
  C   C4        1.0  0.6934447953077766  0.5643170453455966  0.6958352651583084  1.0000
  C   C5        1.0  0.07659977591128347  0.14161869700635774  0.7003520213616099  1.0000
  C   C6        1.0  0.4234023463888191  0.3583807577514975  0.2003520922142883  1.0000
  C   C7        1.0  0.9234021508023174  0.8583802200782386  0.2996478674690764  1.0000
  C   C8        1.0  0.5765973409584999  0.6416181492272272  0.7996484271857511  1.0000
  C   C9        1.0  0.2300292862540445  0.038794957523450094  0.8919663116178642  1.0000
  C   C10       1.0  0.2699692151772054  0.4612025896990418  0.3919663700708611  1.0000
  C   C11       1.0  0.7699724907759418  0.9612030175988339  0.1080335772128294  1.0000
  C   C12       1.0  0.7300306218537216  0.5387972592419885  0.6080341493291712  1.0000
  C   C13       1.0  0.9245907527532394  0.33132521458614406  0.0771741541301196  1.0000
  C   C14       1.0  0.5754107484605128  0.1686754755261504  0.5771740824064369  1.0000
  C   C15       1.0  0.07540908427768754  0.668674634354886  0.9228263652699128  1.0000
  C   C16       1.0  0.424589238253965  0.8313253153772066  0.42282580642416434  1.0000
  C   C17       1.0  0.07397532709352109  0.20047870797279893  0.16559320545927395  1.0000
  C   C18       1.0  0.42602693807880593  0.2995216902805923  0.6655912595672362  1.0000
  C   C19       1.0  0.9260256296205751  0.7995211460211633  0.8344073139407939  1.0000
  C   C20       1.0  0.5739741683186635  0.7004791056757326  0.33440673755512057  1.0000
  C   C21       1.0  0.9611293316980678  0.27927974893411533  0.1610266475954205  1.0000
  C   C22       1.0  0.538871066263887  0.22072093242658744  0.6610265721055202  1.0000
  C   C23       1.0  0.038871475332363965  0.7207191630975486  0.8389732412352302  1.0000
  C   C24       1.0  0.4611279504510363  0.7792807953861497  0.33897331672503134  1.0000
  C   C25       1.0  0.2441105522084824  0.0189822950304688  0.7281878849857295  1.0000
  C   C26       1.0  0.2558904558629748  0.48101715344665036  0.22818731142515963  1.0000
  C   C27       1.0  0.7558902548220627  0.9810166170011667  0.271813264983777  1.0000
  C   C28       1.0  0.7441106505346794  0.5189836425096316  0.7718125774054769  1.0000
  C   C29       1.0  0.048385531725493494  0.1921919115654234  0.3172401069850325  1.0000
  C   C30       1.0  0.4516122844302684  0.3078084597872177  0.8172387929797085  1.0000
  C   C31       1.0  0.9516141556217618  0.8078069954133157  0.6827597818455899  1.0000
  C   C32       1.0  0.548386732284527  0.6921932680255479  0.1827598347119945  1.0000
  C   C33       1.0  0.9341604325356768  0.26948914155769194  0.3125676134378494  1.0000
  C   C34       1.0  0.565838875438338  0.23051152806574746  0.8125669087357325  1.0000
  C   C35       1.0  0.06584149417798099  0.7305097755268903  0.687432905962261  1.0000
  C   C36       1.0  0.4341601412765144  0.7694901997470041  0.18743234952540186  1.0000
  C   C37       1.0  0.1170152013204557  0.1566188318999124  0.24306685869775893  1.0000
  C   C38       1.0  0.38298483966692487  0.34338155283032273  0.7430649088842003  1.0000
  C   C39       1.0  0.8829856057099048  0.8433800801317658  0.7569323995634677  1.0000
  C   C40       1.0  0.6170154464146619  0.6566211219976876  0.256933718807531  1.0000
  C   C41       1.0  0.8896300294389402  0.31207343651977476  0.23483794898610455  1.0000
  C   C42       1.0  0.6103703829867512  0.18792724158517163  0.7348378788282306  1.0000
  C   C43       1.0  0.11037092727509899  0.6879264174742018  0.7651619398445393  1.0000
  C   C44       1.0  0.389628783411723  0.8120754281898924  0.26516137943288953  1.0000
  C   C45       1.0  0.35542544327310566  0.9335259083317239  0.7119759349689476  1.0000
  C   C46       1.0  0.14457731667385323  0.5664740709125409  0.211974736277881  1.0000
  C   C47       1.0  0.6445788724907047  0.06647396082098568  0.28802647613949967  1.0000
  C   C48       1.0  0.8554236400401294  0.43352578308144973  0.7880245219833315  1.0000
  C   C49       1.0  0.09538690576243877  0.14491421602730978  0.4002577267804456  1.0000
  C   C50       1.0  0.4046085376110041  0.35508519959535073  0.9002551473720999  1.0000
  C   C51       1.0  0.9046103925349698  0.8550837388832306  0.5997434231889613  1.0000
  C   C52       1.0  0.5953914491034096  0.6449155913080203  0.0997441108890698  1.0000
  N   N1        1.0  0.08804680145718177  0.1417861317470468  0.785127036359647  1.0000
  N   N2        1.0  0.4119539184047198  0.3582114302938848  0.28512773708796163  1.0000
  N   N3        1.0  0.9119527362064587  0.8582118332693793  0.21487285247098242  1.0000
  N   N4        1.0  0.5880470383093837  0.6417884237000779  0.7148727823121064  1.0000
  N   N5        1.0  0.1687226402044928  0.06819989394188038  0.6636352287709499  1.0000
  N   N6        1.0  0.33127932521713177  0.4317986204732163  0.1636352918339057  1.0000
  N   N7        1.0  0.8312792865091723  0.9317990231427017  0.3363652906291606  1.0000
  N   N8        1.0  0.6687205118137953  0.5682012284678208  0.8363652275661337  1.0000
  O   O1        1.0  0.03437201904844761  0.34755772186429823  0.023616082030052603  1.0000
  O   O2        1.0  0.4656290986197361  0.1524426775986143  0.523616665173428  1.0000
  O   O3        1.0  0.9656278179822946  0.6524421270767817  0.976382545661707  1.0000
  O   O4        1.0  0.5343708880946849  0.8475581133047573  0.4763825930877417  1.0000
  O   O5        1.0  0.3297438091204724  0.9624016412646624  0.9071396931095068  1.0000
  O   O6        1.0  0.17025421097005727  0.5375964252347387  0.4071391274074756  1.0000
  O   O7        1.0  0.6702558782269036  0.03759726571404799  0.09286145685996423  1.0000
  O   O8        1.0  0.8297457757444845  0.46240436566860404  0.5928613919925496  1.0000
  O   O9        1.0  0.1650281089805929  0.08685175612100689  0.9517367235926457  1.0000
  O   O10       1.0  0.3349692844797758  0.4131457834121477  0.4517361568619905  1.0000
  O   O11       1.0  0.8349717280503979  0.913148092820009  0.048264426376810804  1.0000
  O   O12       1.0  0.6650307022347092  0.5868550074912164  0.5482637319686036  1.0000
  O   O13       1.0  0.7921242780026388  0.3547932975197553  0.06314650230994091  1.0000
  O   O14       1.0  0.7078772204623148  0.1452073932112867  0.5631464393644522  1.0000
  O   O15       1.0  0.20787667871152135  0.6452065564741928  0.9368546476595513  1.0000
  O   O16       1.0  0.29212388593539623  0.8547934027449813  0.43685408003560167  1.0000
  O   O17       1.0  0.42602346479574743  0.890110435125564  0.7724601570210866  1.0000
  O   O18       1.0  0.07397945668704856  0.6098904834131033  0.2724589527395622  1.0000
  O   O19       1.0  0.5739800306519952  0.10989131289886703  0.2275409929484482  1.0000
  O   O20       1.0  0.9260216497106695  0.3901103125431646  0.7275415666604985  1.0000
  O   O21       1.0  0.37677882825805387  0.9058514891419019  0.6344316609756149  1.0000
  O   O22       1.0  0.12322406617727205  0.5941494354850859  0.1344304601644595  1.0000
  O   O23       1.0  0.6232245175060667  0.09414931692020899  0.365569488993934  1.0000
  O   O24       1.0  0.8767768905367674  0.40585041850889075  0.8655694286661773  1.0000
  O   O25       1.0  0.23004137400632624  0.11443683152403848  0.4056787366874489  1.0000
  O   O26       1.0  0.26995295074603826  0.38556257880662054  0.9056742564521942  1.0000
  O   O27       1.0  0.7699554752403656  0.8855582974995427  0.5943236744208351  1.0000
  O   O28       1.0  0.7300459162851494  0.6144382070438396  0.09432437123951591  1.0000
  O   O29       1.0  0.005388906713392299  0.1322487503442673  0.4623133224849312  1.0000
  O   O30       1.0  0.4946033394544145  0.3677515893446639  0.9623120093349584  1.0000
  O   O31       1.0  0.994606601268387  0.8677520203473746  0.537686566345535  1.0000
  O   O32       1.0  0.5053953778932154  0.6322482545434694  0.0376872489261899  1.0000
  O   O33       1.0  0.8135631891358485  0.11330311883209992  0.9373805688937937  1.0000
  O   O34       1.0  0.6864396520290582  0.3866985024070502  0.4373793633079616  1.0000
  O   O35       1.0  0.1864369472624289  0.8866986140335271  0.0626212116450731  1.0000
  O   O36       1.0  0.31356272373525934  0.6133032405645054  0.562619264383848  1.0000
