data_image0
_chemical_formula_structural       Ni2H26C40N6O8
_chemical_formula_sum              "Ni2 H26 C40 N6 O8"
_cell_length_a       8.800063565459006
_cell_length_b       9.983693512006985
_cell_length_c       15.368788348577189
_cell_angle_alpha    87.89179662210418
_cell_angle_beta     89.45088217474486
_cell_angle_gamma    73.59681460149257

_space_group_name_H-M_alt    "P 1"
_space_group_IT_number       1

loop_
  _space_group_symop_operation_xyz
  'x, y, z'

loop_
  _atom_site_type_symbol
  _atom_site_label
  _atom_site_symmetry_multiplicity
  _atom_site_fract_x
  _atom_site_fract_y
  _atom_site_fract_z
  _atom_site_occupancy
  Ni  Ni1       1.0  0.945728668275578  0.9215408681414277  0.643950707258284  1.0000
  Ni  Ni2       1.0  0.054268936552752195  0.07845711349631301  0.3560496184102248  1.0000
  H   H1        1.0  0.6179213641537444  0.008947271867000901  0.7069250142724994  1.0000
  H   H2        1.0  0.38206912345157207  0.9910621881629001  0.2930770407243202  1.0000
  H   H3        1.0  0.3842299814078983  0.2217303783909018  0.7106591688699951  1.0000
  H   H4        1.0  0.6157590935086003  0.7782832669346932  0.2893356380130569  1.0000
  H   H5        1.0  0.6799292739620882  0.4539013888424108  0.5873618403628098  1.0000
  H   H6        1.0  0.3200626252001443  0.5461070373093336  0.4126324204067372  1.0000
  H   H7        1.0  0.8923294687396818  0.2267439009673781  0.5782086694590731  1.0000
  H   H8        1.0  0.10766448448460862  0.7732582542479849  0.4217883303834213  1.0000
  H   H9        1.0  0.0022567545783473454  0.6282558798522475  0.5774188244037999  1.0000
  H   H10       1.0  0.9977413075435847  0.37174419552751203  0.4225814465703833  1.0000
  H   H11       1.0  0.22275798362596783  0.40765401325557354  0.5708056633345462  1.0000
  H   H12       1.0  0.7772414444055401  0.5923418818736437  0.4291959999230598  1.0000
  H   H13       1.0  0.501370381674178  0.6011370781068593  0.7273214598268182  1.0000
  H   H14       1.0  0.49863877256027667  0.39884630220249323  0.2726784784485615  1.0000
  H   H15       1.0  0.26863208660589777  0.8141782407571371  0.7271116031459144  1.0000
  H   H16       1.0  0.7313761850010536  0.18581141074191276  0.2728901413908034  1.0000
  H   H17       1.0  0.8692359237102706  0.7898445820072766  0.807439010757548  1.0000
  H   H18       1.0  0.1307690266812358  0.2101555100278176  0.19257096473130986  1.0000
  H   H19       1.0  0.883534075527848  0.8192283300355644  0.9669445379506596  1.0000
  H   H20       1.0  0.11646304272615991  0.18077487184321941  0.03306477385211079  1.0000
  H   H21       1.0  0.10002637747259509  0.15120561620121722  0.9065756213508394  1.0000
  H   H22       1.0  0.8999803753313032  0.8487923915676422  0.09343308913585699  1.0000
  H   H23       1.0  0.07494222091141717  0.10622092364369004  0.7504615689519196  1.0000
  H   H24       1.0  0.9250675981660167  0.8937781414394766  0.24954709118654247  1.0000
  H   H25       1.0  0.4092457801335244  0.8588876049937612  0.613068984814319  1.0000
  H   H26       1.0  0.5907635304468994  0.14111983399028827  0.3869310165261054  1.0000
  C   C1        1.0  0.6245078976958  0.10982701971094144  0.6803938794289053  1.0000
  C   C2        1.0  0.37548538816677984  0.8901772239479657  0.3196043762153238  1.0000
  C   C3        1.0  0.496155638330336  0.22853569633761595  0.6825175837701707  1.0000
  C   C4        1.0  0.5038379812131026  0.7714675030995225  0.3174800439731911  1.0000
  C   C5        1.0  0.5127885357807997  0.35598334847811247  0.6488446928794642  1.0000
  C   C6        1.0  0.48720586953938744  0.644020901039845  0.3511516016208915  1.0000
  C   C7        1.0  0.6595079212010333  0.35715440322034203  0.6132225452487531  1.0000
  C   C8        1.0  0.3404833762640748  0.6428487934678774  0.3867685944173046  1.0000
  C   C9        1.0  0.7798434961246271  0.23212646099097609  0.6101276806229521  1.0000
  C   C10       1.0  0.22014428297103447  0.7678735840803484  0.38986421473347116  1.0000
  C   C11       1.0  0.11426965024460149  0.6180316329202216  0.6101601893794208  1.0000
  C   C12       1.0  0.8857292080494757  0.3819694914192057  0.3898400496473896  1.0000
  C   C13       1.0  0.23605960365236456  0.4937606279875695  0.6087822829036325  1.0000
  C   C14       1.0  0.7639387817550299  0.5062384042915583  0.3912160588740433  1.0000
  C   C15       1.0  0.37923681471588117  0.48485073767020037  0.6507839607209149  1.0000
  C   C16       1.0  0.6207631682335019  0.5151503919676941  0.34921496780983563  1.0000
  C   C17       1.0  0.3919368769177395  0.6021086369725455  0.6943242461704455  1.0000
  C   C18       1.0  0.6080686680677515  0.3978893744670132  0.30567536444724647  1.0000
  C   C19       1.0  0.2632357245456376  0.7210211697001796  0.693964751980161  1.0000
  C   C20       1.0  0.7367652802370798  0.27897682503009963  0.3060348954392466  1.0000
  C   C21       1.0  0.9194439938492562  0.8683056205735303  0.8335529670441557  1.0000
  C   C22       1.0  0.08055765940983411  0.13169759857511562  0.1664556573090863  1.0000
  C   C23       1.0  0.9282833419534525  0.8863894141289284  0.9223505327930893  1.0000
  C   C24       1.0  0.07171490615355218  0.11361379248775451  0.07765811916143407  1.0000
  C   C25       1.0  0.9939043400437344  0.9889684951700632  0.9530092932014823  1.0000
  C   C26       1.0  0.0060980013678389  0.011032633292735702  0.04700067794128419  1.0000
  C   C27       1.0  0.0473401406843053  0.0694756959301515  0.88915402413901  1.0000
  C   C28       1.0  0.9526658107497568  0.9305212634396086  0.11085406764723867  1.0000
  C   C29       1.0  0.0337194918099186  0.046161070544748405  0.8014989356392873  1.0000
  C   C30       1.0  0.9662864596241433  0.9538358888250188  0.19850915614696157  1.0000
  C   C31       1.0  0.7213873481635318  0.7705535669365633  0.5976982171131482  1.0000
  C   C32       1.0  0.2786034040055512  0.22943393208467464  0.4022991655895963  1.0000
  C   C33       1.0  0.6121584246064417  0.8896637117740481  0.5450404644394807  1.0000
  C   C34       1.0  0.3878492252861392  0.11033117454093853  0.4549533493882833  1.0000
  C   C35       1.0  0.4506056833178819  0.9207562827204043  0.5634582626006972  1.0000
  C   C36       1.0  0.549403692927129  0.07924383835656809  0.43653736183449604  1.0000
  C   C37       1.0  0.6621780232388235  0.9707366620434287  0.47993519454897887  1.0000
  C   C38       1.0  0.3378330214104537  0.029258237924665306  0.5200572903818709  1.0000
  C   C39       1.0  0.8334732252828586  0.9459847984368254  0.4572772524281134  1.0000
  C   C40       1.0  0.1665403107048249  0.0540163886163612  0.5427131072758938  1.0000
  N   N1        1.0  0.763878628649678  0.10999229782318315  0.6432857216381436  1.0000
  N   N2        1.0  0.23611680370154178  0.8900088162265761  0.35671194239868237  1.0000
  N   N3        1.0  0.12715766956059577  0.7305639287585565  0.6518406407032769  1.0000
  N   N4        1.0  0.8728423289818676  0.2694371991976254  0.3481602397709196  1.0000
  N   N5        1.0  0.9711769674540421  0.9468698515784768  0.7736068143465643  1.0000
  N   N6        1.0  0.028823745229374288  0.053129182888994826  0.22639866615624268  1.0000
  O   O1        1.0  0.7881703954046061  0.8019783143052097  0.665708938153152  1.0000
  O   O2        1.0  0.21180678293540467  0.19800912954302421  0.33429441078506966  1.0000
  O   O3        1.0  0.7325981558413517  0.6488456866573103  0.5755496206079939  1.0000
  O   O4        1.0  0.2673871111251244  0.3511480735712099  0.4244417973839985  1.0000
  O   O5        1.0  0.9380171684189803  0.8854923097749106  0.5135619437813543  1.0000
  O   O6        1.0  0.061991214499890576  0.11449317018944784  0.48642623733944385  1.0000
  O   O7        1.0  0.867286079554354  0.9853831966540837  0.3812039561020909  1.0000
  O   O8        1.0  0.1327229092876649  0.0146462095049245  0.6187935604064307  1.0000
