data_image0
_chemical_formula_structural       Zn2H20C36S2Br2N2O12
_chemical_formula_sum              "Zn2 H20 C36 S2 Br2 N2 O12"
_cell_length_a       12.80489261512867
_cell_length_b       16.399658482139255
_cell_length_c       17.79172859536533
_cell_angle_alpha    95.26651877915793
_cell_angle_beta     90.20538665108813
_cell_angle_gamma    92.16876911598837

_space_group_name_H-M_alt    "P 1"
_space_group_IT_number       1

loop_
  _space_group_symop_operation_xyz
  'x, y, z'

loop_
  _atom_site_type_symbol
  _atom_site_label
  _atom_site_symmetry_multiplicity
  _atom_site_fract_x
  _atom_site_fract_y
  _atom_site_fract_z
  _atom_site_occupancy
  Zn  Zn1       1.0  0.49932306600357623  0.4141239803300963  0.4967328955224275  1.0000
  Zn  Zn2       1.0  0.5006708526962241  0.5858770634324912  0.5032684190902756  1.0000
  H   H1        1.0  0.3951833896531837  0.7129755207518116  0.42614414710008214  1.0000
  H   H2        1.0  0.3984753510489369  0.864011483962763  0.4275159647015627  1.0000
  H   H3        1.0  0.6415946296426752  0.8690859059439333  0.6001141282594773  1.0000
  H   H4        1.0  0.6265944514126572  0.7204427287416096  0.5893295619714395  1.0000
  H   H5        1.0  0.3583721578230196  0.13091941732677273  0.3998807429707156  1.0000
  H   H6        1.0  0.6014842373143878  0.1359742281405261  0.5724772407019003  1.0000
  H   H7        1.0  0.6047799655579025  0.28700713559893404  0.5738617366903611  1.0000
  H   H8        1.0  0.3733856133882654  0.27956259821790047  0.4106664624541807  1.0000
  H   H9        1.0  0.5056355891779488  0.6175109854608323  0.26332153200297626  1.0000
  H   H10       1.0  0.5062108300928472  0.610729026354683  0.1246952026716386  1.0000
  H   H11       1.0  0.4923110458105953  0.34493785796669846  0.11842098829034602  1.0000
  H   H12       1.0  0.4924302152905823  0.3555396395701679  0.2543160211681084  1.0000
  H   H13       1.0  0.507804364264352  0.6550724027622224  0.8815763065988662  1.0000
  H   H14       1.0  0.49390563966296935  0.3892867574833404  0.8753160486873242  1.0000
  H   H15       1.0  0.4944483876382789  0.3824949877626693  0.7366916337140735  1.0000
  H   H16       1.0  0.5075991153436377  0.6444669281385488  0.7456869591124757  1.0000
  H   H17       1.0  0.6351143029781949  0.9690778432969227  0.5959999052064191  1.0000
  H   H18       1.0  0.364840143345944  0.030914606794595997  0.4039910457450375  1.0000
  H   H19       1.0  0.4923216894943252  0.3528091433224462  0.029687859333314696  1.0000
  H   H20       1.0  0.5077590602677587  0.6472109193336594  0.9703191782129892  1.0000
  C   C1        1.0  0.4979494500405224  0.4917943670733179  0.3525343577428686  1.0000
  C   C2        1.0  0.29473883499704806  0.4994072268554533  0.49920278770392906  1.0000
  C   C3        1.0  0.5020736705711429  0.5081968792763975  0.6474673198302412  1.0000
  C   C4        1.0  0.705249717740088  0.5006133771287226  0.5007158523594697  1.0000
  C   C5        1.0  0.4483199647283199  0.7512947405472303  0.4635922934068972  1.0000
  C   C6        1.0  0.4506074179044005  0.8360000354616801  0.46470532818487  1.0000
  C   C7        1.0  0.5199357861424615  0.8843490682371921  0.5139904429324531  1.0000
  C   C8        1.0  0.5841390424837768  0.8401447703841711  0.5595186589434675  1.0000
  C   C9        1.0  0.577230659505119  0.7552231666547089  0.5548785926642452  1.0000
  C   C10       1.0  0.5283821996995995  0.9741844665902095  0.5201793116829592  1.0000
  C   C11       1.0  0.47157152372830075  0.025809207968812604  0.4798100545607298  1.0000
  C   C12       1.0  0.4158254044073502  0.159860553951269  0.4404790176007225  1.0000
  C   C13       1.0  0.48002028296571086  0.11564460878275903  0.48600230095510705  1.0000
  C   C14       1.0  0.5493476951037194  0.16398996679762945  0.5352910388233028  1.0000
  C   C15       1.0  0.5516476776296597  0.24869588026937348  0.5364092113294275  1.0000
  C   C16       1.0  0.42274457410084654  0.24477909745191792  0.44512109797661736  1.0000
  C   C17       1.0  0.4982146265880161  0.48713042027239334  0.2682826929616198  1.0000
  C   C18       1.0  0.502373095579081  0.5581974536086632  0.230148484246115  1.0000
  C   C19       1.0  0.5027716896666234  0.5542550889936566  0.15183977631952672  1.0000
  C   C20       1.0  0.49880248789957443  0.4780965067433912  0.1070205024853621  1.0000
  C   C21       1.0  0.4950823010584458  0.4070349090965237  0.1469901170403318  1.0000
  C   C22       1.0  0.49487775175012416  0.41124324314379385  0.22527047864871008  1.0000
  C   C23       1.0  0.4984165734013429  0.46917625931627777  0.024079147935943006  1.0000
  C   C24       1.0  0.5017226646578904  0.5308419818990872  0.9759340457123357  1.0000
  C   C25       1.0  0.505018157326532  0.5929729008555996  0.8530136839370854  1.0000
  C   C26       1.0  0.5013177686874285  0.5219168274154244  0.8929916750622127  1.0000
  C   C27       1.0  0.4973313262265576  0.4457570156126565  0.8481722604105144  1.0000
  C   C28       1.0  0.49772265424687123  0.4418097472713428  0.7698636861643919  1.0000
  C   C29       1.0  0.5018463979709152  0.5128694149026176  0.731721475639354  1.0000
  C   C30       1.0  0.5051889746250352  0.5887614937963763  0.7747307424221361  1.0000
  C   C31       1.0  0.10711757288549249  0.4315641259051831  0.4971545234292662  1.0000
  C   C32       1.0  0.8928592421396998  0.5684735821240068  0.5026750389486878  1.0000
  C   C33       1.0  0.17915084059846006  0.4970449864394482  0.49924088231859537  1.0000
  C   C34       1.0  0.8208364824010557  0.5029835461399371  0.5006126613361843  1.0000
  C   C35       1.0  0.9971515398933022  0.5427934968188167  0.5013892651930972  1.0000
  C   C36       1.0  0.002833719852191111  0.457258273844758  0.4983824826098129  1.0000
  S   S1        1.0  0.11895282073745511  0.590968164431537  0.5028332538289035  1.0000
  S   S2        1.0  0.8810468081278557  0.4090732169678475  0.49698149148659354  1.0000
  Br  Br1       1.0  0.1362769017068146  0.3194676847059483  0.49346018515770845  1.0000
  Br  Br2       1.0  0.8636805954238723  0.6805737148971147  0.5064033695484795  1.0000
  N   N1        1.0  0.5100826731327571  0.7110769998628116  0.5077532616964433  1.0000
  N   N2        1.0  0.4898908791561495  0.2889228123480904  0.4922456569218737  1.0000
  O   O1        1.0  0.4976955479915474  0.4241423260212543  0.3827189818718821  1.0000
  O   O2        1.0  0.4982165698512445  0.5629735555552245  0.3880140362859379  1.0000
  O   O3        1.0  0.33884359176239087  0.5707786927208148  0.5018434721308438  1.0000
  O   O4        1.0  0.3394806970515275  0.4314760135181643  0.4967540651883909  1.0000
  O   O5        1.0  0.5021093331608099  0.5758255829686834  0.6172785729053984  1.0000
  O   O6        1.0  0.5019980159600123  0.437004254488116  0.6119891737236784  1.0000
  O   O7        1.0  0.6611440096923288  0.42922467069486464  0.4979298279918112  1.0000
  O   O8        1.0  0.6605065347012695  0.5685459410373425  0.503384450769353  1.0000
  O   O9        1.0  0.600025960335685  0.011031696450110902  0.5713305772080943  1.0000
  O   O10       1.0  0.3999324474904282  0.9889619782230453  0.4286571130171524  1.0000
  O   O11       1.0  0.4942464585146452  0.3899809852957929  0.9901336219600977  1.0000
  O   O12       1.0  0.5058764930941989  0.6100396998456432  0.00987355940171142  1.0000
