data_image0
_chemical_formula_structural       Zn2H40C48O24
_chemical_formula_sum              "Zn2 H40 C48 O24"
_cell_length_a       7.161220833861717
_cell_length_b       8.103033257612038
_cell_length_c       19.461
_cell_angle_alpha    85.2212327424373
_cell_angle_beta     88.18381730392937
_cell_angle_gamma    88.96939799730283

_space_group_name_H-M_alt    "P 1"
_space_group_IT_number       1

loop_
  _space_group_symop_operation_xyz
  'x, y, z'

loop_
  _atom_site_type_symbol
  _atom_site_label
  _atom_site_symmetry_multiplicity
  _atom_site_fract_x
  _atom_site_fract_y
  _atom_site_fract_z
  _atom_site_occupancy
  Zn  Zn1       1.0  0.4251955912182126  0.3349344994517622  0.4519792908739362  1.0000
  Zn  Zn2       1.0  0.5748104998543226  0.6650683491071803  0.5480224405190413  1.0000
  H   H1        1.0  0.1301416624503275  0.76684311563573  0.36686778373426426  1.0000
  H   H2        1.0  0.8698630745672417  0.2331572558077326  0.633130966285677  1.0000
  H   H3        1.0  0.17014087839149275  0.7919263869658266  0.14395627998177224  1.0000
  H   H4        1.0  0.8298595811770682  0.20807893870859565  0.8560444034665907  1.0000
  H   H5        1.0  0.3553652940071004  0.1981234116025732  0.2538950892686742  1.0000
  H   H6        1.0  0.6446282445877571  0.801878198398633  0.7461068314780732  1.0000
  H   H7        1.0  0.4241746794155573  0.9097739172732915  0.0770646003895976  1.0000
  H   H8        1.0  0.5758105626222231  0.0902227384969621  0.9229386166604385  1.0000
  H   H9        1.0  0.43755960143295874  0.11657305439403837  0.03826977862311051  1.0000
  H   H10       1.0  0.5624257482468877  0.8834174085875117  0.9617331381352586  1.0000
  H   H11       1.0  0.26550912671658716  0.8081626403662838  0.9781916641686834  1.0000
  H   H12       1.0  0.734477340205686  0.1918439238658749  0.0218122225937023  1.0000
  H   H13       1.0  0.02634791006774149  0.2100395756094215  0.08495413475097992  1.0000
  H   H14       1.0  0.9736412434360486  0.7899731814114332  0.9150474504748161  1.0000
  H   H15       1.0  0.5504611116648375  0.5732268156453557  0.2718575040995006  1.0000
  H   H16       1.0  0.4495576610558415  0.4267698401248907  0.7281386418772514  1.0000
  H   H17       1.0  0.7626149437535614  0.010364251159892  0.1546739500167931  1.0000
  H   H18       1.0  0.23740943894267724  0.989631166052618  0.8453262842825141  1.0000
  H   H19       1.0  0.7423781432652845  0.9751165079093553  0.3782105115528084  1.0000
  H   H20       1.0  0.2576140843314363  0.0248801478608982  0.6217879993953161  1.0000
  H   H21       1.0  0.41229225292956767  0.5594874946467101  0.1712210362132751  1.0000
  H   H22       1.0  0.5876968575174004  0.4405277394896245  0.8287732697149722  1.0000
  H   H23       1.0  0.6427109594889727  0.4711498410284918  0.16849231979021792  1.0000
  H   H24       1.0  0.35727555049012943  0.5288542460881871  0.8315090831537404  1.0000
  H   H25       1.0  0.23217589739248004  0.4710321780432878  0.08439822785567941  1.0000
  H   H26       1.0  0.7678189091436919  0.5289768633043506  0.9156013649367694  1.0000
  H   H27       1.0  0.8090095998838932  0.5867085166343031  0.0383211353285944  1.0000
  H   H28       1.0  0.1909740297579887  0.4133005247133354  0.9616749908752524  1.0000
  H   H29       1.0  0.9519234454116585  0.4096888903464375  0.3139154821489001  1.0000
  H   H30       1.0  0.0480826456608767  0.5903139582125121  0.6860888184851179  1.0000
  H   H31       1.0  0.9428059561318705  0.36563834580140037  0.2054208376126851  1.0000
  H   H32       1.0  0.05720151052403819  0.6343657413152783  0.7945813486235879  1.0000
  H   H33       1.0  0.10555246243455939  0.48696993902865415  0.40332170373013554  1.0000
  H   H34       1.0  0.894457755388103  0.5130366252035046  0.5966808783445074  1.0000
  H   H35       1.0  0.0320812278879004  0.3896279706479646  0.47137966556680067  1.0000
  H   H36       1.0  0.9679184373644103  0.6103426754097683  0.52861349467225  1.0000
  H   H37       1.0  0.7607783996453535  0.2197102344354818  0.4149590021305158  1.0000
  H   H38       1.0  0.2392235646770544  0.7802888984502445  0.5850408508843685  1.0000
  H   H39       1.0  0.734570912966042  0.1574442212230807  0.49516150324223684  1.0000
  H   H40       1.0  0.26543100829953653  0.8425573887781255  0.504839292046448  1.0000
  C   C1        1.0  0.24493019262956034  0.989866492023026  0.3168531444107431  1.0000
  C   C2        1.0  0.7550760060850337  0.0101301637472275  0.6831488005387741  1.0000
  C   C3        1.0  0.16854333127677984  0.8323132777189173  0.3175675707435062  1.0000
  C   C4        1.0  0.8314586761024498  0.1676833780513363  0.6824354507832453  1.0000
  C   C5        1.0  0.1440657243711527  0.7623966933527484  0.2552163448173204  1.0000
  C   C6        1.0  0.8559433762090762  0.2375937696288091  0.744788864190781  1.0000
  C   C7        1.0  0.19357305425505433  0.8488443078612562  0.1915766105710333  1.0000
  C   C8        1.0  0.806430479406437  0.1511449165625578  0.8084245955371259  1.0000
  C   C9        1.0  0.2697783532218452  0.0061742103288793  0.19167426761951842  1.0000
  C   C10       1.0  0.7302166901268663  0.9938212068836307  0.8083278503901568  1.0000
  C   C11       1.0  0.2935007425046265  0.0762158890266846  0.2541717840635727  1.0000
  C   C12       1.0  0.7064984060657906  0.923784482416778  0.7458301142200554  1.0000
  C   C13       1.0  0.06357986183245859  0.5964770215217428  0.2551578461870605  1.0000
  C   C14       1.0  0.9364333654978908  0.4035171571330309  0.7448420473241981  1.0000
  C   C15       1.0  0.2821306730064563  0.0649041411964646  0.3834085437542144  1.0000
  C   C16       1.0  0.7178670138669433  0.9350999459202214  0.6165932426890919  1.0000
  C   C17       1.0  0.3485933212421414  0.0293401942790084  0.0701524461430125  1.0000
  C   C18       1.0  0.6514003680516041  0.9706527458180219  0.9298502874311012  1.0000
  C   C19       1.0  0.1664138818661414  0.0121539670927433  0.0353283993198659  1.0000
  C   C20       1.0  0.8335824940091141  0.987845165792983  0.9646735742622853  1.0000
  C   C21       1.0  0.1496152651693876  0.8933196777107639  0.9877727729676735  1.0000
  C   C22       1.0  0.8503851943991663  0.1066856479636584  0.012226882784276003  1.0000
  C   C23       1.0  0.015293211184939499  0.1186129589901626  0.0473777874880028  1.0000
  C   C24       1.0  0.9847029494061984  0.8813985594729559  0.9526232451328553  1.0000
  C   C25       1.0  0.5897959187801901  0.6713379283819663  0.3970243727068308  1.0000
  C   C26       1.0  0.4101962227028864  0.3286636816192399  0.6029739673960606  1.0000
  C   C27       1.0  0.6428928763748729  0.7664405843705637  0.3301372560775206  1.0000
  C   C28       1.0  0.3571048750837562  0.233559787072906  0.6698605477140447  1.0000
  C   C29       1.0  0.6113380810096061  0.695767241225866  0.26838811109767857  1.0000
  C   C30       1.0  0.3886737922657843  0.3042244603134208  0.7316062317995033  1.0000
  C   C31       1.0  0.655532645220866  0.7837964939670741  0.2054512237018926  1.0000
  C   C32       1.0  0.34447770177226283  0.2162026389186522  0.7945459623103021  1.0000
  C   C33       1.0  0.7293925432175783  0.9427728111132865  0.2040571228257093  1.0000
  C   C34       1.0  0.2706303562532213  0.0572275603301833  0.7959424430737556  1.0000
  C   C35       1.0  0.758944481458357  0.012388054505407796  0.2660601521285528  1.0000
  C   C36       1.0  0.24107151856715345  0.9876073627071023  0.7339386383877695  1.0000
  C   C37       1.0  0.7178287480814021  0.9237176002988718  0.3295366865006812  1.0000
  C   C38       1.0  0.2821760104645747  0.0762815325868544  0.6704615923823597  1.0000
  C   C39       1.0  0.8356116505634998  0.179857162067897  0.2650401216385703  1.0000
  C   C40       1.0  0.1643960098481116  0.8201357780291332  0.7349588520620075  1.0000
  C   C41       1.0  0.5476626205000557  0.5635858822050321  0.1427579346916588  1.0000
  C   C42       1.0  0.4523363773714805  0.4364231591426062  0.8572416092199688  1.0000
  C   C43       1.0  0.5231389527586713  0.5308012588538844  0.0689820363162781  1.0000
  C   C44       1.0  0.47683500474275314  0.4692015897050581  0.9310128759547283  1.0000
  C   C45       1.0  0.34922965206407497  0.483035041091874  0.047133997141912694  1.0000
  C   C46       1.0  0.6507499154129093  0.516966568909332  0.9528650034516489  1.0000
  C   C47       1.0  0.6739061612823959  0.5479627148853723  0.0214319026319529  1.0000
  C   C48       1.0  0.3260703321016648  0.4520549963664351  0.9785640060607718  1.0000
  O   O1        1.0  0.23226698726759307  0.991381248137813  0.4399065082978666  1.0000
  O   O2        1.0  0.7677180610144843  0.0086265546520892  0.560091185868302  1.0000
  O   O3        1.0  0.3663600508706608  0.2049850214765954  0.3747723656429046  1.0000
  O   O4        1.0  0.633644513919613  0.7950252584287867  0.6252301534722449  1.0000
  O   O5        1.0  0.0161511010439597  0.5243558043801642  0.316626940830254  1.0000
  O   O6        1.0  0.9838634372845261  0.4756433285055621  0.6833722516939603  1.0000
  O   O7        1.0  0.04091063708811049  0.5279773472089815  0.2005622895384462  1.0000
  O   O8        1.0  0.9590969802666789  0.4720180700035286  0.7994407095251859  1.0000
  O   O9        1.0  0.3309108830237264  0.102517901171943  0.1346735121964997  1.0000
  O   O10       1.0  0.6690938970506648  0.8974799931560398  0.8653289201835223  1.0000
  O   O11       1.0  0.5038255141244646  0.5370572139935419  0.39304607733765107  1.0000
  O   O12       1.0  0.496168110584044  0.4629394417767115  0.6069503619240282  1.0000
  O   O13       1.0  0.6344324767056121  0.7357070126351812  0.45142223320286945  1.0000
  O   O14       1.0  0.3655640068117094  0.26428592746184876  0.548576870846567  1.0000
  O   O15       1.0  0.8603966815856054  0.24840390157473988  0.3195841918804163  1.0000
  O   O16       1.0  0.1396137299927602  0.7515915156377702  0.680417746899586  1.0000
  O   O17       1.0  0.8757499390059279  0.2527215138528689  0.20331271541667206  1.0000
  O   O18       1.0  0.12426608254799729  0.7472726648019048  0.7966897147484177  1.0000
  O   O19       1.0  0.6273660050220329  0.7259744259221748  0.1427450745576593  1.0000
  O   O20       1.0  0.3726428372172492  0.2740308997522476  0.8572519141916006  1.0000
  O   O21       1.0  0.138833436211371  0.4518233860692433  0.4509041644350873  1.0000
  O   O22       1.0  0.8611602315539597  0.5481707925855233  0.54909852642772  1.0000
  O   O23       1.0  0.714604816176795  0.2524490311502916  0.4599109168562592  1.0000
  O   O24       1.0  0.2853943754504442  0.7475488631776983  0.5400879837607279  1.0000
