data_image0
_chemical_formula_structural       Al2H16C28N2O16
_chemical_formula_sum              "Al2 H16 C28 N2 O16"
_cell_length_a       6.657830880816364
_cell_length_b       11.052313241640103
_cell_length_c       17.023584767203584
_cell_angle_alpha    85.79934834052912
_cell_angle_beta     81.52234645722525
_cell_angle_gamma    73.42744616232928

_space_group_name_H-M_alt    "P 1"
_space_group_IT_number       1

loop_
  _space_group_symop_operation_xyz
  'x, y, z'

loop_
  _atom_site_type_symbol
  _atom_site_label
  _atom_site_symmetry_multiplicity
  _atom_site_fract_x
  _atom_site_fract_y
  _atom_site_fract_z
  _atom_site_occupancy
  Al  Al1       1.0  0.48657701152000504  0.5026770141088618  0.49588840915456694  1.0000
  Al  Al2       1.0  0.9876296812901867  0.5006929742505832  0.4972674227542485  1.0000
  H   H1        1.0  0.17857288882754566  0.65043951399268  0.449959152714932  1.0000
  H   H2        1.0  0.796528075431631  0.3469696521334242  0.5220155378893595  1.0000
  H   H3        1.0  0.8183481681825313  0.5215569293786898  0.7396924271504304  1.0000
  H   H4        1.0  0.7676915393852323  0.5180770113765334  0.887867216810463  1.0000
  H   H5        1.0  0.4363355528409514  0.46154664585777266  0.885244005742152  1.0000
  H   H6        1.0  0.5586961830334757  0.5208440310924374  0.1055732144536066  1.0000
  H   H7        1.0  0.22649071982259983  0.4603817627448733  0.1070121508190525  1.0000
  H   H8        1.0  0.1684557317573763  0.46262320028687026  0.2551830764273149  1.0000
  H   H9        1.0  0.85631829427664  0.7688261658977282  0.6137080764279261  1.0000
  H   H10       1.0  0.6327623438155568  0.23866746265146327  0.5994930850295505  1.0000
  H   H11       1.0  0.18619197702265922  0.11382900969402944  0.4425273294291969  1.0000
  H   H12       1.0  0.2995442942437025  0.8782891371519237  0.4499166931020468  1.0000
  H   H13       1.0  0.5202675277516419  0.4663656883936794  0.674255208087942  1.0000
  H   H14       1.0  0.46418229861424704  0.5278143674082755  0.3165940606956639  1.0000
  H   H15       1.0  0.872854181329842  0.8006765641068294  0.7665199677820098  1.0000
  H   H16       1.0  0.022948824646299174  0.24134351917674476  0.6083015213758289  1.0000
  C   C1        1.0  0.619981035598144  0.7268629080883571  0.5114528639264293  1.0000
  C   C2        1.0  0.8032753871611858  0.497631380773555  0.3516034574580189  1.0000
  C   C3        1.0  0.3567744586240025  0.2721539406401163  0.49681991065826026  1.0000
  C   C4        1.0  0.17678743293197377  0.49874628082701394  0.6416567049724549  1.0000
  C   C5        1.0  0.1542058080714951  0.4959393792313875  0.7282867578620724  1.0000
  C   C6        1.0  0.9518716591354066  0.5105440101763745  0.7720331026959499  1.0000
  C   C7        1.0  0.922644544427193  0.5081940738715431  0.8538012293641088  1.0000
  C   C8        1.0  0.09987627652527206  0.49047527064612956  0.8943827497318397  1.0000
  C   C9        1.0  0.3016571148498742  0.4756166468850436  0.8528460044012718  1.0000
  C   C10       1.0  0.3316660756629161  0.477543223945709  0.7696092707904327  1.0000
  C   C11       1.0  0.6911732892900845  0.5078056273927344  0.1390371883330914  1.0000
  C   C12       1.0  0.8946938168931523  0.4908404435801613  0.09848041455053652  1.0000
  C   C13       1.0  0.06964466242543196  0.47347139108808994  0.1401963868562532  1.0000
  C   C14       1.0  0.03621987799256486  0.47439005157889375  0.2220297932314566  1.0000
  C   C15       1.0  0.8317497483373372  0.4929016721214623  0.264797696213364  1.0000
  C   C16       1.0  0.6567723914671291  0.509834916007051  0.22215637137308872  1.0000
  C   C17       1.0  0.551050751013328  0.8669254844501709  0.5175474313144336  1.0000
  C   C18       1.0  0.6555070754526608  0.9339817485860209  0.558878552893674  1.0000
  C   C19       1.0  0.3806332290373146  0.9315580716634033  0.4789712046486515  1.0000
  C   C20       1.0  0.810369451936793  0.8716193138195221  0.6086610768247881  1.0000
  C   C21       1.0  0.9019941216016533  0.938801308291893  0.6508521007573337  1.0000
  C   C22       1.0  0.4235276864811013  0.1324510078668339  0.5094294119501797  1.0000
  C   C23       1.0  0.3165380187778054  0.0638279441875014  0.47505239736636184  1.0000
  C   C24       1.0  0.5917764151322016  0.06971093669361748  0.5542510861187893  1.0000
  C   C25       1.0  0.689759959876227  0.1360736836461029  0.5983521370060103  1.0000
  C   C26       1.0  0.8434942409963495  0.0732105893755914  0.6447709872369743  1.0000
  C   C27       1.0  0.0746384687159746  0.8708913296890585  0.6993623934977579  1.0000
  C   C28       1.0  0.928606010859468  0.14261757749805068  0.6989616572291271  1.0000
  N   N1        1.0  0.08968315373078184  0.48614750978178  0.9781039505927823  1.0000
  N   N2        1.0  0.9067612368996478  0.4938853667058395  0.014725865648287598  1.0000
  O   O1        1.0  0.474868747268381  0.6716652758554031  0.515185104640075  1.0000
  O   O2        1.0  0.9630349871334899  0.4840169730466853  0.3878234909142506  1.0000
  O   O3        1.0  0.1573639134035218  0.3257068252974803  0.5032239930926892  1.0000
  O   O4        1.0  0.3670935827024308  0.4811059205490196  0.6037342902340015  1.0000
  O   O5        1.0  0.49900992459937044  0.3293436133744193  0.47988303115667463  1.0000
  O   O6        1.0  0.014161464204782672  0.5165233866561748  0.6063188008836846  1.0000
  O   O7        1.0  0.8177284533283212  0.6724778548512446  0.49918914175961493  1.0000
  O   O8        1.0  0.6108142246220752  0.5176869369614392  0.3878872614701692  1.0000
  O   O9        1.0  0.2221548741645663  0.5602383804627065  0.46172755378110963  1.0000
  O   O10       1.0  0.7540514157216122  0.4376493968122687  0.529122135731285  1.0000
  O   O11       1.0  0.5303191722669994  0.4612322424004701  0.7324069909589568  1.0000
  O   O12       1.0  0.4563537356910813  0.5289680298221028  0.25829050846135  1.0000
  O   O13       1.0  0.02436583843308431  0.793214954086693  0.7594564593734745  1.0000
  O   O14       1.0  0.253871246863085  0.881003525658968  0.6842054313942896  1.0000
  O   O15       1.0  0.011617831276936408  0.23641014705756894  0.6665155883931817  1.0000
  O   O16       1.0  0.920668285679966  0.11672594461761322  0.7697876920299223  1.0000
