data_image0
_chemical_formula_structural       Ho8H32C64N16Cl24
_chemical_formula_sum              "Ho8 H32 C64 N16 Cl24"
_cell_length_a       10.97222567700075
_cell_length_b       11.222711960428482
_cell_length_c       19.095245827913452
_cell_angle_alpha    106.78967455495966
_cell_angle_beta     90.00003867065674
_cell_angle_gamma    89.99997215477168

_space_group_name_H-M_alt    "P 1"
_space_group_IT_number       1

loop_
  _space_group_symop_operation_xyz
  'x, y, z'

loop_
  _atom_site_type_symbol
  _atom_site_label
  _atom_site_symmetry_multiplicity
  _atom_site_fract_x
  _atom_site_fract_y
  _atom_site_fract_z
  _atom_site_occupancy
  Ho  Ho1       1.0  0.6756624462728525  0.31011442660446414  0.2620152364143351  1.0000
  Ho  Ho2       1.0  0.1756621031835479  0.1898856397788435  0.737985714672277  1.0000
  Ho  Ho3       1.0  0.32433737491211184  0.6898861188553695  0.7379851558697084  1.0000
  Ho  Ho4       1.0  0.8243377180014163  0.8101149056809902  0.2620146776117735  1.0000
  Ho  Ho5       1.0  0.018340879155502397  0.44963362723900946  0.23167485487966394  1.0000
  Ho  Ho6       1.0  0.5183410351933729  0.050365558235895905  0.7683248379789376  1.0000
  Ho  Ho7       1.0  0.9816589420292913  0.5503659880507143  0.7683248554872293  1.0000
  Ho  Ho8       1.0  0.48165878599127865  0.9496349877792624  0.23167503070891368  1.0000
  H   H1        1.0  0.3630056091291252  0.6401244915605417  0.1883359258440507  1.0000
  H   H2        1.0  0.8630038391813031  0.85987652100453  0.8116639205938867  1.0000
  H   H3        1.0  0.6369951234479245  0.35987419300360557  0.8116636262020265  1.0000
  H   H4        1.0  0.1369950706110927  0.1401249557361979  0.18833610641477352  1.0000
  H   H5        1.0  0.2841538608651533  0.6563245917888879  0.32286057475743485  1.0000
  H   H6        1.0  0.7841537636828873  0.8436755139075343  0.6771396105346527  1.0000
  H   H7        1.0  0.7158459603194983  0.34367595422626346  0.6771392939304165  1.0000
  H   H8        1.0  0.21584605750221186  0.1563241008268719  0.3228606234284257  1.0000
  H   H9        1.0  0.20842159770396756  0.7211089157836738  0.12037201178947039  1.0000
  H   H10       1.0  0.7084199479534377  0.7788921435296601  0.8796288300434156  1.0000
  H   H11       1.0  0.7915800462656789  0.2788906983951236  0.8796287457701054  1.0000
  H   H12       1.0  0.2915798732313847  0.2211093326556011  0.120371720561586  1.0000
  H   H13       1.0  0.17866112709867107  0.8497476150821087  0.39208070664997763  1.0000
  H   H14       1.0  0.6786601335013742  0.6502525243854507  0.6079183961014536  1.0000
  H   H15       1.0  0.8213396054773411  0.1502538627689773  0.607918273166611  1.0000
  H   H16       1.0  0.32133968768324916  0.3497461607341634  0.3920806323482822  1.0000
  H   H17       1.0  0.26375511365971965  0.9789813109364259  0.5126592484877719  1.0000
  H   H18       1.0  0.763755865505935  0.5210188010752786  0.4873409299693208  1.0000
  H   H19       1.0  0.7362447075252374  0.0210192345234077  0.4873411437962716  1.0000
  H   H20       1.0  0.2362448670709725  0.4789808142143031  0.5126587803977215  1.0000
  H   H21       1.0  0.5673517246739976  0.7244183292344957  0.48712100558669397  1.0000
  H   H22       1.0  0.06735289716086611  0.7755818424726255  0.5128801542527128  1.0000
  H   H23       1.0  0.4326462737268669  0.2755812855001878  0.5128792283760859  1.0000
  H   H24       1.0  0.932647835416077  0.22441963371250037  0.48712039635245225  1.0000
  H   H25       1.0  0.1491287932748051  0.5948603692509095  0.9926955769272112  1.0000
  H   H26       1.0  0.6491269669360732  0.90514070897472  0.007304721441840907  1.0000
  H   H27       1.0  0.8508728506940813  0.40514017676396463  0.007304291760945604  1.0000
  H   H28       1.0  0.350872854248749  0.094860767210541  0.9926958291631678  1.0000
  H   H29       1.0  0.4141966530073447  0.3151853262744381  0.0019452363466711886  1.0000
  H   H30       1.0  0.9141961006667217  0.18481466681446793  0.9980552710708962  1.0000
  H   H31       1.0  0.5858049909612362  0.6848152202957534  0.9980541087453006  1.0000
  H   H32       1.0  0.0858046319103565  0.8151858786452233  0.001945121213303428  1.0000
  C   C1        1.0  0.48199892288622687  0.7512876190268115  0.4669608196379613  1.0000
  C   C2        1.0  0.9820005264398759  0.7487114935808137  0.5330403208190404  1.0000
  C   C3        1.0  0.5179990755149433  0.2487119951525542  0.5330399379210037  1.0000
  C   C4        1.0  0.0179992947447758  0.2512890524343447  0.4669595478688109  1.0000
  C   C5        1.0  0.4836684824839068  0.4259784063097526  0.14059850216693798  1.0000
  C   C6        1.0  0.983667822377697  0.07402156638146101  0.8594009813365915  1.0000
  C   C7        1.0  0.5163340728766245  0.5740212100901871  0.8594001610080256  1.0000
  C   C8        1.0  0.016332910199075498  0.9259789796335484  0.14059888735140902  1.0000
  C   C9        1.0  0.27820200322749133  0.4490226534728023  0.9911486585946178  1.0000
  C   C10       1.0  0.7782021778585955  0.050977381719682996  0.008851803254472702  1.0000
  C   C11       1.0  0.7217978179574728  0.5509778919870313  0.008851733689425607  1.0000
  C   C12       1.0  0.2217994661109159  0.9490231631845417  0.9911491126260685  1.0000
  C   C13       1.0  0.46413383547862697  0.9258898799011913  0.576506013194546  1.0000
  C   C14       1.0  0.9641353972489809  0.5741092393480757  0.42349407408389794  1.0000
  C   C15       1.0  0.5358641629225147  0.074107873382637  0.4234939041263033  1.0000
  C   C16       1.0  0.0358644239356707  0.4258913066670758  0.5765057946039533  1.0000
  C   C17       1.0  0.2425765730131104  0.3768624263916962  0.9202173475233691  1.0000
  C   C18       1.0  0.7425767950643731  0.12313761983035218  0.07978310238848961  1.0000
  C   C19       1.0  0.7574241595634914  0.6231371894532032  0.07978183924748088  1.0000
  C   C20       1.0  0.2574248489051314  0.8768629250738798  0.9202178134920516  1.0000
  C   C21       1.0  0.3219529532475462  0.7143449250123907  0.3741273480232791  1.0000
  C   C22       1.0  0.8219537361048523  0.7856551684260394  0.6258733735307302  1.0000
  C   C23       1.0  0.6780459565449914  0.28565562100290254  0.6258725206644229  1.0000
  C   C24       1.0  0.17804608508055958  0.2143444457530421  0.37412738402854023  1.0000
  C   C25       1.0  0.41909099012453777  0.8579537727449064  0.5067121963497527  1.0000
  C   C26       1.0  0.9190926000821803  0.6420453598942117  0.493288399432096  1.0000
  C   C27       1.0  0.580907919669059  0.1420458408789926  0.4932890848055607  1.0000
  C   C28       1.0  0.0809081324944216  0.35795425595069474  0.5067107873387541  1.0000
  C   C29       1.0  0.49436011690936243  0.5700482677101704  0.36075841785529406  1.0000
  C   C30       1.0  0.9943617550122142  0.9299489801748991  0.6392418865055447  1.0000
  C   C31       1.0  0.505635147314834  0.429951347580257  0.6392412925108388  1.0000
  C   C32       1.0  0.0056371547801461  0.0700506356702846  0.360757300265  1.0000
  C   C33       1.0  0.39765946115102924  0.4732589622464047  0.0997808020457569  1.0000
  C   C34       1.0  0.8976579611647181  0.026741967243282292  0.9002193345551958  1.0000
  C   C35       1.0  0.6023421828178571  0.5267415837684623  0.9002190666423998  1.0000
  C   C36       1.0  0.10234277141235991  0.9732585782164093  0.09978105772900393  1.0000
  C   C37       1.0  0.3393412932041784  0.587491203773112  0.1327109059145855  1.0000
  C   C38       1.0  0.8393395624134641  0.9125098161183802  0.8672889325940076  1.0000
  C   C39       1.0  0.6606594393728713  0.412507480791035  0.8672886461314987  1.0000
  C   C40       1.0  0.16066025877167078  0.08749165951156361  0.13271214160718614  1.0000
  C   C41       1.0  0.4318860062373915  0.6794603307082525  0.4007228973278103  1.0000
  C   C42       1.0  0.9318876518614019  0.8205378672441199  0.5992775444203885  1.0000
  C   C43       1.0  0.5681119921637503  0.32053742257557616  0.5992770199930391  1.0000
  C   C44       1.0  0.06811308071506521  0.17946267932621396  0.4007218006714268  1.0000
  C   C45       1.0  0.36854501543500356  0.40308114710560256  0.028339378757898676  1.0000
  C   C46       1.0  0.8685453872398979  0.09691886067214028  0.9716605897668414  1.0000
  C   C47       1.0  0.6314557171419111  0.5969184681839792  0.9716603316091437  1.0000
  C   C48       1.0  0.13145534533749273  0.9030816842322268  0.0283403261135504  1.0000
  C   C49       1.0  0.30962365821115156  0.8945593493768553  0.480342362271351  1.0000
  C   C50       1.0  0.8096244059938372  0.6054398177086  0.5196576732342422  1.0000
  C   C51       1.0  0.6903752515816918  0.1054411960831203  0.5196580300125362  1.0000
  C   C52       1.0  0.190376326582907  0.394558867410872  0.48034135521564986  1.0000
  C   C53       1.0  0.21974562709510784  0.5634243371835126  0.023467762608682108  1.0000
  C   C54       1.0  0.7197440126965661  0.9365776499046705  0.9765327177433961  1.0000
  C   C55       1.0  0.7802560168737855  0.4365762088313545  0.9765321060794747  1.0000
  C   C56       1.0  0.2802567198805406  0.06342475645055862  0.0234685147789193  1.0000
  C   C57       1.0  0.2519660969320229  0.6323017401573097  0.0939878056027155  1.0000
  C   C58       1.0  0.75196352256971  0.8677002369556278  0.9060126855455196  1.0000
  C   C59       1.0  0.7480346356451903  0.36769787457695463  0.9060124283605192  1.0000
  C   C60       1.0  0.24803629861466447  0.13230217051038548  0.0939874997842551  1.0000
  C   C61       1.0  0.2623415255124187  0.8222825846549494  0.4139672342521266  1.0000
  C   C62       1.0  0.7623423153029024  0.6777175277943924  0.5860329437313111  1.0000
  C   C63       1.0  0.7376564728876857  0.1777179619158105  0.586032110839227  1.0000
  C   C64       1.0  0.23765750588219703  0.32228208694000665  0.4139672902317741  1.0000
  N   N1        1.0  0.5470905347525914  0.48045198373014836  0.32971162915897156  1.0000
  N   N2        1.0  0.04709566528913459  0.0195453291710024  0.6702898510766317  1.0000
  N   N3        1.0  0.45290564086386803  0.5195467008347093  0.6702879228863452  1.0000
  N   N4        1.0  0.9529068900717377  0.9804561475691571  0.3297101759326395  1.0000
  N   N5        1.0  0.5000153641876892  0.9784796249726356  0.6345650744928335  1.0000
  N   N6        1.0  1.6489924554700002e-05  0.5215196368562758  0.36543590446277113  1.0000
  N   N7        1.0  0.499983545606355  0.0215190573705115  0.3654365719377068  1.0000
  N   N8        1.0  0.9999842426528005  0.4784790471525611  0.6345641711794983  1.0000
  N   N9        1.0  0.21318051214850436  0.3178291671083429  0.8620352313293155  1.0000
  N   N10       1.0  0.71318077317504  0.182169026763809  0.1379648920906931  1.0000
  N   N11       1.0  0.786821131820524  0.6821704481810967  0.1379644790378833  1.0000
  N   N12       1.0  0.2868208707948837  0.8178287259641337  0.8620355488269594  1.0000
  N   N13       1.0  0.5516820607254189  0.3862078021660977  0.1748645031735094  1.0000
  N   N14       1.0  0.0516827693364306  0.11378951153549369  0.8251348842151032  1.0000
  N   N15       1.0  0.44832049463538937  0.6137899527829873  0.8251338433595307  1.0000
  N   N16       1.0  0.9483188746324558  0.8862110344793731  0.17486498447305365  1.0000
  Cl  Cl1       1.0  0.7833069096218354  0.5179423602527463  0.2484477699281911  1.0000
  Cl  Cl2       1.0  0.2833109939392529  0.9820577457052336  0.7515524150808018  1.0000
  Cl  Cl3       1.0  0.2166910887791929  0.4820581846520469  0.7515531459517392  1.0000
  Cl  Cl4       1.0  0.716691561421925  0.0179437304796011  0.24844813552466152  1.0000
  Cl  Cl5       1.0  0.24025394341570208  0.41524864127932665  0.2514976826080613  1.0000
  Cl  Cl6       1.0  0.7402531476440615  0.08475326600218121  0.7485041303596773  1.0000
  Cl  Cl7       1.0  0.759748611946371  0.5847509723440114  0.7485035985478632  1.0000
  Cl  Cl8       1.0  0.259746673539567  0.9152500732999014  0.2514951660986852  1.0000
  Cl  Cl9       1.0  0.7128573469959035  0.3141942857953168  0.3947766990187418  1.0000
  Cl  Cl10      1.0  0.21285502713961077  0.18580762996835892  0.6052251047687918  1.0000
  Cl  Cl11      1.0  0.28714338558148  0.6858062591090572  0.6052242168616502  1.0000
  Cl  Cl12      1.0  0.7871447940459928  0.8141947752763696  0.39477717494575865  1.0000
  Cl  Cl13      1.0  0.014878437726615304  0.37367216477608167  0.09265239296692582  1.0000
  Cl  Cl14      1.0  0.5148814534851738  0.12632795249577103  0.9073474570529356  1.0000
  Cl  Cl15      1.0  0.9851213834589034  0.6263246577820283  0.9073473660332637  1.0000
  Cl  Cl16      1.0  0.4851183676988953  0.8736744555255598  0.09265220468065391  1.0000
  Cl  Cl17      1.0  0.03923084938009679  0.6912231885824482  0.2514844985701501  1.0000
  Cl  Cl18      1.0  0.5392281192772543  0.8087751331571909  0.7485137172230766  1.0000
  Cl  Cl19      1.0  0.9607698831958302  0.30877270658201883  0.7485119605320847  1.0000
  Cl  Cl20      1.0  0.4607671449475675  0.19122448102259426  0.2514870403354337  1.0000
  Cl  Cl21      1.0  0.9224291621245441  0.24866213683012003  0.2508486815197628  1.0000
  Cl  Cl22      1.0  0.4224306243397464  0.2513369224289548  0.7491521939318915  1.0000
  Cl  Cl23      1.0  0.0775724818448253  0.7513393387995393  0.7491523926817436  1.0000
  Cl  Cl24      1.0  0.5775710196303407  0.7486617604690905  0.25084892890291843  1.0000
