data_image0
_chemical_formula_structural       Cd4H48C72N8O16
_chemical_formula_sum              "Cd4 H48 C72 N8 O16"
_cell_length_a       8.615476451397825
_cell_length_b       13.107252887106632
_cell_length_c       14.868782598715049
_cell_angle_alpha    90.00032020100907
_cell_angle_beta     95.89832618183151
_cell_angle_gamma    89.99963425167223

_space_group_name_H-M_alt    "P 1"
_space_group_IT_number       1

loop_
  _space_group_symop_operation_xyz
  'x, y, z'

loop_
  _atom_site_type_symbol
  _atom_site_label
  _atom_site_symmetry_multiplicity
  _atom_site_fract_x
  _atom_site_fract_y
  _atom_site_fract_z
  _atom_site_occupancy
  Cd  Cd1       1.0  0.7279077009671724  0.8227688058652943  0.2120791379220748  1.0000
  Cd  Cd2       1.0  0.2720924168464691  0.3227712587824173  0.28792161063064015  1.0000
  Cd  Cd3       1.0  0.2720928617285949  0.17723281735604962  0.7879205788393833  1.0000
  Cd  Cd4       1.0  0.7279058103931391  0.6772296015134317  0.7120799840613901  1.0000
  H   H1        1.0  0.5541299437996018  0.7932243670587269  0.9026085300608102  1.0000
  H   H2        1.0  0.4458711952956378  0.2932241152591645  0.5973907325843584  1.0000
  H   H3        1.0  0.44587061718868176  0.2067787820417949  0.09739320425254053  1.0000
  H   H4        1.0  0.5541293679636182  0.7067782708964216  0.40260831166258987  1.0000
  H   H5        1.0  0.35816237613300933  0.7452211766006231  0.7742584812096994  1.0000
  H   H6        1.0  0.6418403583094091  0.24522396993835122  0.7257406410712265  1.0000
  H   H7        1.0  0.6418405191912768  0.2547796836841698  0.22574272019876676  1.0000
  H   H8        1.0  0.3581625398357104  0.7547799420812425  0.2742571977630064  1.0000
  H   H9        1.0  0.0746389375224226  0.7692878873082878  0.7900836670528906  1.0000
  H   H10       1.0  0.9253624146507208  0.26929091511622266  0.7099161633112062  1.0000
  H   H11       1.0  0.9253616234828854  0.2307114471103517  0.20991806725210443  1.0000
  H   H12       1.0  0.0746404846349904  0.7307114710263393  0.2900803304873136  1.0000
  H   H13       1.0  0.9908088576443532  0.8377057881914923  0.9327069010554754  1.0000
  H   H14       1.0  0.009191884968196002  0.33770641597138246  0.567291883834649  1.0000
  H   H15       1.0  0.009194037676529402  0.16229583502967423  0.0672943003546607  1.0000
  H   H16       1.0  0.9908075142528716  0.6622944443029796  0.432703728019888  1.0000
  H   H17       1.0  0.9869892604651938  0.7758114203335253  0.0874331695435302  1.0000
  H   H18       1.0  0.0130124422456959  0.2758127024608045  0.41256878824706433  1.0000
  H   H19       1.0  0.0130101342207496  0.2241894399579607  0.9125678224404724  1.0000
  H   H20       1.0  0.9869869558245696  0.7241919724997105  0.5874281686481879  1.0000
  H   H21       1.0  0.9760909906129812  0.9940164640361077  0.28867251631312746  1.0000
  H   H22       1.0  0.023905267163613103  0.49401260564728505  0.21132615234224522  1.0000
  H   H23       1.0  0.023911904147816205  0.005983633314457401  0.7113293576098485  1.0000
  H   H24       1.0  0.9760952983563911  0.5059913063724863  0.7886702018433098  1.0000
  H   H25       1.0  0.31033734867594387  0.028401481753064697  0.09464408748020502  1.0000
  H   H26       1.0  0.6896548936706567  0.528397367146795  0.4053560889475705  1.0000
  H   H27       1.0  0.6896597128145956  0.9716001414771115  0.9053560923729763  1.0000
  H   H28       1.0  0.31034217008744486  0.4716042560748194  0.594641400840871  1.0000
  H   H29       1.0  0.5848964273904399  0.04053209716269629  0.2529863317178638  1.0000
  H   H30       1.0  0.41510620630002387  0.5405334689964222  0.2470172161732123  1.0000
  H   H31       1.0  0.4151123006474293  0.9594649484355031  0.7470172362715745  1.0000
  H   H32       1.0  0.5848943563957433  0.459468154224929  0.7529825005882459  1.0000
  H   H33       1.0  0.5736446439851336  0.16550607576783702  0.3784973538895288  1.0000
  H   H34       1.0  0.42635454098335407  0.6655073649251765  0.12150592905988593  1.0000
  H   H35       1.0  0.4263594159714615  0.8344902069050449  0.6215066073818039  1.0000
  H   H36       1.0  0.5736448554032663  0.33449349535988665  0.8784930453755636  1.0000
  H   H37       1.0  0.6888122241438026  0.1160268562420868  0.5350664793946223  1.0000
  H   H38       1.0  0.31118815833170993  0.6160285248028288  0.9649372479193163  1.0000
  H   H39       1.0  0.31119300157889274  0.8839648488145926  0.4649388967072099  1.0000
  H   H40       1.0  0.6888089043164455  0.3839677578684473  0.035061586889803195  1.0000
  H   H41       1.0  0.8102638640634369  0.9413254685815389  0.5581446160507114  1.0000
  H   H42       1.0  0.1897347844717245  0.4413284836123027  0.9418572427937235  1.0000
  H   H43       1.0  0.1897401976210773  0.058664710593923516  0.4418573276587098  1.0000
  H   H44       1.0  0.8102611090260156  0.5586685620061332  0.05814421227363911  1.0000
  H   H45       1.0  0.8161950588187209  0.8270844610180886  0.4234995312149722  1.0000
  H   H46       1.0  0.18380735309559526  0.32708746577305453  0.076502720883461  1.0000
  H   H47       1.0  0.18380550335783138  0.172906481096156  0.5765008580392889  1.0000
  H   H48       1.0  0.8161943736621923  0.6729103427748985  0.9235004282587198  1.0000
  C   C1        1.0  0.5096905432589408  0.8480464125973413  0.0676121812420689  1.0000
  C   C2        1.0  0.4903116844008081  0.3480450532921608  0.43238680004653673  1.0000
  C   C3        1.0  0.49031001716585376  0.15195597356894552  0.9323902255857919  1.0000
  C   C4        1.0  0.5096900468750788  0.6519565699205428  0.5676109689745275  1.0000
  C   C5        1.0  0.38400016566069434  0.8384755228149957  0.990388280952388  1.0000
  C   C6        1.0  0.6160005695306482  0.3384724722723362  0.5096111798160976  1.0000
  C   C7        1.0  0.6160003947641002  0.1615268633512841  0.009614125875472711  1.0000
  C   C8        1.0  0.38400232862809247  0.6615283880017628  0.4903866590114491  1.0000
  C   C9        1.0  0.4300000593094567  0.8020892041449201  0.9084842207515396  1.0000
  C   C10       1.0  0.5699998332067013  0.3020899195258552  0.5915156834179243  1.0000
  C   C11       1.0  0.5700016685616803  0.19791318201698965  0.0915175833682937  1.0000
  C   C12       1.0  0.42999956373659387  0.6979132295661898  0.40848261850635487  1.0000
  C   C13       1.0  0.32022738179986016  0.7760456099040525  0.8365868734336317  1.0000
  C   C14       1.0  0.6797774112721483  0.2760455586443272  0.6634125234202843  1.0000
  C   C15       1.0  0.6797743466483867  0.22395448744659777  0.1634142581650053  1.0000
  C   C16       1.0  0.3202266543397414  0.7239537757526477  0.3365847126958955  1.0000
  C   C17       1.0  0.16170837846007663  0.788268976192967  0.8459423603213666  1.0000
  C   C18       1.0  0.8382939728728331  0.2882704884835334  0.6540556054065689  1.0000
  C   C19       1.0  0.8382921831121236  0.21173035822354078  0.15405870146744152  1.0000
  C   C20       1.0  0.1617089269899807  0.7117296088477689  0.3459402158707618  1.0000
  C   C21       1.0  0.1146243240446125  0.8261178420257947  0.9265433998473542  1.0000
  C   C22       1.0  0.8853765225692243  0.3261186438800294  0.5734546617898388  1.0000
  C   C23       1.0  0.8853762375241842  0.17388225532708654  0.0734576619431309  1.0000
  C   C24       1.0  0.11462521041073612  0.6738822163898704  0.42654108968100257  1.0000
  C   C25       1.0  0.22361986314253812  0.8517250425421992  0.9997770170594296  1.0000
  C   C26       1.0  0.7763784205799097  0.35172431045977254  0.5002216895938645  1.0000
  C   C27       1.0  0.7763806989897475  0.148275817744917  0.0002233722165456987  1.0000
  C   C28       1.0  0.22362097750738033  0.6482765498188671  0.499775267293039  1.0000
  C   C29       1.0  0.163860697601514  0.8934464765577277  0.0820242053698408  1.0000
  C   C30       1.0  0.8361352909960401  0.393442047296361  0.4179739531365172  1.0000
  C   C31       1.0  0.8361386976445077  0.10655590960436712  0.9179761141013145  1.0000
  C   C32       1.0  0.16386294020839642  0.6065595759208835  0.5820229339439038  1.0000
  C   C33       1.0  0.038029482764450485  0.8457328117702475  0.11719312269145382  1.0000
  C   C34       1.0  0.9619680980425969  0.34572839326997945  0.3828055692278696  1.0000
  C   C35       1.0  0.9619699124849745  0.1542688114554664  0.8828071967780389  1.0000
  C   C36       1.0  0.0380301337253215  0.6542739928814997  0.6171906453380345  1.0000
  C   C37       1.0  0.031191989983511807  0.9663625827290405  0.2305489074921425  1.0000
  C   C38       1.0  0.9687975145041817  0.46635588860526406  0.2694478761948815  1.0000
  C   C39       1.0  0.9688074047024314  0.0336382775624458  0.7694520844918531  1.0000
  C   C40       1.0  0.0311983846420389  0.533645734610012  0.730546853720675  1.0000
  C   C41       1.0  0.15402318033966372  0.020763623061206708  0.19904640661667375  1.0000
  C   C42       1.0  0.8459667981309096  0.5207581878692694  0.30095157920145255  1.0000
  C   C43       1.0  0.8459738817177679  0.9792380001668308  0.8009531007203208  1.0000
  C   C44       1.0  0.15402676725982192  0.47924267241409524  0.6990430110961301  1.0000
  C   C45       1.0  0.22001472051267262  0.9842671989895351  0.1233290996932723  1.0000
  C   C46       1.0  0.7799769573386185  0.48426274283549736  0.37666857452542507  1.0000
  C   C47       1.0  0.779984675303652  0.015734424234040003  0.8766705472600338  1.0000
  C   C48       1.0  0.2200166069217317  0.5157373545157713  0.623327360802847  1.0000
  C   C49       1.0  0.19854549378681696  0.1218039056381883  0.2412884147288494  1.0000
  C   C50       1.0  0.8014482497290346  0.6218006775398238  0.2587109652416757  1.0000
  C   C51       1.0  0.8014515682740182  0.8781969546534752  0.7587110926064754  1.0000
  C   C52       1.0  0.19854531338732068  0.37820170862485003  0.7412863151239791  1.0000
  C   C53       1.0  0.6341313162240995  0.022043211879733297  0.32159617502872356  1.0000
  C   C54       1.0  0.3658679818558993  0.5220458799488271  0.1784070824882633  1.0000
  C   C55       1.0  0.365872745436576  0.9779523078503518  0.6784057686923859  1.0000
  C   C56       1.0  0.6341314128266405  0.47795574327903273  0.8215939094974091  1.0000
  C   C57       1.0  0.627146932373897  0.09105486068169448  0.3921399395090575  1.0000
  C   C58       1.0  0.3728505833941469  0.5910562877614183  0.10786287784419812  1.0000
  C   C59       1.0  0.3728559618472502  0.9089391331800131  0.6078626069167399  1.0000
  C   C60       1.0  0.6271476455563486  0.4089422837188864  0.8921366992942695  1.0000
  C   C61       1.0  0.6924017993165706  0.06333523101347542  0.47849970800536573  1.0000
  C   C62       1.0  0.3075947964277645  0.56333790870125  0.021503590689938807  1.0000
  C   C63       1.0  0.3076022617942442  0.936656474036873  0.5215029082235745  1.0000
  C   C64       1.0  0.6923987644380531  0.4366606627901106  0.9784963797320927  1.0000
  C   C65       1.0  0.7613318532323347  0.9673315715893196  0.4915033060558188  1.0000
  C   C66       1.0  0.23866580676043722  0.4673323874999085  0.008498678160670202  1.0000
  C   C67       1.0  0.23866987411617663  0.032660896401864606  0.5084991705584798  1.0000
  C   C68       1.0  0.7613300878744838  0.5326638951778762  0.9915014318726634  1.0000
  C   C69       1.0  0.7642654553547601  0.9030196073527466  0.41718363830953104  1.0000
  C   C70       1.0  0.2357362787589778  0.403021671254038  0.0828189462642897  1.0000
  C   C71       1.0  0.23573744000017163  0.0969743865046766  0.5828175630839001  1.0000
  C   C72       1.0  0.7642642816760414  0.5969784261031208  0.9171834605585616  1.0000
  N   N1        1.0  0.7023736903891943  0.9299290004017777  0.3336137095456877  1.0000
  N   N2        1.0  0.29762546976847654  0.4299313359550609  0.16638885323357044  1.0000
  N   N3        1.0  0.2976292043954417  0.07006575639415762  0.6663881643655998  1.0000
  N   N4        1.0  0.7023727574745351  0.5700687614044213  0.8336127414567827  1.0000
  N   N5        1.0  0.9726022403383042  0.881920964957537  0.18912249797896416  1.0000
  N   N6        1.0  0.027393849998041706  0.38191772514775135  0.3108769550986139  1.0000
  N   N7        1.0  0.0273971543476392  0.11807989533394192  0.8108784940050385  1.0000
  N   N8        1.0  0.9726032143167346  0.618086186880845  0.6891198621786643  1.0000
  O   O1        1.0  0.4729716947485231  0.8295722409501208  0.14796558761725012  1.0000
  O   O2        1.0  0.5270318646925602  0.3295709792457728  0.3520333825916779  1.0000
  O   O3        1.0  0.5270288662397603  0.17043090815040077  0.8520361466961006  1.0000
  O   O4        1.0  0.47296986658673035  0.6704298810305501  0.6479643864277165  1.0000
  O   O5        1.0  0.6491819156635117  0.8656828702299251  0.05200975579685259  1.0000
  O   O6        1.0  0.3508189888193129  0.3656829589427631  0.4479878878745609  1.0000
  O   O7        1.0  0.3508186447646935  0.13431875299998106  0.9479926510293384  1.0000
  O   O8        1.0  0.6491815761508306  0.6343171383972789  0.552009138818825  1.0000
  O   O9        1.0  0.27086434228945677  0.1839523994279731  0.19367531828775955  1.0000
  O   O10       1.0  0.7291335117233757  0.6839513037920285  0.3063273030982074  1.0000
  O   O11       1.0  0.7291350523964865  0.8160484608635129  0.8063256736962359  1.0000
  O   O12       1.0  0.27086238176074323  0.3160487935719019  0.6936741519758414  1.0000
  O   O13       1.0  0.15808093275974497  0.14388132595532  0.3184693751415182  1.0000
  O   O14       1.0  0.8419196126824602  0.6438820145867512  0.18153321041589274  1.0000
  O   O15       1.0  0.8419172961771296  0.8561202972704864  0.6815302020036285  1.0000
  O   O16       1.0  0.1580762830317681  0.35612647506874856  0.818465554611798  1.0000
