data_image0
_chemical_formula_structural       Cs4H20C16O24
_chemical_formula_sum              "Cs4 H20 C16 O24"
_cell_length_a       7.699964137183162
_cell_length_b       8.051174373002878
_cell_length_c       12.084136347813015
_cell_angle_alpha    90.00001851524847
_cell_angle_beta     103.04631888195382
_cell_angle_gamma    90.0000885451987

_space_group_name_H-M_alt    "P 1"
_space_group_IT_number       1

loop_
  _space_group_symop_operation_xyz
  'x, y, z'

loop_
  _atom_site_type_symbol
  _atom_site_label
  _atom_site_symmetry_multiplicity
  _atom_site_fract_x
  _atom_site_fract_y
  _atom_site_fract_z
  _atom_site_occupancy
  Cs  Cs1       1.0  0.7693739288224107  0.0782886576376356  0.5292032381421734  1.0000
  Cs  Cs2       1.0  0.23062262572040743  0.5782887200309119  0.9707952680874573  1.0000
  Cs  Cs3       1.0  0.23062482053184402  0.9217093026588331  0.47079607975692295  1.0000
  Cs  Cs4       1.0  0.7693761248780789  0.4217104823201793  0.029203222459884173  1.0000
  H   H1        1.0  0.1288900478384392  0.6381343911883094  0.24422826182229335  1.0000
  H   H2        1.0  0.8711090574062086  0.13813335006861394  0.2557715432702211  1.0000
  H   H3        1.0  0.8711087015180328  0.3618660532178168  0.7557710560773788  1.0000
  H   H4        1.0  0.12889235693962317  0.8618646102301283  0.7442289870349087  1.0000
  H   H5        1.0  0.12877602648613623  0.20715997430643543  0.15479448130962234  1.0000
  H   H6        1.0  0.8712218687592711  0.7071584349027091  0.3452051633737342  1.0000
  H   H7        1.0  0.8712240559876818  0.7928404701007212  0.8452050291170469  1.0000
  H   H8        1.0  0.12877688059719367  0.292842009503417  0.6547941545259378  1.0000
  H   H9        1.0  0.7146617088640141  0.4276785969226111  0.3553916602273405  1.0000
  H   H10       1.0  0.2853392471931643  0.9276798190618933  0.14460764476702082  1.0000
  H   H11       1.0  0.2853410410854097  0.5723193633767495  0.6446074079007007  1.0000
  H   H12       1.0  0.7146595009179678  0.07231814123478131  0.8553925004841151  1.0000
  H   H13       1.0  0.2951623761854806  0.44433177950292446  0.43900303264143065  1.0000
  H   H14       1.0  0.7048386070874673  0.944331094636489  0.06099793480537846  1.0000
  H   H15       1.0  0.7048390394034743  0.5556661807956047  0.5609966703116529  1.0000
  H   H16       1.0  0.2951614728978953  0.05566686566142211  0.9390032303248008  1.0000
  H   H17       1.0  0.3053198058116067  0.21144647554248053  0.31404296719036756  1.0000
  H   H18       1.0  0.6946767639640471  0.711447080197246  0.18595648696102535  1.0000
  H   H19       1.0  0.6946816122669119  0.7885552109201228  0.6859550810595041  1.0000
  H   H20       1.0  0.3053206473036952  0.2885546062634958  0.8140459478201123  1.0000
  C   C1        1.0  0.022952168306837002  0.38864775745596347  0.36214734646714675  1.0000
  C   C2        1.0  0.9770473837728135  0.8886499967057375  0.13785257519125346  1.0000
  C   C3        1.0  0.9770492472765826  0.6113439925684291  0.6378523564844942  1.0000
  C   C4        1.0  0.022950031215430003  0.111341753315763  0.862147377531443  1.0000
  C   C5        1.0  0.20826804965920337  0.4520995048234866  0.35307002824323785  1.0000
  C   C6        1.0  0.7917316143515764  0.9520989911018918  0.14693075029097719  1.0000
  C   C7        1.0  0.7917320328135135  0.5478996975288409  0.64692948218314  1.0000
  C   C8        1.0  0.2082684668791259  0.0479014533054638  0.8530695874877383  1.0000
  C   C9        1.0  0.2854806113097581  0.3351364811080586  0.274694446133168  1.0000
  C   C10       1.0  0.7145215115558514  0.8351358926478197  0.22530583567949952  1.0000
  C   C11       1.0  0.7145221386429912  0.6648652053557882  0.7253046219957329  1.0000
  C   C12       1.0  0.2854799015490812  0.16486455176077897  0.7746955219782524  1.0000
  C   C13       1.0  0.4692941007383809  0.3983199436868078  0.2662665800387672  1.0000
  C   C14       1.0  0.5307054685915632  0.8983203303093179  0.2337333461197134  1.0000
  C   C15       1.0  0.5307073148527907  0.6016805007213791  0.733733122914899  1.0000
  C   C16       1.0  0.4692932807649087  0.10168011409680841  0.7662659717799588  1.0000
  O   O1        1.0  0.895495063609367  0.49415474575623364  0.3513835700199834  1.0000
  O   O2        1.0  0.1045046754152068  0.9941557031124971  0.14861722808309002  1.0000
  O   O3        1.0  0.10450502010646551  0.505844456595888  0.6486151130543549  1.0000
  O   O4        1.0  0.8954967389350588  0.005847225405553  0.851383302223198  1.0000
  O   O5        1.0  0.007613090896299501  0.2352266540337311  0.37951727154763415  1.0000
  O   O6        1.0  0.9923861875292063  0.735226423122029  0.12048257872258725  1.0000
  O   O7        1.0  0.9923896578144423  0.7647762744851435  0.6204826239336046  1.0000
  O   O8        1.0  0.007611226229215601  0.2647802315576158  0.879518201355623  1.0000
  O   O9        1.0  0.2109392066998694  0.620119707229108  0.3192183468334947  1.0000
  O   O10       1.0  0.7890598664135737  0.1201197496357835  0.18078144987695316  1.0000
  O   O11       1.0  0.7890608745308328  0.3798807371782544  0.6807819909452207  1.0000
  O   O12       1.0  0.210938881699775  0.8798806947705416  0.8192186953747653  1.0000
  O   O13       1.0  0.16849259919826656  0.3250645449736068  0.16569824164076866  1.0000
  O   O14       1.0  0.8315068394678776  0.8250641835818087  0.334301650431435  1.0000
  O   O15       1.0  0.8315074845186744  0.6749358994333435  0.8343004414338538  1.0000
  O   O16       1.0  0.16849323927657883  0.1749362608259659  0.6657003420513592  1.0000
  O   O17       1.0  0.5014729224991754  0.4561500183089962  0.17863079694361522  1.0000
  O   O18       1.0  0.4985254168640339  0.9561516433121754  0.32136896359678263  1.0000
  O   O19       1.0  0.4985284968246761  0.5438541522630587  0.8213664239547928  1.0000
  O   O20       1.0  0.5014706612896803  0.04385376931202249  0.6786332786582251  1.0000
  O   O21       1.0  0.5890913467833059  0.38506857349148754  0.36388112814221074  1.0000
  O   O22       1.0  0.41090819766731107  0.8850687345877547  0.13611961920233992  1.0000
  O   O23       1.0  0.41091007005098856  0.6149318709164932  0.636117747459416  1.0000
  O   O24       1.0  0.5890892148424527  0.11493170981795944  0.8638819882264671  1.0000
