data_image0
_chemical_formula_structural       Tm4H28C32N4O32
_chemical_formula_sum              "Tm4 H28 C32 N4 O32"
_cell_length_a       7.41799235830935
_cell_length_b       9.802162373004748
_cell_length_c       14.579662013687217
_cell_angle_alpha    90.00001809222924
_cell_angle_beta     97.58060293739024
_cell_angle_gamma    90.00010738582934

_space_group_name_H-M_alt    "P 1"
_space_group_IT_number       1

loop_
  _space_group_symop_operation_xyz
  'x, y, z'

loop_
  _atom_site_type_symbol
  _atom_site_label
  _atom_site_symmetry_multiplicity
  _atom_site_fract_x
  _atom_site_fract_y
  _atom_site_fract_z
  _atom_site_occupancy
  Tm  Tm1       1.0  0.1480978444331456  0.5448391533611598  0.35774991460500166  1.0000
  Tm  Tm2       1.0  0.3519026877973772  0.044838347281576305  0.14225062284671713  1.0000
  Tm  Tm3       1.0  0.8518961879867818  0.45516154495006594  0.6422506554263807  1.0000
  Tm  Tm4       1.0  0.6481036006528171  0.9551603106718931  0.8577487371291287  1.0000
  H   H1        1.0  0.16615742035027384  0.11933101260303401  0.3527215752523959  1.0000
  H   H2        1.0  0.3338528189778173  0.6193268807837244  0.14728033483026345  1.0000
  H   H3        1.0  0.8338475246453642  0.8806635646167393  0.647275634132534  1.0000
  H   H4        1.0  0.6661479911727283  0.3806646358855019  0.8527234475156933  1.0000
  H   H5        1.0  0.3928354169498363  0.7835305743967498  0.5200762035250436  1.0000
  H   H6        1.0  0.10716711560531421  0.28352652137522955  0.979924329768082  1.0000
  H   H7        1.0  0.6071599644190117  0.2164701239157765  0.4799258315842609  1.0000
  H   H8        1.0  0.8928351039995236  0.7164721365749857  0.02007337702284671  1.0000
  H   H9        1.0  0.20930192926702057  0.1216010204727098  0.6509725798372161  1.0000
  H   H10       1.0  0.2906920131431577  0.6216020235849486  0.8490286976750386  1.0000
  H   H11       1.0  0.7906921251541449  0.8784017182040033  0.34902524814570784  1.0000
  H   H12       1.0  0.7093074425746764  0.3784017352798586  0.15097430510756746  1.0000
  H   H13       1.0  0.9245496210010061  0.6330242830070603  0.1807703309448884  1.0000
  H   H14       1.0  0.5754465912046102  0.133024190404825  0.319228939515277  1.0000
  H   H15       1.0  0.07544716431852551  0.36698049603742083  0.8192263141210108  1.0000
  H   H16       1.0  0.4245487791662726  0.8669775280910699  0.6807744666186439  1.0000
  H   H17       1.0  0.7640730639787918  0.5526368317469378  0.29329572923278147  1.0000
  H   H18       1.0  0.7359256543878915  0.05263691257847822  0.20670438382677506  1.0000
  H   H19       1.0  0.23591963599380247  0.4473659069286457  0.7067013191844398  1.0000
  H   H20       1.0  0.26407653222302935  0.9473648059218573  0.7932974360380103  1.0000
  H   H21       1.0  0.7947948544702115  0.44117167039349453  0.3701292149452372  1.0000
  H   H22       1.0  0.7052062358060098  0.9411714296687993  0.12987045658312016  1.0000
  H   H23       1.0  0.20519512560726128  0.5588320884631841  0.629867645365181  1.0000
  H   H24       1.0  0.2948081903362407  0.05882824847424931  0.8701322097627726  1.0000
  H   H25       1.0  0.041589508953030895  0.7688702229932434  0.20912634590551707  1.0000
  H   H26       1.0  0.45840753476465324  0.2688706572227559  0.2908726248104828  1.0000
  H   H27       1.0  0.9584140761023152  0.23113047532390854  0.7908707694270947  1.0000
  H   H28       1.0  0.5415851487050318  0.7311290209041206  0.7091264801427786  1.0000
  C   C1        1.0  0.2789429501295615  0.9389523003680937  0.42532636547586133  1.0000
  C   C2        1.0  0.22105861950650052  0.4389471972173597  0.07467226751852254  1.0000
  C   C3        1.0  0.7210565550811269  0.06104839794612362  0.5746704676962511  1.0000
  C   C4        1.0  0.778939503752092  0.5610494203642632  0.9253272136481459  1.0000
  C   C5        1.0  0.30807477666903793  0.8576896195428177  0.34129039371450187  1.0000
  C   C6        1.0  0.1919279204161413  0.35768655519155607  0.15871104402503286  1.0000
  C   C7        1.0  0.6919274264368555  0.14230903840786624  0.658709369613064  1.0000
  C   C8        1.0  0.8080715572883789  0.642308022025084  0.8412892167069548  1.0000
  C   C9        1.0  0.2034683318266772  0.06968486620543503  0.41948368936663644  1.0000
  C   C10       1.0  0.2965390644996333  0.5696796301751094  0.08051732793917672  1.0000
  C   C11       1.0  0.7965284314850223  0.9303127715582633  0.5805156977467265  1.0000
  C   C12       1.0  0.7034685728928878  0.4303139268643578  0.9194834971136105  1.0000
  C   C13       1.0  0.45493855391306676  0.5313454512413005  0.5397969304975663  1.0000
  C   C14       1.0  0.04506741622066811  0.031338240801211704  0.9602024166179961  1.0000
  C   C15       1.0  0.5450526871295479  0.4686664690836723  0.46021236308772034  1.0000
  C   C16       1.0  0.954951199760501  0.9686624575246939  0.03978682164436981  1.0000
  C   C17       1.0  0.3300878428638896  0.8837410700906929  0.5131542300907271  1.0000
  C   C18       1.0  0.16991494927702183  0.38373710883057305  0.9868463418715767  1.0000
  C   C19       1.0  0.6699089039528303  0.11625962822265731  0.4868472135598625  1.0000
  C   C20       1.0  0.8300859048786295  0.6162605289357544  0.013151956377868113  1.0000
  C   C21       1.0  0.09139376019167858  0.2756832297819757  0.4989288259944901  1.0000
  C   C22       1.0  0.40861008441601854  0.7756832153829125  0.0010726741545568096  1.0000
  C   C23       1.0  0.9085921180332974  0.7243133877909714  0.5010704942028853  1.0000
  C   C24       1.0  0.5914070561190599  0.22431340221307758  0.9989308658099605  1.0000
  C   C25       1.0  0.1746457118107756  0.13612938774014086  0.5011020102417663  1.0000
  C   C26       1.0  0.3253591533140039  0.6361264294954124  0.9988993397917132  1.0000
  C   C27       1.0  0.8253456282056676  0.8638672298361032  0.4988949441207709  1.0000
  C   C28       1.0  0.674656616269594  0.3638671275507265  0.0011054771431346963  1.0000
  C   C29       1.0  0.22805913444300066  0.07158858429758651  0.5860153376502668  1.0000
  C   C30       1.0  0.27194012370729587  0.5715895915060333  0.9139856112650124  1.0000
  C   C31       1.0  0.7719321890771409  0.9284100736452462  0.41398367324929825  1.0000
  C   C32       1.0  0.7280647882983828  0.42841110681304434  0.08601571119436363  1.0000
  N   N1        1.0  0.3077426726820108  0.9483921136820472  0.5918260464376673  1.0000
  N   N2        1.0  0.19225757253704504  0.4483901873043267  0.9081736768533235  1.0000
  N   N3        1.0  0.6922500162873179  0.05160756444466593  0.40817237300338166  1.0000
  N   N4        1.0  0.8077432541243326  0.5516105110119656  0.09182804895776545  1.0000
  O   O1        1.0  0.8390150740145614  0.4732329809508686  0.31211628371259803  1.0000
  O   O2        1.0  0.6609847283658398  0.9732327051364609  0.18788467715847196  1.0000
  O   O3        1.0  0.16097760946041006  0.5267707779082401  0.6878828212414521  1.0000
  O   O4        1.0  0.3390215435893823  0.026769013366660512  0.8121167393546076  1.0000
  O   O5        1.0  0.28853331722019965  0.5636351434996955  0.5210769367217625  1.0000
  O   O6        1.0  0.21147001666074772  0.0636281765772324  0.9789222347467688  1.0000
  O   O7        1.0  0.711456569371194  0.4363747364580137  0.4789315772974165  1.0000
  O   O8        1.0  0.7885444974784974  0.9363735419294134  0.021069463404138816  1.0000
  O   O9        1.0  0.3305317605602128  0.7293730527454089  0.3507744726148375  1.0000
  O   O10       1.0  0.16946787323880133  0.2293709724392202  0.14922809852759406  1.0000
  O   O11       1.0  0.6694677006506565  0.2706256052039393  0.6492278446545685  1.0000
  O   O12       1.0  0.8305275356216839  0.7706246249572147  0.8507705090196682  1.0000
  O   O13       1.0  0.0028672725627529997  0.68210975324817  0.2332859261091046  1.0000
  O   O14       1.0  0.4971336262563284  0.18211125091907127  0.26671329328852533  1.0000
  O   O15       1.0  0.9971308672040353  0.3178940056143987  0.7667114985223054  1.0000
  O   O16       1.0  0.5028631150607482  0.8178894473944356  0.7332888358742767  1.0000
  O   O17       1.0  0.09535506629909211  0.3456902174126313  0.42631093513021073  1.0000
  O   O18       1.0  0.40464622325698224  0.84568819121116  0.07369246046233265  1.0000
  O   O19       1.0  0.9046322048759522  0.6543094607095342  0.5736843660479922  1.0000
  O   O20       1.0  0.5953749421262772  0.15430842638934186  0.9263182167847932  1.0000
  O   O21       1.0  0.30709491723914784  0.9206552995067417  0.2656749969886009  1.0000
  O   O22       1.0  0.1929106738509887  0.4206543124677183  0.23432528213106002  1.0000
  O   O23       1.0  0.6929113822077042  0.07934131808029583  0.7343229919624294  1.0000
  O   O24       1.0  0.8070901583034241  0.579341284933122  0.765675758166836  1.0000
  O   O25       1.0  0.0246930583577623  0.31278113636332006  0.5705603381109585  1.0000
  O   O26       1.0  0.47530409918292094  0.8127824376878652  0.9294412012808099  1.0000
  O   O27       1.0  0.9752942183142893  0.6872165013925697  0.42943427755464125  1.0000
  O   O28       1.0  0.5246994033803604  0.18722030099776532  0.07056619673535641  1.0000
  O   O29       1.0  0.5523138621703294  0.5468972086424772  0.6170534729861006  1.0000
  O   O30       1.0  0.9476903196849448  0.04689052977095541  0.8829447672171615  1.0000
  O   O31       1.0  0.44767737886832043  0.45311165113331253  0.38295582059859623  1.0000
  O   O32       1.0  0.0523228565020304  0.9531091483679647  0.11704409483100872  1.0000
