data_image0
_chemical_formula_structural       Dy2Zn2H20C30N2O20
_chemical_formula_sum              "Dy2 Zn2 H20 C30 N2 O20"
_cell_length_a       7.787594375729589
_cell_length_b       10.16491798240532
_cell_length_c       11.558888473495152
_cell_angle_alpha    69.78183827963012
_cell_angle_beta     74.69052433475647
_cell_angle_gamma    79.6297480028889

_space_group_name_H-M_alt    "P 1"
_space_group_IT_number       1

loop_
  _space_group_symop_operation_xyz
  'x, y, z'

loop_
  _atom_site_type_symbol
  _atom_site_label
  _atom_site_symmetry_multiplicity
  _atom_site_fract_x
  _atom_site_fract_y
  _atom_site_fract_z
  _atom_site_occupancy
  Dy  Dy1       1.0  0.3653120378839391  0.9498870174723134  0.17675849131592983  1.0000
  Dy  Dy2       1.0  0.6346833555154134  0.050108105397292484  0.8232346524655227  1.0000
  Zn  Zn1       1.0  0.341724902805133  0.7461034104982286  0.9655209745663598  1.0000
  Zn  Zn2       1.0  0.6582750786262749  0.2538990062023743  0.034482978969798246  1.0000
  H   H1        1.0  0.2781173182492865  0.9868686674902132  0.9450607509796357  1.0000
  H   H2        1.0  0.7218986738369395  0.013133852441718798  0.05494279041130309  1.0000
  H   H3        1.0  0.5409174651995627  0.7503678178998071  0.38188594693124855  1.0000
  H   H4        1.0  0.4590964753178497  0.24963995838096756  0.6181164043468002  1.0000
  H   H5        1.0  0.4226600433874738  0.8723641904057469  0.4279284048393636  1.0000
  H   H6        1.0  0.5773251700726547  0.12763817162758065  0.57207138914265  1.0000
  H   H7        1.0  0.9539711645436454  0.6014825571830186  0.3343200741192263  1.0000
  H   H8        1.0  0.0460368257401242  0.3984913967386347  0.6656969568156015  1.0000
  H   H9        1.0  0.718406346961352  0.45773054522535245  0.49907636044385834  1.0000
  H   H10       1.0  0.281597801721027  0.5422538072184079  0.5009512541335398  1.0000
  H   H11       1.0  0.5384066601946884  0.5472213675444164  0.6735396261724063  1.0000
  H   H12       1.0  0.4615868106368596  0.45277242214527275  0.32648369130173194  1.0000
  H   H13       1.0  0.824620061302525  0.9176003194802501  0.5199774145762674  1.0000
  H   H14       1.0  0.1753589804521454  0.08239682973488269  0.48001297236761076  1.0000
  H   H15       1.0  0.7383823199742139  0.4023830923780166  0.24264902823989595  1.0000
  H   H16       1.0  0.261619896657372  0.5976329963786354  0.7573564785124843  1.0000
  H   H17       1.0  0.04752890808512691  0.301804204270688  0.27180756581603305  1.0000
  H   H18       1.0  0.9524657972680828  0.6982086461167112  0.7282020362252625  1.0000
  H   H19       1.0  0.3028096210958608  0.4538249940622164  0.15358365726444131  1.0000
  H   H20       1.0  0.697188487979531  0.5461816103929421  0.8464211227791693  1.0000
  C   C1        1.0  0.0522058480565875  0.845427253355531  0.32405263786147753  1.0000
  C   C2        1.0  0.9477905285855357  0.1545624884841246  0.6759549103111553  1.0000
  C   C3        1.0  0.9002625783362461  0.7683567313301152  0.41612277073595993  1.0000
  C   C4        1.0  0.09971788332929782  0.2316433601520415  0.5838924292210662  1.0000
  C   C5        1.0  0.8697050514790376  0.6395468691077111  0.4098482879400864  1.0000
  C   C6        1.0  0.1302906724251898  0.36043959554991983  0.5901724745666216  1.0000
  C   C7        1.0  0.7386579162974554  0.5601124998986221  0.5015768494395161  1.0000
  C   C8        1.0  0.2613446320501254  0.43988245475922816  0.49844010577125186  1.0000
  C   C9        1.0  0.6369146756240555  0.6102909072425644  0.5993609490248699  1.0000
  C   C10       1.0  0.36308199047503814  0.38970524144492896  0.4006359775315786  1.0000
  C   C11       1.0  0.6631469137314812  0.7412183562865308  0.6046851991013611  1.0000
  C   C12       1.0  0.3368433479309799  0.2587861468989913  0.39531388128978756  1.0000
  C   C13       1.0  0.5587546092763132  0.7921795952233948  0.7128284241831581  1.0000
  C   C14       1.0  0.4412316587183086  0.20783438251234537  0.28716683557097866  1.0000
  C   C15       1.0  0.7963371949805876  0.819568220336954  0.5131765778357008  1.0000
  C   C16       1.0  0.2036441991692044  0.18044354012954497  0.4868280380882126  1.0000
  C   C17       1.0  0.9636925420477526  0.8183981489825595  0.9479731475305329  1.0000
  C   C18       1.0  0.03631968424650011  0.18160127066059317  0.052021638309121015  1.0000
  C   C19       1.0  0.9740823793732645  0.6761676056976069  0.048092766981909625  1.0000
  C   C20       1.0  0.025920739388766417  0.32382967172356547  0.9519000266467614  1.0000
  C   C21       1.0  0.8235730358170487  0.6032021080009073  0.11521871203438382  1.0000
  C   C22       1.0  0.17643371410625971  0.39679733812543816  0.8847692971238744  1.0000
  C   C23       1.0  0.6355890312398742  0.6704240003223488  0.10673471964110352  1.0000
  C   C24       1.0  0.36441309092457896  0.32956915967365313  0.8932473772052347  1.0000
  C   C25       1.0  0.8511836153270238  0.46537363835152945  0.19515099314705964  1.0000
  C   C26       1.0  0.14881589820896582  0.5346319536851067  0.8048503675596308  1.0000
  C   C27       1.0  0.023252356584734506  0.40885741269977416  0.21062484378154517  1.0000
  C   C28       1.0  0.9767523320591424  0.5911492747298865  0.7893752271809545  1.0000
  C   C29       1.0  0.1652857647549695  0.49101900375102747  0.1454791196002745  1.0000
  C   C30       1.0  0.8347164085056136  0.5089866092966845  0.8545217402866071  1.0000
  N   N1        1.0  0.1395793905995077  0.6204940894133769  0.06519847534921303  1.0000
  N   N2        1.0  0.8604267596675328  0.3795105702854115  0.9347941430914801  1.0000
  O   O1        1.0  0.09504354002451978  0.952116236006468  0.33952883595236466  1.0000
  O   O2        1.0  0.9049632655126274  0.04786516762835899  0.6604775356716246  1.0000
  O   O3        1.0  0.14250349598984968  0.7973646679386163  0.23398158229767324  1.0000
  O   O4        1.0  0.8575031262535475  0.20262731035731454  0.7660182008392269  1.0000
  O   O5        1.0  0.5820132652336341  0.9125996519415691  0.7127761200899414  1.0000
  O   O6        1.0  0.41796449930359353  0.08742696699891178  0.28721088465375993  1.0000
  O   O7        1.0  0.45490175164132307  0.7079942505607801  0.8006978437662368  1.0000
  O   O8        1.0  0.5450909953882358  0.2920103497528713  0.199292093226184  1.0000
  O   O9        1.0  0.1046106706390049  0.8789532814050816  0.8964528866440277  1.0000
  O   O10       1.0  0.8953964510647197  0.12105352598781849  0.10353544814606853  1.0000
  O   O11       1.0  0.8099185809027533  0.8641569508210832  0.9229296796906539  1.0000
  O   O12       1.0  0.19009073185579686  0.13584453932934076  0.07706675927547478  1.0000
  O   O13       1.0  0.5732374004210783  0.7569650888436923  0.16844100738600792  1.0000
  O   O14       1.0  0.4267357044547638  0.2430077364674403  0.8315603516058017  1.0000
  O   O15       1.0  0.5526807665141505  0.6288832467933716  0.04724335494893245  1.0000
  O   O16       1.0  0.4473569265721622  0.371119847541344  0.9527109880632308  1.0000
  O   O17       1.0  0.3858006381554874  0.9321081577680695  0.9713695635274107  1.0000
  O   O18       1.0  0.6142099513837421  0.06788485213341738  0.0286352300804467  1.0000
  O   O19       1.0  0.4230978809613435  0.8038822832074641  0.3859377190755924  1.0000
  O   O20       1.0  0.5769163364325962  0.19613091505561187  0.6140465203698041  1.0000
