data_image0
_chemical_formula_structural       Cu12H48C84N28O12
_chemical_formula_sum              "Cu12 H48 C84 N28 O12"
_cell_length_a       19.633053078104034
_cell_length_b       26.82238582459895
_cell_length_c       26.746772441868437
_cell_angle_alpha    98.4458266010761
_cell_angle_beta     105.66065364501341
_cell_angle_gamma    101.55468130031748

_space_group_name_H-M_alt    "P 1"
_space_group_IT_number       1

loop_
  _space_group_symop_operation_xyz
  'x, y, z'

loop_
  _atom_site_type_symbol
  _atom_site_label
  _atom_site_symmetry_multiplicity
  _atom_site_fract_x
  _atom_site_fract_y
  _atom_site_fract_z
  _atom_site_occupancy
  Cu  Cu1       1.0  0.3516484061421536  0.5852742902698082  0.454737046726251  1.0000
  Cu  Cu2       1.0  0.3647259042681767  0.6133184218236849  0.3482916282142838  1.0000
  Cu  Cu3       1.0  0.41939846972345407  0.7027484114285297  0.45025515124286386  1.0000
  Cu  Cu4       1.0  0.84503267051511  0.9195135214964977  0.5989867528082158  1.0000
  Cu  Cu5       1.0  0.923873503264133  0.8726735259730347  0.6949785925011938  1.0000
  Cu  Cu6       1.0  0.9384340739287466  0.8338935163696206  0.5852136524411619  1.0000
  Cu  Cu7       1.0  0.2565272282109561  0.43639046891573224  0.9051735870093295  1.0000
  Cu  Cu8       1.0  0.10749638943130432  0.3995345111143961  0.8103939551621478  1.0000
  Cu  Cu9       1.0  0.14507347279647578  0.3350712485412116  0.9030421576989268  1.0000
  Cu  Cu10      1.0  0.5917253217802453  0.0459525056145793  0.032955957328851995  1.0000
  Cu  Cu11      1.0  0.4915043105626395  0.05703969574317819  0.10813935831279049  1.0000
  Cu  Cu12      1.0  0.5157782722005281  0.13914440229835634  0.03762809905397554  1.0000
  H   H1        1.0  0.3477263767058574  0.4633754043985051  0.4307700666157714  1.0000
  H   H2        1.0  0.34054799342132475  0.5016444351506948  0.2777912631424044  1.0000
  H   H3        1.0  0.40183207241991425  0.7630787920609163  0.5549454779209454  1.0000
  H   H4        1.0  0.2995163607759607  0.6046535004031525  0.5567291899411728  1.0000
  H   H5        1.0  0.3900551087371796  0.6774287787738587  0.2618847149798427  1.0000
  H   H6        1.0  0.5125260732349373  0.7919750871854913  0.4069215327975825  1.0000
  H   H7        1.0  0.7940087879357237  0.009291369586854599  0.6637114369069934  1.0000
  H   H8        1.0  0.8930413422687877  0.9369113785947218  0.7895762379245994  1.0000
  H   H9        1.0  0.8955269736455875  0.8035278335342398  0.46285567241349673  1.0000
  H   H10       1.0  0.7632305318012699  0.9131851343725684  0.47641282177016825  1.0000
  H   H11       1.0  0.009462970127387393  0.8047897262520111  0.7643894539189375  1.0000
  H   H12       1.0  0.0473080308839328  0.7585561105120745  0.6139236236743101  1.0000
  H   H13       1.0  0.33828874005925513  0.5314448208374287  0.8699867410601385  1.0000
  H   H14       1.0  0.12891242918871626  0.4921623651600412  0.7469525090126226  1.0000
  H   H15       1.0  0.21615786335429726  0.313247872194914  0.01799394176793355  1.0000
  H   H16       1.0  0.3676605404642928  0.4566718962054069  0.0216887574310363  1.0000
  H   H17       1.0  0.9494503954070908  0.33014236945535197  0.742176110534821  1.0000
  H   H18       1.0  0.005197491692186394  0.24133179881706468  0.8634520818306157  1.0000
  H   H19       1.0  0.6771950339996023  0.9682208996016185  0.08305242569560521  1.0000
  H   H20       1.0  0.5368140776858396  0.9794361986920916  0.18226642477043944  1.0000
  H   H21       1.0  0.5656445059227907  0.1955054117484423  0.9534942820078172  1.0000
  H   H22       1.0  0.6605071795296383  0.0634756133361378  0.9387243423349717  1.0000
  H   H23       1.0  0.37970485565979567  0.09809844080066196  0.1605095363883109  1.0000
  H   H24       1.0  0.4371598767215374  0.22199577431964457  0.08053552409902659  1.0000
  H   H25       1.0  0.8375011344615401  0.9947847919374199  0.8566229715921381  1.0000
  H   H26       1.0  0.7948917657071065  0.08127251583148623  0.8918513049441046  1.0000
  H   H27       1.0  0.37380868002782824  0.36434081446560634  0.3871228405711875  1.0000
  H   H28       1.0  0.3767513474533359  0.2902149975302705  0.3058025622160798  1.0000
  H   H29       1.0  0.7652489733769129  0.9298972875476108  0.1642066962713783  1.0000
  H   H30       1.0  0.7802090551545787  0.8690055342043975  0.23842629855971606  1.0000
  H   H31       1.0  0.39265622585896404  0.5912903988781862  0.8051554281577394  1.0000
  H   H32       1.0  0.3826052206800696  0.6746893014924281  0.7572304473268048  1.0000
  H   H33       1.0  0.6396871003777278  0.2368284127145586  0.8884824987142109  1.0000
  H   H34       1.0  0.7171510747863651  0.235141224082696  0.8172588207496574  1.0000
  H   H35       1.0  0.3580686834342544  0.7967148974376812  0.642994254076946  1.0000
  H   H36       1.0  0.29287233414029856  0.784464187253377  0.720732982773221  1.0000
  H   H37       1.0  0.4393030678651755  0.4584474684391466  0.1288129673305605  1.0000
  H   H38       1.0  0.45950216078388445  0.42348071836739354  0.2218497120805267  1.0000
  H   H39       1.0  0.8217142002695113  0.7712639123122783  0.35884483301185804  1.0000
  H   H40       1.0  0.7258699347872621  0.7726929048306412  0.26318686144517756  1.0000
  H   H41       1.0  0.8189637709132995  0.24345849572414827  0.691442351314592  1.0000
  H   H42       1.0  0.7102253889795804  0.16432047448834194  0.6976723641848821  1.0000
  H   H43       1.0  0.4041368935178297  0.7722623973147974  0.21342653490032854  1.0000
  H   H44       1.0  0.5137664796565743  0.8323554540825312  0.18647018202160828  1.0000
  H   H45       1.0  0.08006680848967566  0.7310984180574068  0.8023065790398505  1.0000
  H   H46       1.0  0.18743996535198448  0.6784775084237538  0.8094068284461642  1.0000
  H   H47       1.0  0.2601862071341898  0.14824643213294308  0.1700426096689824  1.0000
  H   H48       1.0  0.2315587032282593  0.2390592565360095  0.2114300196042436  1.0000
  C   C1        1.0  0.3460878554733782  0.48132376171069774  0.3968122894213622  1.0000
  C   C2        1.0  0.3443886976191237  0.45970014701081396  0.3452066022153701  1.0000
  C   C3        1.0  0.3420541860036366  0.5010353083671432  0.3185308229524253  1.0000
  C   C4        1.0  0.3803435996064408  0.7212786649899882  0.5480484927474051  1.0000
  C   C5        1.0  0.34188028957385086  0.6920330199141417  0.5758286672507679  1.0000
  C   C6        1.0  0.32800203503764896  0.6402255112276835  0.5488513413510958  1.0000
  C   C7        1.0  0.4141597163077435  0.7000394590508777  0.3023087680805077  1.0000
  C   C8        1.0  0.4629670863370449  0.7496079526440266  0.32101577667235387  1.0000
  C   C9        1.0  0.47757442869745853  0.7584897544661046  0.37646346387121105  1.0000
  C   C10       1.0  0.8208895129776294  0.9857461428784544  0.6882266347930112  1.0000
  C   C11       1.0  0.8352076004437307  0.9882478051541239  0.7430967397963997  1.0000
  C   C12       1.0  0.8712011703464029  0.9486706363489078  0.7526298287509903  1.0000
  C   C13       1.0  0.8684844854054246  0.8323683574507111  0.47538713470853367  1.0000
  C   C14       1.0  0.8152646443151781  0.8530196043447802  0.4447975563895595  1.0000
  C   C15       1.0  0.8009193463505042  0.8884719243701581  0.48241262158036596  1.0000
  C   C16       1.0  0.0109661932404776  0.7984953157086847  0.7237451639897329  1.0000
  C   C17       1.0  0.04731775842782326  0.7672226668386202  0.6991639379916349  1.0000
  C   C18       1.0  0.03066917137888942  0.7750760836324914  0.646825187440001  1.0000
  C   C19       1.0  0.2832894687275028  0.5143383164737543  0.8432151824107663  1.0000
  C   C20       1.0  0.24463826636572605  0.5306828556710029  0.7988792537745225  1.0000
  C   C21       1.0  0.1759994582105691  0.4945525371901808  0.7805401497476794  1.0000
  C   C22       1.0  0.24667120204750145  0.3479671304846832  0.009988923758001506  1.0000
  C   C23       1.0  0.3088247638892696  0.38588893807545316  0.04369947639065687  1.0000
  C   C24       1.0  0.32432436142319426  0.42130301937313414  0.011960411080352173  1.0000
  C   C25       1.0  0.9746188123276341  0.31425505644882895  0.7754567087193678  1.0000
  C   C26       1.0  0.947089842561738  0.26947303841671294  0.7924036529698526  1.0000
  C   C27       1.0  0.003217705951534794  0.26912652869160064  0.8377812342115476  1.0000
  C   C28       1.0  0.6373383781076924  0.9764183044177343  0.10223388454550526  1.0000
  C   C29       1.0  0.6227300465085077  0.9602202107823812  0.14676644017658444  1.0000
  C   C30       1.0  0.5651776801091657  0.9819034823994527  0.15272662225305567  1.0000
  C   C31       1.0  0.5843004665990535  0.1603051021299891  0.9564055132898801  1.0000
  C   C32       1.0  0.6261819774323031  0.13781239291559189  0.9289105579047714  1.0000
  C   C33       1.0  0.6326264069829506  0.09270691507340698  0.9487980085327052  1.0000
  C   C34       1.0  0.39984098266030804  0.12316813035592132  0.13654049547022845  1.0000
  C   C35       1.0  0.3900080639828616  0.17261458312982816  0.13040092199222636  1.0000
  C   C36       1.0  0.42999136113710523  0.18684961734952313  0.09612768777203941  1.0000
  C   C37       1.0  0.8176333736428774  0.022219276892961697  0.7819200224217937  1.0000
  C   C38       1.0  0.8208879674932066  0.0231346114020425  0.8340137462127402  1.0000
  C   C39       1.0  0.7985245881855861  0.06799871595832489  0.8526518180519389  1.0000
  C   C40       1.0  0.7820050209697058  0.09150611465396707  0.8103358001128029  1.0000
  C   C41       1.0  0.3479965879576454  0.40813946726662914  0.32433552554520867  1.0000
  C   C42       1.0  0.36341485484925334  0.3665972618840101  0.34566483348182686  1.0000
  C   C43       1.0  0.3657477568031027  0.3279589804137828  0.30364491079765094  1.0000
  C   C44       1.0  0.3505014276757237  0.3481975846442679  0.2588607446940472  1.0000
  C   C45       1.0  0.6612033061687725  0.930402728955208  0.17952398640442616  1.0000
  C   C46       1.0  0.7268321175344568  0.9177719521207378  0.18527821312882506  1.0000
  C   C47       1.0  0.7352435532351363  0.8862559239315143  0.224143411492001  1.0000
  C   C48       1.0  0.6741539845213466  0.8821440345540593  0.24034713304660463  1.0000
  C   C49       1.0  0.2730769863591647  0.5746480714078857  0.7788059125080551  1.0000
  C   C50       1.0  0.3431935973440475  0.6014987434466265  0.7849380850219986  1.0000
  C   C51       1.0  0.3384305419734801  0.6447172265739738  0.7599255956266617  1.0000
  C   C52       1.0  0.2653459392968216  0.6410744508201346  0.7392135011580194  1.0000
  C   C53       1.0  0.6564847855146212  0.1587587480315023  0.890931330766314  1.0000
  C   C54       1.0  0.6616014777564132  0.20522521295938392  0.8747973560177584  1.0000
  C   C55       1.0  0.7021828769693884  0.20480969357596723  0.8378007255699131  1.0000
  C   C56       1.0  0.718949899580423  0.15741101366783988  0.8333182947464337  1.0000
  C   C57       1.0  0.3204551374478726  0.7113647111132408  0.6207490775815997  1.0000
  C   C58       1.0  0.3297857303698848  0.7604272875363733  0.6497342792031375  1.0000
  C   C59       1.0  0.2961092742592513  0.7543275670802173  0.6902912972720116  1.0000
  C   C60       1.0  0.26753563988616225  0.7019437765758806  0.6832416662172633  1.0000
  C   C61       1.0  0.3466540128979431  0.38924584169904364  0.0986504701296695  1.0000
  C   C62       1.0  0.40644221155783805  0.42401914282412173  0.1356674209918154  1.0000
  C   C63       1.0  0.41739356577713954  0.4060087637557431  0.18419353345148437  1.0000
  C   C64       1.0  0.3628177225682593  0.36164561064886414  0.17403036069634936  1.0000
  C   C65       1.0  0.7818415215234467  0.8372236353106498  0.3881398099923387  1.0000
  C   C66       1.0  0.7870912031110108  0.7978864069793372  0.3510459297087252  1.0000
  C   C67       1.0  0.7373905839193426  0.7984294291763588  0.30137951177083266  1.0000
  C   C68       1.0  0.7052992756566425  0.8380740725101388  0.31082127362723355  1.0000
  C   C69       1.0  0.8765337022916952  0.23303986468723534  0.7704273636230282  1.0000
  C   C70       1.0  0.8197601546752652  0.22347068788253208  0.7239437814193721  1.0000
  C   C71       1.0  0.7632876182640088  0.18219801147959913  0.7268535580955486  1.0000
  C   C72       1.0  0.7885936151143653  0.16904105655324736  0.7746033164250932  1.0000
  C   C73       1.0  0.49045400570083336  0.7813180712676909  0.28808641221501563  1.0000
  C   C74       1.0  0.4607829812480587  0.787959209819412  0.2376632965699769  1.0000
  C   C75       1.0  0.5176360469103685  0.8193127489201899  0.22331715339171854  1.0000
  C   C76       1.0  0.5789068530506967  0.8300011426387641  0.2665018972045701  1.0000
  C   C77       1.0  0.09247763002035464  0.7360654742688694  0.7239718375129341  1.0000
  C   C78       1.0  0.10644373088799598  0.7222500802741435  0.772481376094099  1.0000
  C   C79       1.0  0.16251972525726893  0.6949044052981675  0.7765492039954083  1.0000
  C   C80       1.0  0.17854858106478827  0.69319748982668  0.7296341879074715  1.0000
  C   C81       1.0  0.3491325300383679  0.2016726140296541  0.15508064306401792  1.0000
  C   C82       1.0  0.29012954177802897  0.18777552791259913  0.17299849265042158  1.0000
  C   C83       1.0  0.2745282097158608  0.2347522627570271  0.19407570251469508  1.0000
  C   C84       1.0  0.3257907476941284  0.27458705413251033  0.18850544981029319  1.0000
  N   N1        1.0  0.342839914967044  0.5441102747118479  0.35205237937086054  1.0000
  N   N2        1.0  0.3453315981222858  0.5319071919953301  0.4004778923350472  1.0000
  N   N3        1.0  0.3561408610251674  0.6389667332855921  0.5080331386292086  1.0000
  N   N4        1.0  0.38854407961855475  0.6891949647117525  0.5074963203870267  1.0000
  N   N5        1.0  0.4398796960980532  0.7170942216418935  0.3894921673261962  1.0000
  N   N6        1.0  0.40053595875807  0.6808802375866349  0.343410449502663  1.0000
  N   N7        1.0  0.877483969051461  0.924436473186908  0.7068725488050304  1.0000
  N   N8        1.0  0.8464966785244742  0.9473653527785044  0.6668962937290459  1.0000
  N   N9        1.0  0.8424208628325474  0.8884926203690783  0.5317795582366003  1.0000
  N   N10       1.0  0.8842162566256777  0.8536778869186676  0.5272596915756296  1.0000
  N   N11       1.0  0.9875783481394935  0.8086353190007428  0.6410325699593501  1.0000
  N   N12       1.0  0.9753570272962406  0.8229722580084767  0.6885892664494904  1.0000
  N   N13       1.0  0.1744151809578652  0.4593274971895837  0.8117989400521708  1.0000
  N   N14       1.0  0.2409638761814179  0.471646263054147  0.850548362953745  1.0000
  N   N15       1.0  0.2747424422760503  0.4056360289875727  0.9631227288798883  1.0000
  N   N16       1.0  0.22672798244678208  0.3602629989299757  0.9618795117851136  1.0000
  N   N17       1.0  0.059835009171095487  0.3107222645205994  0.8470398322331079  1.0000
  N   N18       1.0  0.04216600511141167  0.3387571380118785  0.8085128823847398  1.0000
  N   N19       1.0  0.547433566056661  0.009280335135763098  0.11469295883734533  1.0000
  N   N20       1.0  0.5922618228690341  0.005925540850199699  0.08350779397807885  1.0000
  N   N21       1.0  0.5972892017507904  0.08899555647315789  0.985588151904402  1.0000
  N   N22       1.0  0.5675605230755353  0.1308941183686656  0.9902353365939051  1.0000
  N   N23       1.0  0.4611135492918805  0.14847057548850268  0.08288765493968953  1.0000
  N   N24       1.0  0.4425386429042036  0.1090593589326048  0.107960547759113  1.0000
  N   N25       1.0  0.7565240173184336  0.13553572641217224  0.8020371295126125  1.0000
  N   N26       1.0  0.34229579762791923  0.3284429623816719  0.20581082482924978  1.0000
  N   N27       1.0  0.652239400925467  0.8567173252863469  0.27755400608192815  1.0000
  N   N28       1.0  0.22841506514438945  0.6722422247387525  0.7101113542282533  1.0000
  O   O1        1.0  0.7925843445946157  0.06422693499406049  0.7666508129393038  1.0000
  O   O2        1.0  0.33876626037856983  0.39650223255887346  0.2701362914523813  1.0000
  O   O3        1.0  0.6284155085103363  0.9088378893767272  0.21423359954683718  1.0000
  O   O4        1.0  0.2240616867827256  0.5983955322659539  0.7494718464832459  1.0000
  O   O5        1.0  0.6921370022263104  0.1285927801456381  0.8649389644487114  1.0000
  O   O6        1.0  0.2811409437924297  0.6748945686362829  0.6407986751074617  1.0000
  O   O7        1.0  0.31866341549876853  0.3507010260241329  0.12229133977413648  1.0000
  O   O8        1.0  0.7320454277031913  0.8626059596704392  0.3638115738969104  1.0000
  O   O9        1.0  0.8579877972938091  0.19988846071125718  0.8020359837200387  1.0000
  O   O10       1.0  0.564007314448773  0.8082950746350689  0.3067020646816729  1.0000
  O   O11       1.0  0.13613352184189145  0.7171137662549966  0.6965972929420303  1.0000
  O   O12       1.0  0.3721312432471038  0.2555022697546788  0.1649621424810306  1.0000
