data_image0
_chemical_formula_structural       Sm4H32C28N4O32
_chemical_formula_sum              "Sm4 H32 C28 N4 O32"
_cell_length_a       7.714060803083898
_cell_length_b       9.204779627609769
_cell_length_c       15.500853594467898
_cell_angle_alpha    100.99571509738024
_cell_angle_beta     89.9997024568261
_cell_angle_gamma    89.99960600698569

_space_group_name_H-M_alt    "P 1"
_space_group_IT_number       1

loop_
  _space_group_symop_operation_xyz
  'x, y, z'

loop_
  _atom_site_type_symbol
  _atom_site_label
  _atom_site_symmetry_multiplicity
  _atom_site_fract_x
  _atom_site_fract_y
  _atom_site_fract_z
  _atom_site_occupancy
  Sm  Sm1       1.0  0.8242983841503245  0.9891951891493563  0.7475746321943006  1.0000
  Sm  Sm2       1.0  0.32429921230357917  0.5107965216801912  0.7524268054009724  1.0000
  Sm  Sm3       1.0  0.17569993001263376  0.010794872260362402  0.2524249883583991  1.0000
  Sm  Sm4       1.0  0.6757003981384458  0.489208197083407  0.24757096577196347  1.0000
  H   H1        1.0  0.0778190041215439  0.14729200651708396  0.8983220900780469  1.0000
  H   H2        1.0  0.5778337880027493  0.35270550874246  0.6016774013749427  1.0000
  H   H3        1.0  0.9221754210088232  0.8527059364355338  0.1016766821685451  1.0000
  H   H4        1.0  0.4221839711049853  0.6473002212566286  0.3983218009031049  1.0000
  H   H5        1.0  0.11994112781515302  0.18011568140957473  0.8010960463753706  1.0000
  H   H6        1.0  0.6199487498971408  0.3198757494548161  0.6989063717253288  1.0000
  H   H7        1.0  0.8800364448618582  0.8199008225201254  0.1989085186443518  1.0000
  H   H8        1.0  0.3800469716256671  0.6801087834505566  0.3010924850720258  1.0000
  H   H9        1.0  0.5459736869723884  0.980064077080499  0.5898901072646084  1.0000
  H   H10       1.0  0.04599231019635399  0.5199642514783704  0.9101248451656049  1.0000
  H   H11       1.0  0.4540272200237326  0.019902319722987696  0.4100972040501319  1.0000
  H   H12       1.0  0.9540060037709637  0.4800561559486383  0.08988736194018541  1.0000
  H   H13       1.0  0.6850445272553073  0.09117181523869532  0.5673068003558157  1.0000
  H   H14       1.0  0.1850452574922201  0.4088334739211916  0.9326986581807831  1.0000
  H   H15       1.0  0.31495767588578616  0.9088166684143032  0.4326990593599406  1.0000
  H   H16       1.0  0.814954352877841  0.5911784655145029  0.0673072133697445  1.0000
  H   H17       1.0  0.4963133357461231  0.8431813915536422  0.7877401052377452  1.0000
  H   H18       1.0  0.9963066981753242  0.6568095361778176  0.7122562668748174  1.0000
  H   H19       1.0  0.5037005344093402  0.1568024332306095  0.2122683394109757  1.0000
  H   H20       1.0  0.0036929122726405994  0.343195276994102  0.2877402259137725  1.0000
  H   H21       1.0  0.48695440667405876  0.8194001424856194  0.6875157419568723  1.0000
  H   H22       1.0  0.9869556373387097  0.6805889176259398  0.8124765216483356  1.0000
  H   H23       1.0  0.5130516854647311  0.1805930471899373  0.3124868936070229  1.0000
  H   H24       1.0  0.013054343793541501  0.31941488421817604  0.1875185399861437  1.0000
  H   H25       1.0  0.508599371640976  0.38267739010927926  0.015252491245405486  1.0000
  H   H26       1.0  0.0086112131075424  0.1173309477247599  0.4847478440955442  1.0000
  H   H27       1.0  0.4913756083820359  0.6173369496278694  0.9847511290826817  1.0000
  H   H28       1.0  0.9913909900112401  0.8826727125320628  0.5152491351288049  1.0000
  H   H29       1.0  0.7309192470574787  0.010288239144728099  0.1077822925569976  1.0000
  H   H30       1.0  0.23094689436295818  0.48970889692788666  0.3922133471911096  1.0000
  H   H31       1.0  0.2690686962823036  0.9897245228063339  0.8922275669185497  1.0000
  H   H32       1.0  0.7690760502021943  0.5102748606159295  0.6077808824623149  1.0000
  C   C1        1.0  0.6247912410817946  0.20908417629602377  0.919614649416218  1.0000
  C   C2        1.0  0.1247861413000493  0.29090851773116105  0.5803853480216148  1.0000
  C   C3        1.0  0.3752135546562058  0.7909139282424107  0.08039705940791457  1.0000
  C   C4        1.0  0.8752108765793877  0.7090823461534441  0.4196034062664182  1.0000
  C   C5        1.0  0.5746092282468567  0.276363334962717  0.003446375188495704  1.0000
  C   C6        1.0  0.07462390937787688  0.22363549390131957  0.4965557072418251  1.0000
  C   C7        1.0  0.42536964084627027  0.7236293827593697  0.996562652343876  1.0000
  C   C8        1.0  0.9253834791129663  0.776368732788619  0.5034336016675739  1.0000
  C   C9        1.0  0.6163563196372834  0.2072475539883811  0.074686460487456  1.0000
  C   C10       1.0  0.11636851147279967  0.29275474657593736  0.42531018400451615  1.0000
  C   C11       1.0  0.3836536614526409  0.7927531867757905  0.9253198011021555  1.0000
  C   C12       1.0  0.8836596183318121  0.7072525611337142  0.5746827790859754  1.0000
  C   C13       1.0  0.6983047938374725  0.0670826945157046  0.05452394088121081  1.0000
  C   C14       1.0  0.1983181491283048  0.43291018272086756  0.4454718391593247  1.0000
  C   C15       1.0  0.30169092752664983  0.9329267975066955  0.9454848211329222  1.0000
  C   C16       1.0  0.8017034990526425  0.5670847262609441  0.5545226396315855  1.0000
  C   C17       1.0  0.7417575159404989  0.007486647334296493  0.9680388505071991  1.0000
  C   C18       1.0  0.2417757614986584  0.49251293493711756  0.5319630925697183  1.0000
  C   C19       1.0  0.2582135750320731  0.9925352907208096  0.031967756667803826  1.0000
  C   C20       1.0  0.7582407013706387  0.5074751982337135  0.4680323872948549  1.0000
  C   C21       1.0  0.5970977245542669  0.28153131203792003  0.8420295969639896  1.0000
  C   C22       1.0  0.09708730201816711  0.21847440487565714  0.6579780814081888  1.0000
  C   C23       1.0  0.4029057748769844  0.7184588637702445  0.1579835993673271  1.0000
  C   C24       1.0  0.9028889743504891  0.7815389235630691  0.3420241077813699  1.0000
  C   C25       1.0  0.8359481401497818  0.8614038789525579  0.94015493926986  1.0000
  C   C26       1.0  0.3359627284340333  0.6386197745866441  0.5598515272649821  1.0000
  C   C27       1.0  0.1640527663515172  0.13864426543808858  0.05985980824614501  1.0000
  C   C28       1.0  0.6640602160268897  0.36138263828801337  0.4401472167482795  1.0000
  N   N1        1.0  0.707390426477069  0.07792531417288731  0.9012703398205988  1.0000
  N   N2        1.0  0.20739566151451072  0.42206731715057083  0.5987229818156125  1.0000
  N   N3        1.0  0.2926169620232671  0.922070700557626  0.09872429174677685  1.0000
  N   N4        1.0  0.7926130233971449  0.5779191710902438  0.40126452225236875  1.0000
  O   O1        1.0  0.05940765102642589  0.110761641157346  0.834048702379647  1.0000
  O   O2        1.0  0.5594111042540033  0.38923157051592483  0.6659502413578267  1.0000
  O   O3        1.0  0.9405893667559867  0.8892420191162602  0.16594827685361221  1.0000
  O   O4        1.0  0.44060017318030026  0.6107741122999854  0.334049600123528  1.0000
  O   O5        1.0  0.6656022891506909  0.012333348470328099  0.6004407357951537  1.0000
  O   O6        1.0  0.16560654728206706  0.48765663390737746  0.8995620118313925  1.0000
  O   O7        1.0  0.334388246985867  0.9876527822028649  0.39956673601324166  1.0000
  O   O8        1.0  0.8343826925432866  0.512337027864305  0.1004342318397633  1.0000
  O   O9        1.0  0.5404237397544022  0.8896764594647096  0.7379830138429428  1.0000
  O   O10       1.0  0.04041322953734291  0.6103088099143221  0.7620105070199159  1.0000
  O   O11       1.0  0.4595875377477512  0.11030760134872963  0.2620222348493755  1.0000
  O   O12       1.0  0.9595876772648565  0.3896939334607836  0.23798376268602087  1.0000
  O   O13       1.0  0.6811383580093918  0.22650946214771756  0.7718050421873174  1.0000
  O   O14       1.0  0.18116434789485678  0.27349891329723863  0.7281892297747633  1.0000
  O   O15       1.0  0.3188145844086634  0.7734965040819686  0.2281909642412572  1.0000
  O   O16       1.0  0.818808039489376  0.7265146983790275  0.2718091242684579  1.0000
  O   O17       1.0  0.4964070498794158  0.3913202455640459  0.8491946560099919  1.0000
  O   O18       1.0  0.9963521851668061  0.10870742800521777  0.6507969605737787  1.0000
  O   O19       1.0  0.5036158946699487  0.6086704294200088  0.1507966550021749  1.0000
  O   O20       1.0  0.0035903864133075996  0.8913317565386334  0.34920298923925236  1.0000
  O   O21       1.0  0.8728151381718446  0.828864785698002  0.8577401156127638  1.0000
  O   O22       1.0  0.3728091759365738  0.6711315259354577  0.6422702285184485  1.0000
  O   O23       1.0  0.1272078062271831  0.1711282823174329  0.14227929167054754  1.0000
  O   O24       1.0  0.6271969162533536  0.3288541126388934  0.35772878101304434  1.0000
  O   O25       1.0  0.8743054456530642  0.7815780538277508  0.995156373567113  1.0000
  O   O26       1.0  0.37431340033544563  0.7184155246525562  0.5048303434925999  1.0000
  O   O27       1.0  0.12568638696494355  0.2184056366057021  0.004823641160072601  1.0000
  O   O28       1.0  0.6257043588237751  0.2815838543561994  0.4951641071206652  1.0000
  O   O29       1.0  0.5807414500206888  0.27062912669322964  0.1561286404534314  1.0000
  O   O30       1.0  0.0807498228387189  0.22936119450672265  0.3438670853605572  1.0000
  O   O31       1.0  0.4192490861440206  0.7293622292608504  0.8438685760959147  1.0000
  O   O32       1.0  0.9192627509867748  0.7706370316121037  0.6561278517018323  1.0000
