data_image0
_chemical_formula_structural       Zn6H24C40N12O16
_chemical_formula_sum              "Zn6 H24 C40 N12 O16"
_cell_length_a       7.814595629978039
_cell_length_b       8.581924792327179
_cell_length_c       19.94143554500255
_cell_angle_alpha    89.99995194684266
_cell_angle_beta     90.00004806243524
_cell_angle_gamma    112.53015657067935

_space_group_name_H-M_alt    "P 1"
_space_group_IT_number       1

loop_
  _space_group_symop_operation_xyz
  'x, y, z'

loop_
  _atom_site_type_symbol
  _atom_site_label
  _atom_site_symmetry_multiplicity
  _atom_site_fract_x
  _atom_site_fract_y
  _atom_site_fract_z
  _atom_site_occupancy
  Zn  Zn1       1.0  0.9999987040994397  0.5000002209354479  0.5000001859191627  1.0000
  Zn  Zn2       1.0  0.49999954481702946  0.4999997675172382  0.9999999921519849  1.0000
  Zn  Zn3       1.0  0.530778073293227  0.22055055577890673  0.47946101597182195  1.0000
  Zn  Zn4       1.0  0.9692220043561335  0.7794512768488389  0.9794605976623675  1.0000
  Zn  Zn5       1.0  0.4692228768665457  0.7794507943544035  0.5205386902678911  1.0000
  Zn  Zn6       1.0  0.030779489087791493  0.22055133474655972  0.020538607108797208  1.0000
  H   H1        1.0  0.010724381967435121  0.6666718311924383  0.312473875331314  1.0000
  H   H2        1.0  0.48927534374718107  0.33332864775307064  0.8124751284590491  1.0000
  H   H3        1.0  0.9892765681915633  0.3333295189415822  0.6875248279715864  1.0000
  H   H4        1.0  0.5107225142825342  0.666671465502617  0.18752608218562028  1.0000
  H   H5        1.0  0.06512498973802405  0.7373434450488863  0.19047112031976354  1.0000
  H   H6        1.0  0.4348721861348323  0.262654695978533  0.690472882475568  1.0000
  H   H7        1.0  0.9348743305677514  0.2626541206995512  0.8095280844519552  1.0000
  H   H8        1.0  0.5651258597495425  0.7373428820607232  0.3095288296379978  1.0000
  H   H9        1.0  0.579648093013972  0.3035221421331896  0.14164129770817627  1.0000
  H   H10       1.0  0.9203505630052149  0.6964751105890202  0.6416413946665859  1.0000
  H   H11       1.0  0.4203515827220696  0.6964792202930639  0.8583579070629171  1.0000
  H   H12       1.0  0.07964693959345934  0.3035212059895613  0.3583588130418819  1.0000
  H   H13       1.0  0.5211553229730866  0.23455697946544526  0.2638170583430792  1.0000
  H   H14       1.0  0.9788440654481645  0.7654413617604305  0.7638171496987811  1.0000
  H   H15       1.0  0.47884362162414346  0.7654456567151442  0.7361821464276661  1.0000
  H   H16       1.0  0.02115398043543588  0.23455621627953602  0.23618355947795788  1.0000
  H   H17       1.0  0.12869045276421073  0.2222134063011012  0.577563214962943  1.0000
  H   H18       1.0  0.3713101837512197  0.777787392904024  0.07756304317521771  1.0000
  H   H19       1.0  0.8713099541114177  0.7777866823701134  0.4224369927453183  1.0000
  H   H20       1.0  0.628690766408553  0.22221395722927886  0.9224366630645023  1.0000
  H   H21       1.0  0.8690703404559839  0.8873652261249847  0.5926383602477758  1.0000
  H   H22       1.0  0.6309311439873679  0.11263586806128251  0.09263784730826793  1.0000
  H   H23       1.0  0.13093006641964414  0.1126348625462299  0.407361847460493  1.0000
  H   H24       1.0  0.36907034945655676  0.8873667435341234  0.9073613574628967  1.0000
  C   C1        1.0  0.737228216418117  0.4041172125794574  0.3683857637634064  1.0000
  C   C2        1.0  0.7627718771513866  0.5958822420751487  0.8683863466419555  1.0000
  C   C3        1.0  0.26277346488046055  0.5958828637995098  0.6316139424766549  1.0000
  C   C4        1.0  0.23722852972463215  0.4041178465957032  0.1316143625347195  1.0000
  C   C5        1.0  0.7631422101812078  0.44625115807662047  0.2953534054364796  1.0000
  C   C6        1.0  0.7368577703408973  0.553748399965862  0.7953544964304486  1.0000
  C   C7        1.0  0.23685947111736982  0.5537489183023467  0.7046463008035888  1.0000
  C   C8        1.0  0.2631420932509698  0.44625042724289443  0.20464671421478198  1.0000
  C   C9        1.0  0.9154938338238664  0.5888842067833837  0.2747250002292958  1.0000
  C   C10       1.0  0.584504297059368  0.4111141312925497  0.77472609251047  1.0000
  C   C11       1.0  0.08450784747432748  0.41111586959594604  0.7252742045423661  1.0000
  C   C12       1.0  0.4154937488246162  0.5888834467470618  0.22527511813468248  1.0000
  C   C13       1.0  0.9468088756013557  0.6272875494195631  0.20695856324582007  1.0000
  C   C14       1.0  0.5531891503856767  0.3727108845895515  0.7069601605277429  1.0000
  C   C15       1.0  0.05319044470481053  0.37271001632852563  0.7930411429943123  1.0000
  C   C16       1.0  0.4468088954986982  0.6272866934497046  0.293041551585823  1.0000
  C   C17       1.0  0.8280088906510272  0.5216099642807137  0.15869473551382643  1.0000
  C   C18       1.0  0.6719903350507153  0.4783885257608348  0.6586958323176761  1.0000
  C   C19       1.0  0.17199205950835506  0.47839138585295166  0.8413044692574801  1.0000
  C   C20       1.0  0.32800898525661626  0.5216090399861812  0.34130537832768953  1.0000
  C   C21       1.0  0.6755291717007951  0.3795025656358675  0.17953074852770365  1.0000
  C   C22       1.0  0.8244688118299588  0.6204959072017786  0.679531844275161  1.0000
  C   C23       1.0  0.3244705040348563  0.6204987967907415  0.8204679547749837  1.0000
  C   C24       1.0  0.17552977733817704  0.37950293229992843  0.320468864901443  1.0000
  C   C25       1.0  0.6421682376974615  0.34226785564247564  0.24729868937046728  1.0000
  C   C26       1.0  0.8578311251555562  0.657730508966914  0.7472997826776935  1.0000
  C   C27       1.0  0.35783198132273236  0.6577347682458737  0.7527000139320779  1.0000
  C   C28       1.0  0.14216819515177545  0.3422670567801092  0.2527014279676721  1.0000
  C   C29       1.0  0.8579020853311262  0.5620752823916818  0.08568695009221733  1.0000
  C   C30       1.0  0.642096484076717  0.43792204954121433  0.5856885531052856  1.0000
  C   C31       1.0  0.14210013925121248  0.43792605544974356  0.9143117532108892  1.0000
  C   C32       1.0  0.35790101852311534  0.5620742670363013  0.4143131590084155  1.0000
  C   C33       1.0  0.9866965096439201  0.1606764035693118  0.5606312859494836  1.0000
  C   C34       1.0  0.5133049252550066  0.8393247359279671  0.06063047304193252  1.0000
  C   C35       1.0  0.013303897231708143  0.8393236851019027  0.439368921758785  1.0000
  C   C36       1.0  0.48669656818891827  0.16067787566743158  0.9393687317292392  1.0000
  C   C37       1.0  0.8600281317294856  0.9959467587731295  0.5676205816709655  1.0000
  C   C38       1.0  0.6399745884118744  0.004054358536926403  0.06762011075155533  1.0000
  C   C39       1.0  0.1399722751461425  0.0040533298980847  0.4323796260373031  1.0000
  C   C40       1.0  0.36002763617123884  0.9959469793037883  0.9323795954883709  1.0000
  N   N1        1.0  0.9032263267894295  0.24354737614579847  0.5239047138468608  1.0000
  N   N2        1.0  0.5967750512599748  0.7564538153434058  0.023903958144117606  1.0000
  N   N3        1.0  0.09677408008619882  0.7564527125254159  0.4760954938614078  1.0000
  N   N4        1.0  0.4032258988994143  0.24354753479025254  0.9760952466271893  1.0000
  N   N5        1.0  0.7336450664726257  0.13592751671747294  0.5082247910845794  1.0000
  N   N6        1.0  0.7663557440210906  0.8640724355072535  0.008224052343095404  1.0000
  N   N7        1.0  0.2663566148263428  0.8640725596611462  0.49177541662390223  1.0000
  N   N8        1.0  0.23364466285376298  0.1359276531646643  0.9917751524283462  1.0000
  N   N9        1.0  0.7047493250460091  0.98460398225145  0.5346585380874417  1.0000
  N   N10       1.0  0.7952533440729894  0.015397181721276403  0.03465811406056221  1.0000
  N   N11       1.0  0.2952516251141545  0.015397367881504902  0.4653416696206848  1.0000
  N   N12       1.0  0.20474888050974016  0.9846041561197866  0.9653410907109579  1.0000
  O   O1        1.0  0.8795949827662284  0.46109840265755514  0.40480040703185705  1.0000
  O   O2        1.0  0.6204062537386644  0.5389035233705285  0.9048004622017132  1.0000
  O   O3        1.0  0.1204070539630066  0.5389054703988733  0.5951998006759995  1.0000
  O   O4        1.0  0.3795934219981518  0.46109783905501445  0.09519974550620704  1.0000
  O   O5        1.0  0.5730125741307931  0.31057816830308826  0.38837027275494773  1.0000
  O   O6        1.0  0.9269888247963606  0.6894212457678464  0.8883708758977351  1.0000
  O   O7        1.0  0.42698837602936385  0.6894231818298595  0.6116299349531858  1.0000
  O   O8        1.0  0.07301231321807218  0.3105775691490322  0.11162933181088164  1.0000
  O   O9        1.0  0.0014295371086489963  0.6933966002893754  0.06892018957498182  1.0000
  O   O10       1.0  0.4985701873144349  0.3065991530106729  0.5689214553663504  1.0000
  O   O11       1.0  0.9985723320434302  0.3066009408742332  0.9310785137287501  1.0000
  O   O12       1.0  0.5014298641317012  0.6933971389820146  0.431079755279363  1.0000
  O   O13       1.0  0.7419299748472099  0.4709716911343024  0.043273250688749015  1.0000
  O   O14       1.0  0.7580679856229723  0.5290244393801445  0.543274357536973  1.0000
  O   O15       1.0  0.2580698887427176  0.5290271360762306  0.9567254526144214  1.0000
  O   O16       1.0  0.24193079139982385  0.47097186490513115  0.4567268531085278  1.0000
