data_image0
_chemical_formula_structural       Zn2H24C24S4N4O12
_chemical_formula_sum              "Zn2 H24 C24 S4 N4 O12"
_cell_length_a       5.018858104426356
_cell_length_b       9.976184005021583
_cell_length_c       14.651758460032076
_cell_angle_alpha    90.00002781128318
_cell_angle_beta     90.00022701022765
_cell_angle_gamma    103.2535645811149

_space_group_name_H-M_alt    "P 1"
_space_group_IT_number       1

loop_
  _space_group_symop_operation_xyz
  'x, y, z'

loop_
  _atom_site_type_symbol
  _atom_site_label
  _atom_site_symmetry_multiplicity
  _atom_site_fract_x
  _atom_site_fract_y
  _atom_site_fract_z
  _atom_site_occupancy
  Zn  Zn1       1.0  2.251865410600001e-06  1.0339707117e-06  0.9999987400846919  1.0000
  Zn  Zn2       1.0  0.9999989781530304  0.4999968995143578  0.500000141039834  1.0000
  H   H1        1.0  0.5095105944311912  0.6180897396308255  0.0111561160306408  1.0000
  H   H2        1.0  0.5095131171411323  0.11809234342388213  0.4888433981162379  1.0000
  H   H3        1.0  0.4904804560841924  0.38190657850553583  0.9888468979353036  1.0000
  H   H4        1.0  0.4904943501177075  0.8819050407039416  0.5111568858133353  1.0000
  H   H5        1.0  0.001415948447338314  0.6330521817529163  0.2477144091420129  1.0000
  H   H6        1.0  0.001404468941032623  0.13304295063716157  0.2522878312704222  1.0000
  H   H7        1.0  0.998576178965678  0.3669554552060178  0.7522865572909084  1.0000
  H   H8        1.0  0.9985931780396201  0.866950296170707  0.7477124526517187  1.0000
  H   H9        1.0  0.8542001194311482  0.8288368310703265  0.17500088606217193  1.0000
  H   H10       1.0  0.8541717491321495  0.32882359622303176  0.32500053847126503  1.0000
  H   H11       1.0  0.1458151770420031  0.17117805976752723  0.8249987153639609  1.0000
  H   H12       1.0  0.14582390331696624  0.6711696460606477  0.6749990629375873  1.0000
  H   H13       1.0  0.5505809585072684  0.47451949652584363  0.1500971199464516  1.0000
  H   H14       1.0  0.5505849667090179  0.9745227484059886  0.3499053089458002  1.0000
  H   H15       1.0  0.4494054900573517  0.5254798974603503  0.8499065765288522  1.0000
  H   H16       1.0  0.44942388215533674  0.025477725137811505  0.650091562425601  1.0000
  H   H17       1.0  0.2003138155450017  0.3875261733054601  0.15446903726198977  1.0000
  H   H18       1.0  0.20032052894710273  0.8875222209877835  0.34553083583033134  1.0000
  H   H19       1.0  0.7996775431587154  0.6124752893407079  0.8455346592170231  1.0000
  H   H20       1.0  0.7996944558402391  0.11247415142101863  0.6544633054967691  1.0000
  H   H21       1.0  0.3504208493635306  0.4867235343274675  0.24875067337850962  1.0000
  H   H22       1.0  0.350429301573428  0.9867214494721783  0.2512501224158967  1.0000
  H   H23       1.0  0.649561457762786  0.5132799653100903  0.7512489280231095  1.0000
  H   H24       1.0  0.6495789343904476  0.013282108967693804  0.7487467489556536  1.0000
  C   C1        1.0  0.27002090094764963  0.7705070483823635  0.015004665347902301  1.0000
  C   C2        1.0  0.270017544408006  0.2705055158760388  0.4849966253752385  1.0000
  C   C3        1.0  0.7299828854364421  0.2294954712068957  0.9849949360681622  1.0000
  C   C4        1.0  0.7299794896764311  0.729490815828605  0.5150043410589831  1.0000
  C   C5        1.0  0.36058198089290994  0.6593397226941421  0.0496292198196926  1.0000
  C   C6        1.0  0.36057665818582774  0.15933914324210727  0.45037147150743806  1.0000
  C   C7        1.0  0.639403546557361  0.3406576116740397  0.950369699071075  1.0000
  C   C8        1.0  0.6394194548268575  0.8406551288516514  0.549631542461583  1.0000
  C   C9        1.0  0.2628567100881228  0.6042903022563595  0.1345152000974466  1.0000
  C   C10       1.0  0.2628509407545181  0.10428646083413894  0.3654867033249403  1.0000
  C   C11       1.0  0.7371447770778516  0.3957204422188668  0.8654884963901354  1.0000
  C   C12       1.0  0.737162818265958  0.8957160813724916  0.634512898097917  1.0000
  C   C13       1.0  0.07844185977405266  0.6675102973475688  0.18020516488915916  1.0000
  C   C14       1.0  0.07842232371973523  0.16749912935256364  0.3197978753381676  1.0000
  C   C15       1.0  0.9215551777823165  0.3324994082720566  0.8197964840594097  1.0000
  C   C16       1.0  0.9215728682041516  0.832493083127453  0.6802044561179201  1.0000
  C   C17       1.0  0.996584382415712  0.7780055519456398  0.14068427376441411  1.0000
  C   C18       1.0  0.99656135059616  0.2779944573449741  0.3593180087516714  1.0000
  C   C19       1.0  0.003429071896889021  0.22200521966757955  0.8593166926835849  1.0000
  C   C20       1.0  0.003434762395223135  0.7219998147452176  0.6406815926576783  1.0000
  C   C21       1.0  0.3483169932535263  0.48284436820803495  0.1740217571027571  1.0000
  C   C22       1.0  0.3483199340991094  0.9828413958638792  0.3259797169339792  1.0000
  C   C23       1.0  0.6516706845669304  0.5171622298981478  0.8259798918388769  1.0000
  C   C24       1.0  0.6516859991576851  0.017157013544135704  0.6740178369470017  1.0000
  S   S1        1.0  0.39381691594739004  0.8428370478296257  0.9063544280217216  1.0000
  S   S2        1.0  0.3938115902459245  0.3428367630889539  0.5936464799578688  1.0000
  S   S3        1.0  0.6061874833414294  0.1571623868642719  0.09364585590613218  1.0000
  S   S4        1.0  0.6061869778235194  0.6571585433326563  0.4063544864772055  1.0000
  N   N1        1.0  0.09074716490748384  0.8290187408049693  0.0585310699582777  1.0000
  N   N2        1.0  0.09072899519687641  0.32901194132655587  0.4414693153312399  1.0000
  N   N3        1.0  0.9092581554616217  0.17098275350124945  0.9414685314586393  1.0000
  N   N4        1.0  0.9092631287399514  0.6709823217166858  0.5585302860753956  1.0000
  O   O1        1.0  0.3060982909654229  0.9749780498153202  0.9016887406076677  1.0000
  O   O2        1.0  0.30609348403795883  0.47497880461317993  0.598311413191233  1.0000
  O   O3        1.0  0.6939076423126664  0.025020359596247512  0.0983122258329843  1.0000
  O   O4        1.0  0.693909994149287  0.5250185704648446  0.40168614068788605  1.0000
  O   O5        1.0  0.27087877572595437  0.7427106328810709  0.8377379889887351  1.0000
  O   O6        1.0  0.27087982952753725  0.24270947504130197  0.6622633979687151  1.0000
  O   O7        1.0  0.7291231684933167  0.2572877674828434  0.16226229493726413  1.0000
  O   O8        1.0  0.7291147494873587  0.7572858223333585  0.3377375684636377  1.0000
  O   O9        1.0  0.6940971934090073  0.8637414747098762  0.9105500370468819  1.0000
  O   O10       1.0  0.6940899731593005  0.3637370619892408  0.5894492397311382  1.0000
  O   O11       1.0  0.3059101214916354  0.13626002412053148  0.0894502468833309  1.0000
  O   O12       1.0  0.305908747238533  0.6362541297247973  0.4105469491197624  1.0000
