data_image0
_chemical_formula_structural       Na4Cu2H40C20N4O22
_chemical_formula_sum              "Na4 Cu2 H40 C20 N4 O22"
_cell_length_a       7.9701967581050175
_cell_length_b       9.17824822316899
_cell_length_c       12.618940297160108
_cell_angle_alpha    95.41035722169103
_cell_angle_beta     90.00007027022042
_cell_angle_gamma    115.7338884472762

_space_group_name_H-M_alt    "P 1"
_space_group_IT_number       1

loop_
  _space_group_symop_operation_xyz
  'x, y, z'

loop_
  _atom_site_type_symbol
  _atom_site_label
  _atom_site_symmetry_multiplicity
  _atom_site_fract_x
  _atom_site_fract_y
  _atom_site_fract_z
  _atom_site_occupancy
  Na  Na1       1.0  0.4222392774799033  0.0613506609551138  0.6348772092579222  1.0000
  Na  Na2       1.0  0.3609168896795367  0.9387074001913049  0.8651552504814646  1.0000
  Na  Na3       1.0  0.5777584479359915  0.9386476959454982  0.3651230187231461  1.0000
  Na  Na4       1.0  0.6390870696701608  0.061293387194943684  0.13484434928238895  1.0000
  Cu  Cu1       1.0  0.5000004204878293  0.4999997846652277  0.49999936249580645  1.0000
  Cu  Cu2       1.0  0.9999985520081649  0.4999986995782351  1.364109103000714e-06  1.0000
  H   H1        1.0  0.0009073055525803149  0.19917027626602388  0.4020316202782367  1.0000
  H   H2        1.0  0.8013241690815959  0.800561149473829  0.09806478314263248  1.0000
  H   H3        1.0  0.9990922055933351  0.8008341614693323  0.5979690186155793  1.0000
  H   H4        1.0  0.1986809697928393  0.19944450632961971  0.901936730525662  1.0000
  H   H5        1.0  0.07761475306157452  0.388178512816424  0.4831464612593095  1.0000
  H   H6        1.0  0.6891794221796914  0.6115598767870766  0.016883033740313608  1.0000
  H   H7        1.0  0.9223860550282834  0.6118235000961292  0.5168571836201464  1.0000
  H   H8        1.0  0.3108244995937497  0.38844334480469916  0.9831175229751989  1.0000
  H   H9        1.0  0.29591483490924014  0.2207353883170526  0.25130096667987795  1.0000
  H   H10       1.0  0.07491586501106444  0.7792296448077566  0.24872064046709133  1.0000
  H   H11       1.0  0.704076656572866  0.7792605380979153  0.7486998895184127  1.0000
  H   H12       1.0  0.9250874890714441  0.22076993203626927  0.7512812548756995  1.0000
  H   H13       1.0  0.2517682377151047  0.12086600143811671  0.3678440779244808  1.0000
  H   H14       1.0  0.1306930522488302  0.8790759684379952  0.13217043002050127  1.0000
  H   H15       1.0  0.7482313147594154  0.8791360095929761  0.6321587743666227  1.0000
  H   H16       1.0  0.8693128111881732  0.12092360841833032  0.8678314653245278  1.0000
  H   H17       1.0  0.14468581502646324  0.396457024919144  0.25952914154613177  1.0000
  H   H18       1.0  0.7481176696909201  0.6032334333344593  0.24053839306352384  1.0000
  H   H19       1.0  0.8553168887078897  0.6035437605856443  0.740469665629362  1.0000
  H   H20       1.0  0.2518825275032128  0.3967673577839718  0.7594627918714492  1.0000
  H   H21       1.0  0.39102138519483265  0.5227789071351906  0.27218863906156787  1.0000
  H   H22       1.0  0.8682898193987754  0.4770943933299066  0.22782251242727364  1.0000
  H   H23       1.0  0.608981320415708  0.4772218821202259  0.7278117532884065  1.0000
  H   H24       1.0  0.13171098681490184  0.5229076158320255  0.7721795472777088  1.0000
  H   H25       1.0  0.24149771041784618  0.5667394980307705  0.36021001185014967  1.0000
  H   H26       1.0  0.6747155802107656  0.43298879110950145  0.13986643198116155  1.0000
  H   H27       1.0  0.758501874942482  0.4332600694182248  0.6397879205531039  1.0000
  H   H28       1.0  0.32528461698336747  0.5670120000089299  0.8601347529538115  1.0000
  H   H29       1.0  0.09211928232846128  0.056128279205133  0.7029744840159324  1.0000
  H   H30       1.0  0.03596773897534431  0.9437867528220422  0.7970653775584393  1.0000
  H   H31       1.0  0.9078803058461348  0.9438712938698048  0.29702582614903145  1.0000
  H   H32       1.0  0.9640305945220076  0.0562128202467491  0.20293493260540166  1.0000
  H   H33       1.0  0.8122709596546825  0.14334889522957187  0.5571768124835399  1.0000
  H   H34       1.0  0.6688258277572457  0.8565947563399305  0.9429061568040564  1.0000
  H   H35       1.0  0.18772672630878154  0.8566518921259315  0.4428227872747214  1.0000
  H   H36       1.0  0.3311762697718379  0.1434048167473136  0.057094153363145494  1.0000
  H   H37       1.0  0.7170728352667268  0.2371920311108084  0.4974959361723632  1.0000
  H   H38       1.0  0.4797439502936101  0.7626956188523835  0.0025423011555077172  1.0000
  H   H39       1.0  0.28292112517934953  0.7628063238960295  0.5025034992181074  1.0000
  H   H40       1.0  0.52025810872113  0.23730638656505934  0.9974581733761168  1.0000
  C   C1        1.0  0.1486688838503909  0.2164116333242347  0.550808405479202  1.0000
  C   C2        1.0  0.9319988900122805  0.7835350230048661  0.9493181277711924  1.0000
  C   C3        1.0  0.8513275840739993  0.7835867179442744  0.44918944473904066  1.0000
  C   C4        1.0  0.06800693303419791  0.21646698243103665  0.050682346763792886  1.0000
  C   C5        1.0  0.117028495059202  0.2912658998336681  0.4538793661340604  1.0000
  C   C6        1.0  0.8254329353568435  0.7085233262440269  0.046201210214341884  1.0000
  C   C7        1.0  0.882969836561969  0.7087336694844879  0.5461193588553073  1.0000
  C   C8        1.0  0.1745709882927713  0.29147989909838407  0.9538009316756512  1.0000
  C   C9        1.0  0.3336589985138545  0.23803190994303955  0.3367677853584467  1.0000
  C   C10       1.0  0.09538938531089515  0.7619322186744101  0.16326488774052447  1.0000
  C   C11       1.0  0.66633618090939  0.7619688830261067  0.6632341921592796  1.0000
  C   C12       1.0  0.9046152225107632  0.2380673563004478  0.8367362150161454  1.0000
  C   C13       1.0  0.5368364963183296  0.27268479926252814  0.35285796186493457  1.0000
  C   C14       1.0  0.26396119690386405  0.727263053721302  0.14723483920804628  1.0000
  C   C15       1.0  0.4631556765215521  0.7273074711589447  0.6471394774383298  1.0000
  C   C16       1.0  0.7360384269708006  0.2727340813974806  0.8527629288307778  1.0000
  C   C17       1.0  0.2637246251325607  0.46820274464582223  0.31624237303562097  1.0000
  C   C18       1.0  0.7954399633422182  0.531545612044681  0.18379667640704153  1.0000
  C   C19       1.0  0.7362755720615792  0.531798046472609  0.6837588118993521  1.0000
  C   C20       1.0  0.20455772074506476  0.46845517156018696  0.8162013381767464  1.0000
  N   N1        1.0  0.2860728012769157  0.36433509586439067  0.392498460959814  1.0000
  N   N2        1.0  0.9215472259791538  0.6355234359731627  0.10754494691293809  1.0000
  N   N3        1.0  0.7139248856246425  0.6356656933664272  0.6075019313856769  1.0000
  N   N4        1.0  0.0784566967323812  0.3644797874939343  0.8924564023898112  1.0000
  O   O1        1.0  0.31195875487890845  0.23955101068700915  0.5764494656295864  1.0000
  O   O2        1.0  0.07231937597124037  0.7606233762206359  0.9237229721734863  1.0000
  O   O3        1.0  0.6880403351287258  0.7604400379772401  0.4235455137359024  1.0000
  O   O4        1.0  0.927683293001131  0.2393798491156218  0.07627916971539148  1.0000
  O   O5        1.0  0.0038819473255316305  0.13594134664982965  0.6015678906955342  1.0000
  O   O6        1.0  0.8677478035484183  0.8640017531797499  0.8985162846668754  1.0000
  O   O7        1.0  0.9961176765491401  0.8640557884689528  0.39842987734328966  1.0000
  O   O8        1.0  0.1322567638827223  0.1360002503746855  0.10148339727975039  1.0000
  O   O9        1.0  0.5965119694527132  0.18479084660862102  0.2993122982439117  1.0000
  O   O10       1.0  0.4114891923597384  0.8151300091028305  0.20076136048270846  1.0000
  O   O11       1.0  0.40347328528132914  0.8152026436947538  0.700686808409884  1.0000
  O   O12       1.0  0.5885129812599459  0.18486469744868836  0.7992378283683973  1.0000
  O   O13       1.0  0.6376793177944293  0.3876528099054966  0.42528461479813007  1.0000
  O   O14       1.0  0.24981030643917992  0.6122227100709382  0.0748928950022076  1.0000
  O   O15       1.0  0.36232216977702336  0.6123455432629398  0.5747140280118257  1.0000
  O   O16       1.0  0.7501868898001334  0.38776956975171833  0.9251085072417097  1.0000
  O   O17       1.0  0.13929469693315616  0.9999327640844912  0.7499906633304221  1.0000
  O   O18       1.0  0.860703636564196  6.680898430030007e-05  0.25000964683342625  1.0000
  O   O19       1.0  0.6905918980878383  0.13738516545997465  0.5304474152334889  1.0000
  O   O20       1.0  0.5531136622864918  0.8625623032646529  0.9696848115089762  1.0000
  O   O21       1.0  0.3094051816703568  0.8626144094779775  0.46955368751647336  1.0000
  O   O22       1.0  0.44689090608274273  0.1374397021650964  0.030315663024886395  1.0000
