data_image0
_chemical_formula_structural       Ni2H72C48N12O12
_chemical_formula_sum              "Ni2 H72 C48 N12 O12"
_cell_length_a       8.421654072224452
_cell_length_b       11.452076416568868
_cell_length_c       15.6612654793543
_cell_angle_alpha    89.99976973430883
_cell_angle_beta     89.99927045727178
_cell_angle_gamma    92.00147584140498

_space_group_name_H-M_alt    "P 1"
_space_group_IT_number       1

loop_
  _space_group_symop_operation_xyz
  'x, y, z'

loop_
  _atom_site_type_symbol
  _atom_site_label
  _atom_site_symmetry_multiplicity
  _atom_site_fract_x
  _atom_site_fract_y
  _atom_site_fract_z
  _atom_site_occupancy
  Ni  Ni1       1.0  0.4999996328245188  0.5000000630535337  0.4999999375541151  1.0000
  Ni  Ni2       1.0  1.3228984982920427e-06  0.5000004600795831  0.9999989296789735  1.0000
  H   H1        1.0  0.783086414151526  0.24549027467082135  0.7893520648384893  1.0000
  H   H2        1.0  0.7169193835152469  0.7545023169094517  0.2893523725843608  1.0000
  H   H3        1.0  0.21691290313327724  0.7545107251415144  0.2106478102682985  1.0000
  H   H4        1.0  0.28308230779691707  0.24549866797647002  0.7106481410322798  1.0000
  H   H5        1.0  0.5387218547157032  0.3775493562178269  0.6322843100148248  1.0000
  H   H6        1.0  0.9612667348784711  0.6224513354734993  0.1322826775415393  1.0000
  H   H7        1.0  0.46127632716454053  0.6224525247560421  0.367717480648622  1.0000
  H   H8        1.0  0.038737278855741394  0.3775487607886772  0.8677159205143709  1.0000
  H   H9        1.0  0.6268140309862956  0.32323109864287136  0.44059778715531905  1.0000
  H   H10       1.0  0.8731837221122162  0.6767658250573446  0.9405981702975268  1.0000
  H   H11       1.0  0.37318523466274195  0.6767690274641964  0.559402087952904  1.0000
  H   H12       1.0  0.12681667894137408  0.32323341988819004  0.05939978925404429  1.0000
  H   H13       1.0  0.5736029788706529  0.6271984757291376  0.6747880582987378  1.0000
  H   H14       1.0  0.9263940933748458  0.3728018921056843  0.1747886624324622  1.0000
  H   H15       1.0  0.42639639002707935  0.3728033977825189  0.3252137323606305  1.0000
  H   H16       1.0  0.07360868171372198  0.6271973379154259  0.8252092971109519  1.0000
  H   H17       1.0  0.5170644088263571  0.511960605360734  0.7464001288604152  1.0000
  H   H18       1.0  0.9829313173784654  0.48804543336522943  0.24639809609419663  1.0000
  H   H19       1.0  0.482932586044015  0.4880412830773294  0.2536010232891002  1.0000
  H   H20       1.0  0.017072696363356992  0.5119546628989295  0.7535998634437104  1.0000
  H   H21       1.0  0.8011902166147847  0.553588819232594  0.6082684906765791  1.0000
  H   H22       1.0  0.6988078737709527  0.44640235125903854  0.10826597988388899  1.0000
  H   H23       1.0  0.19881142306922325  0.4464112919500421  0.391731384423494  1.0000
  H   H24       1.0  0.30119835909092524  0.5535951089629021  0.8917326181681843  1.0000
  H   H25       1.0  0.798451347440931  0.44125798025321916  0.6888106846847108  1.0000
  H   H26       1.0  0.7015436871066854  0.5587335708522119  0.18880846983944363  1.0000
  H   H27       1.0  0.20154905358221237  0.5587412646843787  0.31118982893887887  1.0000
  H   H28       1.0  0.2984601717354494  0.44126390429812545  0.8111888511847666  1.0000
  H   H29       1.0  0.914489315304351  0.361273134959184  0.4419446535984618  1.0000
  H   H30       1.0  0.5855129472422576  0.6387202557099838  0.9419420187198637  1.0000
  H   H31       1.0  0.08550866004804897  0.6387252511975701  0.5580558600347202  1.0000
  H   H32       1.0  0.41448858918544557  0.361278108066081  0.05805657934706689  1.0000
  H   H33       1.0  0.8718932187530368  0.508603349290311  0.4691052283377742  1.0000
  H   H34       1.0  0.6281083961812539  0.491389872583184  0.9691020862798254  1.0000
  H   H35       1.0  0.12810718227010648  0.4913958956472866  0.5308952852858155  1.0000
  H   H36       1.0  0.3718954626532637  0.5086076025651706  0.030895873262387893  1.0000
  H   H37       1.0  0.27744563370619346  0.6160441508723977  0.6975005407631371  1.0000
  H   H38       1.0  0.22255324525896467  0.38396180675613306  0.1974974079480276  1.0000
  H   H39       1.0  0.7225550254957794  0.38395946259154806  0.30249997285326896  1.0000
  H   H40       1.0  0.7774507168547016  0.6160374158047401  0.8024999130733049  1.0000
  H   H41       1.0  0.27208235207233844  0.46963078749146075  0.6589917492760264  1.0000
  H   H42       1.0  0.22791383237792218  0.5303745581339779  0.1589913501907887  1.0000
  H   H43       1.0  0.7279147460695654  0.530372848357146  0.34100940287061826  1.0000
  H   H44       1.0  0.7720901297357513  0.4696246644269023  0.841005970830544  1.0000
  H   H45       1.0  0.8695307319723325  0.2116995554988178  0.5342772815769051  1.0000
  H   H46       1.0  0.6304525559927824  0.7882930529926069  0.034280002699226486  1.0000
  H   H47       1.0  0.1304673466439894  0.7883005780664901  0.46572387057140213  1.0000
  H   H48       1.0  0.3695453677238589  0.21170445945888616  0.965720510935391  1.0000
  H   H49       1.0  0.6739696401202053  0.23300966817591723  0.5730436292010664  1.0000
  H   H50       1.0  0.8260153557497673  0.7669870530026796  0.0730431498303403  1.0000
  H   H51       1.0  0.3260284385113436  0.7669904653933626  0.4269562459112349  1.0000
  H   H52       1.0  0.1739850452962131  0.2330121919408653  0.9269554482392337  1.0000
  H   H53       1.0  0.8622011710147177  0.12483691839906186  0.6686388603514571  1.0000
  H   H54       1.0  0.6377859320542711  0.8751530628785814  0.16864191919373883  1.0000
  H   H55       1.0  0.13779448193086807  0.8751623563854093  0.3313622918064424  1.0000
  H   H56       1.0  0.36221312705169584  0.12484356840740667  0.8313579559202323  1.0000
  H   H57       1.0  0.9681957938298991  0.25979636232440834  0.6864529533807939  1.0000
  H   H58       1.0  0.5317980065551495  0.7401934634616651  0.18645840789425694  1.0000
  H   H59       1.0  0.03180223316588378  0.7402028975396031  0.3135469217329429  1.0000
  H   H60       1.0  0.46820337495002917  0.25980227919462345  0.8135414672130066  1.0000
  H   H61       1.0  0.8229369701843863  0.755613451097538  0.6144176916253626  1.0000
  H   H62       1.0  0.6770639672044323  0.24438815070669745  0.11441846680761357  1.0000
  H   H63       1.0  0.1770562054166263  0.24438409119090207  0.3855866531335862  1.0000
  H   H64       1.0  0.3229401498089216  0.755613692968005  0.8855794927274231  1.0000
  H   H65       1.0  0.0280833535712688  0.9039694194797078  0.6625101975355178  1.0000
  H   H66       1.0  0.4719101664424201  0.09603242439193588  0.16250681629603037  1.0000
  H   H67       1.0  0.9719051772161151  0.09602990006415976  0.3374954242728663  1.0000
  H   H68       1.0  0.5280927635382253  0.9039694267410138  0.8374924202790908  1.0000
  H   H69       1.0  0.8003660108747609  0.9197442344833033  0.3685204177235306  1.0000
  H   H70       1.0  0.699630158031432  0.08025752809231078  0.8685154140325011  1.0000
  H   H71       1.0  0.19962623587998954  0.08025768379171438  0.6314845655503162  1.0000
  H   H72       1.0  0.300368075553088  0.9197452266046824  0.1314806299674558  1.0000
  C   C1        1.0  0.5096111189637468  0.5418916288413981  0.6795932494898125  1.0000
  C   C2        1.0  0.9903836196250635  0.45811134518246627  0.17958997464104698  1.0000
  C   C3        1.0  0.490387062916504  0.4581102521324709  0.3204085411736344  1.0000
  C   C4        1.0  0.009620342480992899  0.5418878773764249  0.8204079848982957  1.0000
  C   C5        1.0  0.7605672753869895  0.4639597875910296  0.6239916270330426  1.0000
  C   C6        1.0  0.7394328657725067  0.5360321439671337  0.12398857826276097  1.0000
  C   C7        1.0  0.2394343642894086  0.5360403235896241  0.3760088865850335  1.0000
  C   C8        1.0  0.2605698060445292  0.46396533864343315  0.8760093812835306  1.0000
  C   C9        1.0  0.8308455733542031  0.4169702422027013  0.4762677581418515  1.0000
  C   C10       1.0  0.669157057812697  0.583022927694678  0.9762647079296443  1.0000
  C   C11       1.0  0.16915245363396278  0.5830290176593207  0.5237327554898883  1.0000
  C   C12       1.0  0.33084680102182756  0.4169745474536767  0.023733251612568992  1.0000
  C   C13       1.0  0.335821068551482  0.5548937768375878  0.6539918110277936  1.0000
  C   C14       1.0  0.16417404812240474  0.4451116073294371  0.15398954240174587  1.0000
  C   C15       1.0  0.6641771133363716  0.44510810413826346  0.3460093411176429  1.0000
  C   C16       1.0  0.8358300172551835  0.5548893626399972  0.8460084171347261  1.0000
  C   C17       1.0  0.8008468924527674  0.25954818244105127  0.5816171739974719  1.0000
  C   C18       1.0  0.6991447112528701  0.7404431984429533  0.081618921615302  1.0000
  C   C19       1.0  0.19915345694983694  0.7404501887952433  0.41838206259154015  1.0000
  C   C20       1.0  0.30085558649874855  0.259554299084101  0.9183815920111582  1.0000
  C   C21       1.0  0.8503248259669501  0.2206082316150599  0.6702503826780769  1.0000
  C   C22       1.0  0.6496598646851907  0.7793817545830418  0.1702498046600311  1.0000
  C   C23       1.0  0.1496708269862523  0.7793910431714008  0.3297501309618198  1.0000
  C   C24       1.0  0.35034032980249913  0.22061399553545868  0.8297500704513041  1.0000
  C   C25       1.0  0.6798626720794371  0.736719230480709  0.45919129157879707  1.0000
  C   C26       1.0  0.8201443404682534  0.2632810128170461  0.9591823767178197  1.0000
  C   C27       1.0  0.32013076173846844  0.2632826803439983  0.5408098605829392  1.0000
  C   C28       1.0  0.17985626712079034  0.7367217269475784  0.0408162213460059  1.0000
  C   C29       1.0  0.8001813248428888  0.8290399421750576  0.4881079478239271  1.0000
  C   C30       1.0  0.6998215919267067  0.1709627648770961  0.9881109821713707  1.0000
  C   C31       1.0  0.1998154634539659  0.17095845143399654  0.5118957584033552  1.0000
  C   C32       1.0  0.3001848474858518  0.8290381901679068  0.011886977356951402  1.0000
  C   C33       1.0  0.8651988999135509  0.8251898856419401  0.5717970075326875  1.0000
  C   C34       1.0  0.6348016601894385  0.1748084936884169  0.07179572011258978  1.0000
  C   C35       1.0  0.1347944306023763  0.174810277764294  0.4282066987039457  1.0000
  C   C36       1.0  0.3652071532657074  0.8251924464341368  0.9282016008895722  1.0000
  C   C37       1.0  0.978630137780186  0.9069589133486174  0.5981047181192166  1.0000
  C   C38       1.0  0.521367524272236  0.09304106481865657  0.09810380875538267  1.0000
  C   C39       1.0  0.021363192735741193  0.09304125005761679  0.40189898811742336  1.0000
  C   C40       1.0  0.47864005049920877  0.9069590090529115  0.901896066324319  1.0000
  C   C41       1.0  0.8500572904899851  0.9172203487481166  0.432843915684181  1.0000
  C   C42       1.0  0.6499434863322334  0.08278447158542689  0.9328373312449825  1.0000
  C   C43       1.0  0.149938620588756  0.08278329455080069  0.5671610675745667  1.0000
  C   C44       1.0  0.35005939204308584  0.9172165058501843  0.06715935125955497  1.0000
  C   C45       1.0  0.03343331033546799  0.997423279805609  0.5421327989199795  1.0000
  C   C46       1.0  0.4665607576068921  0.0025802008268555987  0.04212589272346889  1.0000
  C   C47       1.0  0.9665638393660739  0.0025812297284276016  0.4578747384052804  1.0000
  C   C48       1.0  0.5334409853562576  0.9974216577683063  0.9578733438557236  1.0000
  N   N1        1.0  0.5842112894542026  0.46101558969239415  0.6200825925882113  1.0000
  N   N2        1.0  0.9157843517492379  0.5389790171240916  0.120079598257739  1.0000
  N   N3        1.0  0.41578921483285564  0.5389854026537577  0.37991855955051074  1.0000
  N   N4        1.0  0.08421966198496729  0.461021079138085  0.8799189997981712  1.0000
  N   N5        1.0  0.8328090867896872  0.38460977004405805  0.5650907607460167  1.0000
  N   N6        1.0  0.6671830659035578  0.615384334670061  0.0650905347431561  1.0000
  N   N7        1.0  0.16718770154523097  0.6153886235749082  0.4349097528912367  1.0000
  N   N8        1.0  0.3328196059058611  0.3846131479385236  0.9349080633211386  1.0000
  N   N9        1.0  0.6709155179385815  0.40744546312456  0.4358239533883719  1.0000
  N   N10       1.0  0.8290881808349579  0.5925497055306365  0.9358216902356489  1.0000
  N   N11       1.0  0.3290825606777473  0.5925546704407478  0.5641771987599355  1.0000
  N   N12       1.0  0.17091459425360964  0.40744952449046673  0.0641762693077723  1.0000
  O   O1        1.0  0.7334631148981854  0.25111476899696317  0.7319603136456434  1.0000
  O   O2        1.0  0.7665260909942969  0.7488756700634978  0.23196540417327324  1.0000
  O   O3        1.0  0.2665338799721795  0.7488871194411003  0.26804083850387167  1.0000
  O   O4        1.0  0.23347301974743567  0.25112183492775836  0.7680344709392626  1.0000
  O   O5        1.0  0.6425308188583188  0.6576573821129725  0.5142483875654023  1.0000
  O   O6        1.0  0.857479887244835  0.3423491659722443  0.014250192474222  1.0000
  O   O7        1.0  0.35746710486593253  0.3423401303404957  0.48575148755121217  1.0000
  O   O8        1.0  0.14252412648937704  0.6576509302899322  0.9857484055816882  1.0000
  O   O9        1.0  0.623672578754018  0.7420966328387876  0.3843341803373192  1.0000
  O   O10       1.0  0.8763316769707215  0.2579076002996457  0.8843414956045307  1.0000
  O   O11       1.0  0.3763268417794804  0.25790611437813027  0.6156676103206138  1.0000
  O   O12       1.0  0.1236700660000523  0.7420942582974986  0.11565710245665879  1.0000
