data_image0
_chemical_formula_structural       Cd2H26C26S4N6O4
_chemical_formula_sum              "Cd2 H26 C26 S4 N6 O4"
_cell_length_a       8.440448533697545
_cell_length_b       9.088112450458604
_cell_length_c       10.530412454129491
_cell_angle_alpha    82.24046846136733
_cell_angle_beta     73.02360476102092
_cell_angle_gamma    79.87408800662904

_space_group_name_H-M_alt    "P 1"
_space_group_IT_number       1

loop_
  _space_group_symop_operation_xyz
  'x, y, z'

loop_
  _atom_site_type_symbol
  _atom_site_label
  _atom_site_symmetry_multiplicity
  _atom_site_fract_x
  _atom_site_fract_y
  _atom_site_fract_z
  _atom_site_occupancy
  Cd  Cd1       1.0  0.4237758416440299  0.38284937449019213  0.27818686192784275  1.0000
  Cd  Cd2       1.0  0.5762215006860599  0.6171499715714505  0.7218181117268259  1.0000
  H   H1        1.0  0.8301709966837834  0.2165462533760731  0.4161336615683949  1.0000
  H   H2        1.0  0.16982908652611425  0.7834520201292958  0.5838632112499056  1.0000
  H   H3        1.0  0.8091222408248836  0.9645271113192279  0.36649515851576103  1.0000
  H   H4        1.0  0.19087911137968663  0.03547118130458671  0.6334985748885344  1.0000
  H   H5        1.0  0.06817501797705455  0.7981517798347539  0.25309850182925697  1.0000
  H   H6        1.0  0.9318301705547396  0.2018453626164742  0.7469001860704908  1.0000
  H   H7        1.0  0.36172380354440037  0.7563327412377419  0.14813325577092942  1.0000
  H   H8        1.0  0.6382744632514131  0.24366887967034495  0.8518665066938312  1.0000
  H   H9        1.0  0.6535843314790171  0.7439832082424688  0.0009095087116363887  1.0000
  H   H10       1.0  0.3464162499983629  0.25601955031510926  0.9990877021976985  1.0000
  H   H11       1.0  0.8314864659845328  0.982425429735308  0.07223987763212854  1.0000
  H   H12       1.0  0.16851606333674599  0.0175728307944283  0.9277592900471276  1.0000
  H   H13       1.0  0.926557805527203  0.853050596426101  0.9420218021033621  1.0000
  H   H14       1.0  0.07344189231910288  0.1469499100461533  0.057976809467454905  1.0000
  H   H15       1.0  0.7793062071938408  0.7628579159071904  0.24701084421560182  1.0000
  H   H16       1.0  0.22069493191160905  0.23714148181950628  0.7529856638291648  1.0000
  H   H17       1.0  0.8720823775818046  0.6313707404729597  0.11710749088455696  1.0000
  H   H18       1.0  0.12791856884184938  0.36862977373717604  0.8828898865364749  1.0000
  H   H19       1.0  0.933770430246319  0.4511730940459273  0.2733986010415777  1.0000
  H   H20       1.0  0.06622838396889816  0.5488251603409963  0.7266014111907212  1.0000
  H   H21       1.0  0.027931118474697248  0.5591495836196004  0.3547366313469595  1.0000
  H   H22       1.0  0.9720650467386773  0.44084979453612055  0.6452629080327413  1.0000
  H   H23       1.0  0.8760223161797567  0.4434619108256612  0.45210535859106227  1.0000
  H   H24       1.0  0.12397525966677135  0.556536341513663  0.5478949351589151  1.0000
  H   H25       1.0  0.5316678199346753  0.0032893470620081  0.1730596021774886  1.0000
  H   H26       1.0  0.4683352280714244  0.9967134099004938  0.8269379983285959  1.0000
  C   C1        1.0  0.2332822979999277  0.9577537933122643  0.2455234778430579  1.0000
  C   C2        1.0  0.7667200182222373  0.0422455723203541  0.7544784644766763  1.0000
  C   C3        1.0  0.2483994000542467  0.10358732477640592  0.2750069621079732  1.0000
  C   C4        1.0  0.7515999022198016  0.8964154089724445  0.7249943408474735  1.0000
  C   C5        1.0  0.0972698125598939  0.19586813612286147  0.3367533988267724  1.0000
  C   C6        1.0  0.9027298852864046  0.8041323703493858  0.6632452127440445  1.0000
  C   C7        1.0  0.9439165891380981  0.145223313388442  0.36803048941794  1.0000
  C   C8        1.0  0.0560820732299731  0.8547760802430492  0.6319665816621907  1.0000
  C   C9        1.0  0.9318280733782487  0.001059634141213899  0.33942864158712654  1.0000
  C   C10       1.0  0.0681744967776865  0.9989386491496428  0.6605667155637037  1.0000
  C   C11       1.0  0.07442800212096752  0.9089665129421507  0.278574076091374  1.0000
  C   C12       1.0  0.9255714928348693  0.0910351043232609  0.7214263574878076  1.0000
  C   C13       1.0  0.3764080267025775  0.8635331990933397  0.17610395706094553  1.0000
  C   C14       1.0  0.6235962392548868  0.13646954853620485  0.8238952671916666  1.0000
  C   C15       1.0  0.6758230927679987  0.8098643106832384  0.07141080252587537  1.0000
  C   C16       1.0  0.324180502657505  0.19013507975810742  0.9285870477477475  1.0000
  C   C17       1.0  0.8376354511020663  0.8727927572346418  0.038401759493922334  1.0000
  C   C18       1.0  0.16236426716155708  0.1272077606181696  0.9615949468126813  1.0000
  C   C19       1.0  0.8078310195005826  0.7427339744983215  0.1424701691698119  1.0000
  C   C20       1.0  0.1921676326588296  0.2572654134428803  0.8575278545424254  1.0000
  C   C21       1.0  0.9788907041205591  0.45392126656461335  0.3607649769829138  1.0000
  C   C22       1.0  0.021108110094658607  0.5460769878223102  0.6392350352493851  1.0000
  C   C23       1.0  0.5458272372390737  0.32931030602972555  0.5698390883491697  1.0000
  C   C24       1.0  0.45417295698332066  0.6706868054699697  0.4301645361497179  1.0000
  C   C25       1.0  0.7085396451883454  0.4251573564743438  0.9898361492416327  1.0000
  C   C26       1.0  0.2914559113536512  0.5748453540608621  0.010168856163168991  1.0000
  S   S1        1.0  0.4792176043015458  0.20971359728806496  0.5032164925395719  1.0000
  S   S2        1.0  0.520785025823578  0.7902834955457152  0.49679037945238497  1.0000
  S   S3        1.0  0.741453435576851  0.33631859963206523  0.12752410048822327  1.0000
  S   S4        1.0  0.25854476996699555  0.6636829871343437  0.8724813777691764  1.0000
  N   N1        1.0  0.5280174821919771  0.8992945801377844  0.14294229939928735  1.0000
  N   N2        1.0  0.47198114955010345  0.1007047964228676  0.8570576295771629  1.0000
  N   N3        1.0  0.6011795263477993  0.4115152854251676  0.6186095270952094  1.0000
  N   N4        1.0  0.3988223943021081  0.5884863074840538  0.3813951066091479  1.0000
  N   N5        1.0  0.687544541553727  0.4868827190473367  0.8884784441138933  1.0000
  N   N6        1.0  0.31244887257116705  0.5131177259743751  0.11153014873428192  1.0000
  O   O1        1.0  0.39413559437758033  0.1508162434719083  0.24191548357394052  1.0000
  O   O2        1.0  0.6058651287382871  0.8491853701508275  0.758085621119669  1.0000
  O   O3        1.0  0.11731971491077788  0.33582638338152293  0.3612515672592096  1.0000
  O   O4        1.0  0.8826776784626201  0.6641729911315153  0.6387486432349263  1.0000
