data_image0
_chemical_formula_structural       Cu4H80C80N16O24
_chemical_formula_sum              "Cu4 H80 C80 N16 O24"
_cell_length_a       10.545358243184435
_cell_length_b       17.76133512751448
_cell_length_c       17.76141111108256
_cell_angle_alpha    100.02136319751872
_cell_angle_beta     101.32844283444587
_cell_angle_gamma    101.32927865504566

_space_group_name_H-M_alt    "P 1"
_space_group_IT_number       1

loop_
  _space_group_symop_operation_xyz
  'x, y, z'

loop_
  _atom_site_type_symbol
  _atom_site_label
  _atom_site_symmetry_multiplicity
  _atom_site_fract_x
  _atom_site_fract_y
  _atom_site_fract_z
  _atom_site_occupancy
  Cu  Cu1       1.0  0.2915762299476655  0.7607332659670976  0.7524792598780652  1.0000
  Cu  Cu2       1.0  0.20842185301431476  0.24752067075898765  0.23926513347376505  1.0000
  Cu  Cu3       1.0  0.7084733912443613  0.23926824834188667  0.2475096332305499  1.0000
  Cu  Cu4       1.0  0.7915256188945252  0.7524868642375183  0.7607265801085605  1.0000
  H   H1        1.0  0.5183212482611523  0.7562789686285927  0.6878122691237822  1.0000
  H   H2        1.0  0.9816747013357698  0.3121973718775095  0.24372009137847786  1.0000
  H   H3        1.0  0.48166556913781733  0.2437213033884049  0.3122026084351506  1.0000
  H   H4        1.0  0.018336879358166497  0.6878059429347163  0.7562724143143671  1.0000
  H   H5        1.0  0.5624710034606579  0.8346132672850077  0.7585877288180074  1.0000
  H   H6        1.0  0.9375289882151281  0.2414190433120638  0.16537880547026168  1.0000
  H   H7        1.0  0.4375100001575518  0.1653747281951397  0.24140906555395258  1.0000
  H   H8        1.0  0.062493859398152656  0.7585930556244165  0.8346222495920446  1.0000
  H   H9        1.0  0.18151678583480904  0.38133192053891923  0.17916412362053089  1.0000
  H   H10       1.0  0.3184788810988835  0.8208351661813469  0.6186616652493984  1.0000
  H   H11       1.0  0.8184656742149274  0.6186572537003485  0.8208324927177773  1.0000
  H   H12       1.0  0.68152292098668  0.17916340651945012  0.3813372642888667  1.0000
  H   H13       1.0  0.23674995953972208  0.4441606966278401  0.06978230824654476  1.0000
  H   H14       1.0  0.263255300821399  0.9302263517641195  0.5558328332275411  1.0000
  H   H15       1.0  0.7632499597281923  0.5558289611144431  0.9302288872998407  1.0000
  H   H16       1.0  0.7367520859113413  0.069776347198669  0.4441652505542565  1.0000
  H   H17       1.0  0.4387455073756286  0.2601215743442538  0.010479300112713509  1.0000
  H   H18       1.0  0.06123925290587098  0.9895272913266736  0.739872318062176  1.0000
  H   H19       1.0  0.5612408557509455  0.739872815524393  0.9895327891583892  1.0000
  H   H20       1.0  0.938748054619836  0.010471310867345101  0.26012486791960043  1.0000
  H   H21       1.0  0.37921944819050424  0.20715025171490006  0.12373680796594758  1.0000
  H   H22       1.0  0.12076177181278075  0.876261326406656  0.7928430759285877  1.0000
  H   H23       1.0  0.6207825252352706  0.7928465241090807  0.8762668905740941  1.0000
  H   H24       1.0  0.8792040976985619  0.1237296813114241  0.2071462338627797  1.0000
  H   H25       1.0  0.22553273303300622  0.6975087246320018  0.8877095075675219  1.0000
  H   H26       1.0  0.27445273611921556  0.11229687682168792  0.3024874645178245  1.0000
  H   H27       1.0  0.7744414706021275  0.30248398603465904  0.11228955570332746  1.0000
  H   H28       1.0  0.7255404051022651  0.8877064435851666  0.6975084478148691  1.0000
  H   H29       1.0  0.2564889995890667  0.5814526940065009  0.9455161240330273  1.0000
  H   H30       1.0  0.2435238214672921  0.05450315477859391  0.418547386884022  1.0000
  H   H31       1.0  0.7435138664254878  0.41854640832835344  0.05449316262471632  1.0000
  H   H32       1.0  0.7564739739692073  0.9455090238665919  0.5814455923834319  1.0000
  H   H33       1.0  0.45427153251186086  0.5125234729090526  0.7622799084385723  1.0000
  H   H34       1.0  0.04574472243936612  0.23773281327198967  0.48747740621594465  1.0000
  H   H35       1.0  0.5457459017944545  0.4874827028886202  0.23772676138197116  1.0000
  H   H36       1.0  0.9542661689013414  0.7622758222910733  0.5125131457899885  1.0000
  H   H37       1.0  0.41190237745337305  0.6310165913708019  0.7108659800163722  1.0000
  H   H38       1.0  0.08808694784998751  0.28913675841172903  0.3689816505172488  1.0000
  H   H39       1.0  0.5881100161327097  0.36898901818883456  0.28913772893891837  1.0000
  H   H40       1.0  0.9118972714959669  0.7108659972692521  0.6310119590307368  1.0000
  H   H41       1.0  0.2940812137248585  0.007729226316328699  0.9080161742356838  1.0000
  H   H42       1.0  0.20592790486029594  0.0919825283411626  0.9922644846781101  1.0000
  H   H43       1.0  0.7059200822938437  0.9922681593064342  0.09198417260227403  1.0000
  H   H44       1.0  0.7940842815137471  0.9080201480851714  0.0077364263470798165  1.0000
  H   H45       1.0  0.4435518240149747  0.992223408245394  0.883692704140117  1.0000
  H   H46       1.0  0.056444705090896705  0.1163106801935783  0.007763960372315602  1.0000
  H   H47       1.0  0.5564480833226854  0.007777541333759101  0.11630360360192077  1.0000
  H   H48       1.0  0.9435419389788181  0.8836908952161124  0.9922291691287771  1.0000
  H   H49       1.0  0.3298623915270583  0.9360275427143139  0.015793210854809656  1.0000
  H   H50       1.0  0.17013277583745204  0.9842140005390837  0.0639731713328403  1.0000
  H   H51       1.0  0.6701375775629687  0.06396635790667202  0.9841979115348782  1.0000
  H   H52       1.0  0.8298643441810114  0.0157992813890075  0.9360334352886003  1.0000
  H   H53       1.0  0.577822337366598  0.9114129896484755  0.9591219384385641  1.0000
  H   H54       1.0  0.9221676840069151  0.0408789426284244  0.08858105772387154  1.0000
  H   H55       1.0  0.4221821564188986  0.08858264402037012  0.04087454188089622  1.0000
  H   H56       1.0  0.07781139498966654  0.959118491393632  0.9114160541463296  1.0000
  H   H57       1.0  0.5207236957932723  0.8722441669115144  0.035310816846994456  1.0000
  H   H58       1.0  0.9792757266513307  0.9646941150916677  0.127763798144244  1.0000
  H   H59       1.0  0.47927572739827423  0.1277579621828409  0.9646856419016746  1.0000
  H   H60       1.0  0.020724708658036703  0.03530380727392671  0.8722461118245308  1.0000
  H   H61       1.0  0.010513666790913565  0.47842451510147294  0.6084546689204089  1.0000
  H   H62       1.0  0.48949329784458956  0.3915406684039341  0.5215877522667614  1.0000
  H   H63       1.0  0.9894833735301206  0.521585884514842  0.3915401555393532  1.0000
  H   H64       1.0  0.5105149376354349  0.6084596238832561  0.4784184522188897  1.0000
  H   H65       1.0  0.18118141683438443  0.48965988119374515  0.6088975908449827  1.0000
  H   H66       1.0  0.3188135518663416  0.39109200499854074  0.5103479047416928  1.0000
  H   H67       1.0  0.8188150974872814  0.5103446076871024  0.39109949895720336  1.0000
  H   H68       1.0  0.6811693026749739  0.6088983118499203  0.4896551554995485  1.0000
  H   H69       1.0  0.16705861157401364  0.588294573655027  0.5255439297314625  1.0000
  H   H70       1.0  0.33294002132922884  0.47445068693875214  0.4117163453009028  1.0000
  H   H71       1.0  0.8329418576181524  0.4117075852365702  0.4744470301095661  1.0000
  H   H72       1.0  0.6670576226669739  0.5255519999227262  0.588286191254632  1.0000
  H   H73       1.0  0.9566380197775503  0.6310532166212327  0.48892004548852014  1.0000
  H   H74       1.0  0.543350734793194  0.5110775616673636  0.36894327141536837  1.0000
  H   H75       1.0  0.043350975300711504  0.3689495069942552  0.5110780758462782  1.0000
  H   H76       1.0  0.4566584490624523  0.48892222881679714  0.6310471932802602  1.0000
  H   H77       1.0  0.8761709719769045  0.5629755237392758  0.5368249632278721  1.0000
  H   H78       1.0  0.6238370583952959  0.4631818376436458  0.437026527338759  1.0000
  H   H79       1.0  0.12383225666646777  0.4370312893841941  0.46317672757120243  1.0000
  H   H80       1.0  0.37617168315158983  0.5368196417215715  0.5629782598471922  1.0000
  C   C1        1.0  0.2386244036864795  0.35737408852830305  0.1402257345718355  1.0000
  C   C2        1.0  0.26137285595877563  0.8597737247371812  0.6426205535610239  1.0000
  C   C3        1.0  0.7613650655633037  0.6426203780266917  0.8597721040342494  1.0000
  C   C4        1.0  0.7386253717959903  0.1402231065968493  0.3573742573135165  1.0000
  C   C5        1.0  0.26831310865638613  0.39102793916991635  0.07900255599714974  1.0000
  C   C6        1.0  0.23169044800354763  0.9210033483267142  0.608968456625256  1.0000
  C   C7        1.0  0.7316898151340541  0.608968828335158  0.9210023818089401  1.0000
  C   C8        1.0  0.768313563640767  0.07900053922627141  0.3910288679373935  1.0000
  C   C9        1.0  0.3406838935260552  0.35605377556854734  0.03052730037155271  1.0000
  C   C10       1.0  0.15931137858925148  0.9694822957544393  0.6439418898700924  1.0000
  C   C11       1.0  0.6593126446886971  0.6439441419565243  0.9694843907067183  1.0000
  C   C12       1.0  0.8406923660788979  0.030523350559207112  0.35605740386446183  1.0000
  C   C13       1.0  0.38137987540051915  0.28862221350082257  0.04620398392768984  1.0000
  C   C14       1.0  0.11861729655078776  0.9538017092469597  0.7113772754072728  1.0000
  C   C15       1.0  0.6186187030210206  0.7113804586890495  0.9538009149228375  1.0000
  C   C16       1.0  0.8813811185002008  0.04620276299607441  0.28862229292700914  1.0000
  C   C17       1.0  0.34809410730590434  0.2588366037356309  0.10891696511410492  1.0000
  C   C18       1.0  0.15189796195323182  0.891082095270278  0.7411597156553642  1.0000
  C   C19       1.0  0.6519052401654906  0.7411607794668742  0.8910842722786045  1.0000
  C   C20       1.0  0.848089122421108  0.10891356743773882  0.2588357954252488  1.0000
  C   C21       1.0  0.3761221987356437  0.3902622423366751  0.9669174708598763  1.0000
  C   C22       1.0  0.12387983642164355  0.03309217811553111  0.6097350889467423  1.0000
  C   C23       1.0  0.6238792028777244  0.6097356780627055  0.033092555346002  1.0000
  C   C24       1.0  0.8761215253592949  0.9669123072869396  0.39026145901199544  1.0000
  C   C25       1.0  0.38283436236251606  0.47079535076571954  0.8899275970230323  1.0000
  C   C26       1.0  0.11718027051890803  0.1100854376227218  0.5292035851312493  1.0000
  C   C27       1.0  0.6171772242969454  0.5292037434022347  0.11008105122519403  1.0000
  C   C28       1.0  0.8828264427999317  0.8899225884435894  0.4707914219346849  1.0000
  C   C29       1.0  0.27427115209013664  0.6543991346811637  0.8616114378447863  1.0000
  C   C30       1.0  0.2257175238173588  0.1383951110395572  0.34559743831108863  1.0000
  C   C31       1.0  0.725712704627  0.3455959102112018  0.13838976756187552  1.0000
  C   C32       1.0  0.7742770419569994  0.8616093754210326  0.6544005420458492  1.0000
  C   C33       1.0  0.2913877428968661  0.5897556355021648  0.8931244325155847  1.0000
  C   C34       1.0  0.2086113574262924  0.106886130327922  0.410241434035001  1.0000
  C   C35       1.0  0.7086052548539855  0.41023819629732833  0.10688047559072096  1.0000
  C   C36       1.0  0.7913856310835783  0.8931195329255744  0.5897564845253813  1.0000
  C   C37       1.0  0.35706669230060595  0.5373017656190344  0.8575405612383381  1.0000
  C   C38       1.0  0.14294487564981045  0.14247158989196151  0.46269592037199203  1.0000
  C   C39       1.0  0.6429377038606888  0.46269618699785303  0.1424630755051482  1.0000
  C   C40       1.0  0.8570575301435144  0.8575352823719485  0.5372955469294568  1.0000
  C   C41       1.0  0.4020082358905698  0.5517107544675428  0.7909397083044357  1.0000
  C   C42       1.0  0.09799490684918774  0.20906704097980375  0.44828989017810994  1.0000
  C   C43       1.0  0.5979918348176341  0.448288395058441  0.20906192995385459  1.0000
  C   C44       1.0  0.9020073993150038  0.7909350758632174  0.5517080403108  1.0000
  C   C45       1.0  0.3796901527786716  0.6171971405209006  0.7626440284831307  1.0000
  C   C46       1.0  0.1202978327639386  0.2373578729711667  0.3828023439452509  1.0000
  C   C47       1.0  0.6203022432852522  0.382802046969232  0.23735274927705072  1.0000
  C   C48       1.0  0.8796928438854649  0.7626466118252468  0.6171968560067075  1.0000
  C   C49       1.0  0.3073534769141092  0.8566605684678452  0.9067303995112542  1.0000
  C   C50       1.0  0.19266273479379953  0.09327737521646641  0.14334308040314886  1.0000
  C   C51       1.0  0.6926598909456275  0.14334504230192383  0.09327286416666422  1.0000
  C   C52       1.0  0.8073737924830553  0.9067281756587562  0.8566652190230503  1.0000
  C   C53       1.0  0.3949057155650523  0.0019673072246959985  0.9328745864652677  1.0000
  C   C54       1.0  0.10509355572413172  0.0671256645742204  0.9980301886434265  1.0000
  C   C55       1.0  0.6050970986542412  0.9980336396321549  0.06712150847359777  1.0000
  C   C56       1.0  0.8949017053848679  0.9328758613760755  0.0019696021362988936  1.0000
  C   C57       1.0  0.3861931816498228  0.9293680714785212  0.9699933520649043  1.0000
  C   C58       1.0  0.1137979075657896  0.030012327193340096  0.07063016074419443  1.0000
  C   C59       1.0  0.613813948064653  0.07063403235708418  0.030005721123977522  1.0000
  C   C60       1.0  0.8861819066304478  0.9699915936332886  0.9293670654633319  1.0000
  C   C61       1.0  0.5266761031403818  0.9228154496170975  0.006816211423739588  1.0000
  C   C62       1.0  0.9733190462225848  0.9931862651776273  0.07718658678108174  1.0000
  C   C63       1.0  0.4733296020212165  0.0771854881647585  0.993180793740898  1.0000
  C   C64       1.0  0.026671562676334293  0.006813476903282399  0.9228168303004484  1.0000
  C   C65       1.0  0.11746419058142989  0.6337755265325244  0.6328826711937909  1.0000
  C   C66       1.0  0.38254405832646665  0.36709931154655356  0.3662315083587303  1.0000
  C   C67       1.0  0.8825430925448929  0.3662242805894493  0.3671053149697487  1.0000
  C   C68       1.0  0.6174723458684711  0.6328785465071648  0.633776202879773  1.0000
  C   C69       1.0  0.08384619477602945  0.49045301027872773  0.5729916934684383  1.0000
  C   C70       1.0  0.4161570039143144  0.42700116207102934  0.50955167273969  1.0000
  C   C71       1.0  0.9161525251112083  0.509552076149575  0.42700351637191164  1.0000
  C   C72       1.0  0.5838377630739658  0.5729944658491918  0.49044813732456316  1.0000
  C   C73       1.0  0.0870967246617553  0.5726088115596895  0.5557521370784715  1.0000
  C   C74       1.0  0.412910323687086  0.44424329430515297  0.42740040159090154  1.0000
  C   C75       1.0  0.9129047168158165  0.4273957056062373  0.4442387957355295  1.0000
  C   C76       1.0  0.5871020061416915  0.5557622898437132  0.5726077994801815  1.0000
  C   C77       1.0  0.9528530639466624  0.5728065449934336  0.5031022434369847  1.0000
  C   C78       1.0  0.5471431093196842  0.4968966383517569  0.4271941973815388  1.0000
  C   C79       1.0  0.04714394249077707  0.42719676754855845  0.4968941338441086  1.0000
  C   C80       1.0  0.45285993202745795  0.5031025338626947  0.5728027359577866  1.0000
  N   N1        1.0  0.31742974841963445  0.6676255630042292  0.7975988989484863  1.0000
  N   N2        1.0  0.1825561389724513  0.20240614314985816  0.33236777110958843  1.0000
  N   N3        1.0  0.6825548434804602  0.33236653725957416  0.20240130930859834  1.0000
  N   N4        1.0  0.8174377573645017  0.7975989562858673  0.6676262960307969  1.0000
  N   N5        1.0  0.45749772166595903  0.4228645329214445  0.8710111277073553  1.0000
  N   N6        1.0  0.042512327085617606  0.1289992523991046  0.5771289372981416  1.0000
  N   N7        1.0  0.5425039509000628  0.577126914588881  0.12899609282591484  1.0000
  N   N8        1.0  0.9574983072368328  0.8710087880367683  0.42286260411487586  1.0000
  N   N9        1.0  0.4532063233420446  0.37088914189621397  0.920769030359651  1.0000
  N   N10       1.0  0.046789596264325405  0.07924115081629421  0.6291048457813349  1.0000
  N   N11       1.0  0.5467817651804623  0.6291023109066954  0.07924049345555062  1.0000
  N   N12       1.0  0.9532146923307608  0.9207680555213076  0.3708906413315064  1.0000
  N   N13       1.0  0.2772895319432038  0.29234599266011685  0.15465625162984514  1.0000
  N   N14       1.0  0.22270271549795237  0.8453486672168538  0.7076487276520285  1.0000
  N   N15       1.0  0.7226998576099464  0.7076484421314221  0.8453472021209767  1.0000
  N   N16       1.0  0.7772882859035094  0.1546517239891188  0.29234415427636423  1.0000
  O   O1        1.0  0.32796870757314883  0.45362403948203683  0.9506848485218883  1.0000
  O   O2        1.0  0.1720375550756756  0.04932349642178481  0.5463761241422491  1.0000
  O   O3        1.0  0.6720373362923909  0.5463780186745877  0.049322531146998534  1.0000
  O   O4        1.0  0.8279650001371126  0.9506792123720732  0.45362137845405226  1.0000
  O   O5        1.0  0.371703359069386  0.8327309623848935  0.856209612421964  1.0000
  O   O6        1.0  0.12831139687705934  0.1437953433383754  0.16728048530804077  1.0000
  O   O7        1.0  0.6283019057875949  0.1672758880986436  0.14378501116314624  1.0000
  O   O8        1.0  0.8717373935135483  0.8562213594644705  0.8327346519171713  1.0000
  O   O9        1.0  0.18781261094309087  0.8271362540289146  0.9052946156736968  1.0000
  O   O10       1.0  0.3121979645859412  0.09472367927633481  0.17286372727828345  1.0000
  O   O11       1.0  0.8122056800968667  0.17287694970263356  0.09472072482314799  1.0000
  O   O12       1.0  0.6877996475316053  0.905278994879758  0.8271410553351475  1.0000
  O   O13       1.0  0.03914751916636321  0.6268516450473743  0.677539323574216  1.0000
  O   O14       1.0  0.4608440674037056  0.3224381029931891  0.37315311926320777  1.0000
  O   O15       1.0  0.9608643543842774  0.37313813203589774  0.3224479986660428  1.0000
  O   O16       1.0  0.5391321066668909  0.6775409643690227  0.626858961492417  1.0000
  O   O17       1.0  0.22468949682257752  0.6887483982796712  0.6462446626000615  1.0000
  O   O18       1.0  0.27533309878851503  0.35374479476806203  0.3112489677344927  1.0000
  O   O19       1.0  0.7753242854437445  0.31125079677526213  0.3537456881447342  1.0000
  O   O20       1.0  0.7246881289559185  0.646230199729928  0.6887424888975605  1.0000
  O   O21       1.0  0.48586212903358483  0.7977557778986865  0.7186672118331788  1.0000
  O   O22       1.0  0.014141930697320526  0.2813221905667619  0.20225728422278177  1.0000
  O   O23       1.0  0.5141427672131514  0.20224100155569152  0.2813351508747389  1.0000
  O   O24       1.0  0.985867372638893  0.7186484734749998  0.7977725037273449  1.0000
