data_image0
_chemical_formula_structural       Mn2H28C24N8O8
_chemical_formula_sum              "Mn2 H28 C24 N8 O8"
_cell_length_a       9.37095711409521
_cell_length_b       9.529942743598497
_cell_length_c       9.586885860103825
_cell_angle_alpha    68.22466687443743
_cell_angle_beta     87.12088464325589
_cell_angle_gamma    63.92336429413366

_space_group_name_H-M_alt    "P 1"
_space_group_IT_number       1

loop_
  _space_group_symop_operation_xyz
  'x, y, z'

loop_
  _atom_site_type_symbol
  _atom_site_label
  _atom_site_symmetry_multiplicity
  _atom_site_fract_x
  _atom_site_fract_y
  _atom_site_fract_z
  _atom_site_occupancy
  Mn  Mn1       1.0  0.1675752535021361  0.49798347241827656  0.242776653696133  1.0000
  Mn  Mn2       1.0  0.8324253943836271  0.5020101739706888  0.7572392080856221  1.0000
  H   H1        1.0  0.8592219335506429  0.1620956881122879  0.5030783195587177  1.0000
  H   H2        1.0  0.14078243101459983  0.8379093097507991  0.4969185608150042  1.0000
  H   H3        1.0  0.9471900037393157  0.14085069449608062  0.33968553221131254  1.0000
  H   H4        1.0  0.0528154095836656  0.8591568393371674  0.6603103599430895  1.0000
  H   H5        1.0  0.6637133098881949  0.9464902595033847  0.08339178308867191  1.0000
  H   H6        1.0  0.33628679004235107  0.05351473005681841  0.9166032124575594  1.0000
  H   H7        1.0  0.6086427772689618  0.8087817224321154  0.045066441684284184  1.0000
  H   H8        1.0  0.39136000754817246  0.19122451334644813  0.9549227518486204  1.0000
  H   H9        1.0  0.8757708672134471  0.9005267554916969  0.37966462183337774  1.0000
  H   H10       1.0  0.12423672262554673  0.09947570606473023  0.6203330481480337  1.0000
  H   H11       1.0  0.7799464938210647  0.9347491797452249  0.5355119825948408  1.0000
  H   H12       1.0  0.22005947868266418  0.06525455428422329  0.4644863343022935  1.0000
  H   H13       1.0  0.4938291604592848  0.5773149302896882  0.2938201945145593  1.0000
  H   H14       1.0  0.5061629214420975  0.42268880483339893  0.7061787678704193  1.0000
  H   H15       1.0  0.5873431917649582  0.7942882137863948  0.31009425132653934  1.0000
  H   H16       1.0  0.4126516474120551  0.20571166520862497  0.6898934941409538  1.0000
  H   H17       1.0  0.44189738384299926  0.012157313754919099  0.24045242810681342  1.0000
  H   H18       1.0  0.558101701175133  0.9878425908217565  0.7595413690664472  1.0000
  H   H19       1.0  0.75804159257968  0.1814260522692237  0.1093193227225626  1.0000
  H   H20       1.0  0.2419585515495299  0.8185738608627205  0.890676508236929  1.0000
  H   H21       1.0  0.001216868632916115  0.9016889343149829  0.14467313062145584  1.0000
  H   H22       1.0  0.9987751897764954  0.09831482240657152  0.8553310403613639  1.0000
  H   H23       1.0  0.49274654539865287  0.1573807568253613  0.4814203380891371  1.0000
  H   H24       1.0  0.5072605398116112  0.8426179006916997  0.5185787645683533  1.0000
  H   H25       1.0  0.4360497216386322  0.4122610081318712  0.0080694528141763  1.0000
  H   H26       1.0  0.5639520257306643  0.5877376454861292  0.9919288563882915  1.0000
  H   H27       1.0  0.15512395372910254  0.0962147285677517  0.13695180474611132  1.0000
  H   H28       1.0  0.844873528048943  0.9037864355228677  0.8630395141841802  1.0000
  C   C1        1.0  0.0029870641256268095  0.5830412960527623  0.9457999316828849  1.0000
  C   C2        1.0  0.9970285513949547  0.4169422697367153  0.05423461501732161  1.0000
  C   C3        1.0  0.9218662218056226  0.07049256826127248  0.4499446214851517  1.0000
  C   C4        1.0  0.07813760802741133  0.9295136890316372  0.5500497309926828  1.0000
  C   C5        1.0  0.5602968944091842  0.925722012701847  0.06716293938990964  1.0000
  C   C6        1.0  0.43970375904715553  0.0742817001497613  0.9328304171739391  1.0000
  C   C7        1.0  0.8139472038743565  0.9969737355746985  0.42730654791239436  1.0000
  C   C8        1.0  0.18605610157980124  0.0030312537331269995  0.5726882986751036  1.0000
  C   C9        1.0  0.9229083247352604  0.5770332353121008  0.4471392825259955  1.0000
  C   C10       1.0  0.07709988823327762  0.42295781395797866  0.5528625861778309  1.0000
  C   C11       1.0  0.37925757872710625  0.6901518876728403  0.25219408249404307  1.0000
  C   C12       1.0  0.6207313408927747  0.3098492900498683  0.7478007588182367  1.0000
  C   C13       1.0  0.4917037127474446  0.895929224159758  0.21745655648925324  1.0000
  C   C14       1.0  0.5082916320148527  0.10407194009911082  0.7825348617468535  1.0000
  C   C15       1.0  0.6545231132791614  0.2081012870865209  0.16959494577485404  1.0000
  C   C16       1.0  0.3454780899611266  0.7918986346006844  0.8304029189708686  1.0000
  C   C17       1.0  0.12646184434180446  0.8633811690572699  0.17485391891128907  1.0000
  C   C18       1.0  0.8735286399744382  0.1366213024845635  0.8251466289558281  1.0000
  C   C19       1.0  0.5187581927704984  0.19554659244806763  0.36570086507666844  1.0000
  C   C20       1.0  0.4812435104001337  0.8044571375981918  0.6342966087125461  1.0000
  C   C21       1.0  0.49551844880404167  0.3233167227410476  0.12149013198128962  1.0000
  C   C22       1.0  0.5044843670731254  0.6766819307928246  0.8785081275682741  1.0000
  C   C23       1.0  0.20145387032688702  0.9609302806256962  0.16846499124360284  1.0000
  C   C24       1.0  0.7985414443319316  0.0390759471023614  0.8315224664205374  1.0000
  N   N1        1.0  0.6667555918193032  0.1272037199141991  0.3247740126819707  1.0000
  N   N2        1.0  0.33324772398820107  0.872798741978734  0.675223855911085  1.0000
  N   N3        1.0  0.23834248070428296  0.6946604745084882  0.22732488285721078  1.0000
  N   N4        1.0  0.7616469257073037  0.30534200575685594  0.7726777981019595  1.0000
  N   N5        1.0  0.41206594125839763  0.315007084668153  0.24469521230833643  1.0000
  N   N6        1.0  0.5879363107396289  0.6849953729892136  0.7553016642180594  1.0000
  N   N7        1.0  0.3619657296386834  0.8492052888519268  0.21819308208346652  1.0000
  N   N8        1.0  0.6380306883298844  0.15079587100312608  0.7817972447801582  1.0000
  O   O1        1.0  0.07933998748247724  0.6376397730811547  0.9996761865271964  1.0000
  O   O2        1.0  0.9206698757944738  0.36233738392019177  0.0003443121669519884  1.0000
  O   O3        1.0  0.7986310557668617  0.6307848018320358  0.5099375081121239  1.0000
  O   O4        1.0  0.20135988245232286  0.3692190024902899  0.4900781714388743  1.0000
  O   O5        1.0  0.9326582581531823  0.6380416246533471  0.30725376148486566  1.0000
  O   O6        1.0  0.06733556341049514  0.36193554656897214  0.6927706071616485  1.0000
  O   O7        1.0  0.9299897405190977  0.6527149387671897  0.8122971564123986  1.0000
  O   O8        1.0  0.0700146965195501  0.34727236719162147  0.1877208780002064  1.0000
