data_image0
_chemical_formula_structural       Cd2H58C46N6O10
_chemical_formula_sum              "Cd2 H58 C46 N6 O10"
_cell_length_a       7.867901662118337
_cell_length_b       9.509333428944672
_cell_length_c       15.396374375299256
_cell_angle_alpha    88.04762941253291
_cell_angle_beta     89.74747030042158
_cell_angle_gamma    74.47494315230418

_space_group_name_H-M_alt    "P 1"
_space_group_IT_number       1

loop_
  _space_group_symop_operation_xyz
  'x, y, z'

loop_
  _atom_site_type_symbol
  _atom_site_label
  _atom_site_symmetry_multiplicity
  _atom_site_fract_x
  _atom_site_fract_y
  _atom_site_fract_z
  _atom_site_occupancy
  Cd  Cd1       1.0  0.64748098166163  0.06632713940265231  0.5572623691064675  1.0000
  Cd  Cd2       1.0  0.1607565958333197  0.09470135533087638  0.13654449231095356  1.0000
  H   H1        1.0  0.7825079098906186  0.38837906231027824  0.7585802797937475  1.0000
  H   H2        1.0  0.1408959732202391  0.5558599627641384  0.7180384533336974  1.0000
  H   H3        1.0  0.08254084457376358  0.5604589496279715  0.6075940398612614  1.0000
  H   H4        1.0  0.07421507070810658  0.3151609070749259  0.6275743400055587  1.0000
  H   H5        1.0  0.0884031486670409  0.32351059219326567  0.7413461618956345  1.0000
  H   H6        1.0  0.7060077061970063  0.7412949423810602  0.8027631165631988  1.0000
  H   H7        1.0  0.9348654428997062  0.7264744115613339  0.8088630091733079  1.0000
  H   H8        1.0  0.859343427537695  0.5688693752482976  0.8270977156572099  1.0000
  H   H9        1.0  0.8408712914126253  0.5308314710054985  0.526502349582536  1.0000
  H   H10       1.0  0.6477841591875516  0.67816996046605  0.5351355655988995  1.0000
  H   H11       1.0  0.6306417408173388  0.4955524597428181  0.5359676778163942  1.0000
  H   H12       1.0  0.5401072709916903  0.5957853635465256  0.7660118833034557  1.0000
  H   H13       1.0  0.45516240735535246  0.5447763917935545  0.6695831745657725  1.0000
  H   H14       1.0  0.4820768061590569  0.7249762929216742  0.6772384853946318  1.0000
  H   H15       1.0  0.3699430143304098  0.3074274497883422  0.24939788258635076  1.0000
  H   H16       1.0  0.16502679980597182  0.5295384530479906  0.30661023564690026  1.0000
  H   H17       1.0  0.1520788091589722  0.5678044683626382  0.46834486521680657  1.0000
  H   H18       1.0  0.3547696638831468  0.37551714176873213  0.5650991599389881  1.0000
  H   H19       1.0  0.5640057094877589  0.1365701755753861  0.2094008243349208  1.0000
  H   H20       1.0  0.7750071718727511  0.9068172582687734  0.16934817593903517  1.0000
  H   H21       1.0  0.9275287580933023  0.7277753915687625  0.2871979098371041  1.0000
  H   H22       1.0  0.8657317250872648  0.7979509617560794  0.4435143800193443  1.0000
  H   H23       1.0  0.3535558289877017  0.07646135757045867  0.8516823221638106  1.0000
  H   H24       1.0  0.2831571913621146  0.9143887839910647  0.8688502729103289  1.0000
  H   H25       1.0  0.1256675412488448  0.08688208939715737  0.8611360712795244  1.0000
  H   H26       1.0  0.43321851834068065  0.12057881563875843  0.7240291240394042  1.0000
  H   H27       1.0  0.12211806629375119  0.9416089980918089  0.6378133645771411  1.0000
  H   H28       1.0  0.9890345453982047  0.982570549197149  0.7313803944887383  1.0000
  H   H29       1.0  0.16348162866412252  0.8177738414842536  0.730048423091233  1.0000
  H   H30       1.0  0.046278104945869813  0.1137826137942781  0.4820546492668924  1.0000
  H   H31       1.0  0.25207861634670786  0.8764258090150745  0.5231868080258976  1.0000
  H   H32       1.0  0.42181296845846805  0.7187895177644633  0.40683822717915047  1.0000
  H   H33       1.0  0.38046900351523766  0.8155392290746234  0.2509351017411133  1.0000
  H   H34       1.0  0.86387537281027  0.2973623374279414  0.4399169757574483  1.0000
  H   H35       1.0  0.6635944477696396  0.5268592457584447  0.3802383390293612  1.0000
  H   H36       1.0  0.6619153805035437  0.5853880069244326  0.21817906359665065  1.0000
  H   H37       1.0  0.8714392540359625  0.40471507754725167  0.12514617277609827  1.0000
  H   H38       1.0  0.3466576597577173  0.7206209539233797  0.9410283603231803  1.0000
  H   H39       1.0  0.6534621218913581  0.5906223323807681  0.0563698824333727  1.0000
  H   H40       1.0  0.6349927267155239  0.5765922917890053  0.9431313692031008  1.0000
  H   H41       1.0  0.5687720734688  0.37223097751677864  0.08597318177758947  1.0000
  H   H42       1.0  0.6208845288042824  0.33364186148186536  0.976823318994384  1.0000
  H   H43       1.0  0.16953778826827198  0.4442569748069686  0.8873461958219621  1.0000
  H   H44       1.0  0.38331655245794133  0.32524816322706573  0.8770890258349126  1.0000
  H   H45       1.0  0.3542847025356578  0.5155910507506362  0.8663127433800637  1.0000
  H   H46       1.0  0.013081128394681119  0.767434048014053  0.02941949545648009  1.0000
  H   H47       1.0  0.9779354123162207  0.5913603277130335  0.0149089374355498  1.0000
  H   H48       1.0  0.06897198228350737  0.6790382348054108  0.9300173548927402  1.0000
  H   H49       1.0  0.18152507209281046  0.6903605388007178  0.1613813205185366  1.0000
  H   H50       1.0  0.36698736095421214  0.5353537222306812  0.1680768871987581  1.0000
  H   H51       1.0  0.15110819522727337  0.5125102933629079  0.15579160024842753  1.0000
  H   H52       1.0  0.8404668745088557  0.15867134144399128  0.8358540027035913  1.0000
  H   H53       1.0  0.6098763591250815  0.1825597747869594  0.8410311382300576  1.0000
  H   H54       1.0  0.7492050108894402  0.011016993799238194  0.8114046757278357  1.0000
  H   H55       1.0  0.6793675916863081  0.9336249471095213  0.04432200818662579  1.0000
  H   H56       1.0  0.6536249562872457  0.8758478354406519  0.9370995332778943  1.0000
  H   H57       1.0  0.505101939632162  0.0373103964109731  0.9775428819730434  1.0000
  H   H58       1.0  0.9443752737359146  0.16828475958948264  0.9646307357104432  1.0000
  C   C1        1.0  0.8587825024218386  0.642069250678084  0.6906443822583765  1.0000
  C   C2        1.0  0.7256346632540128  0.5560709979352011  0.6575746468394854  1.0000
  C   C3        1.0  0.8203177531964625  0.3965163721118047  0.690125412837048  1.0000
  C   C4        1.0  0.04120548133354873  0.5372714320082536  0.6733529159592067  1.0000
  C   C5        1.0  0.01962066701113941  0.3811679864032627  0.6832349389115462  1.0000
  C   C6        1.0  0.8369497889073255  0.6710558657123328  0.7879746597319011  1.0000
  C   C7        1.0  0.7115810492977486  0.5656272634018221  0.5578892592066892  1.0000
  C   C8        1.0  0.5398069154139405  0.6091021610211342  0.6948563093601051  1.0000
  C   C9        1.0  0.8279443945552599  0.7876175679580442  0.6386095899889097  1.0000
  C   C10       1.0  0.7536541724510215  0.2822922012666353  0.64387208535247  1.0000
  C   C11       1.0  0.4733887569678429  0.2247392784297943  0.3775646475051316  1.0000
  C   C12       1.0  0.3653341161937717  0.3257627804913382  0.319020123834747  1.0000
  C   C13       1.0  0.24939807745499817  0.45017043442259563  0.3514444594541572  1.0000
  C   C14       1.0  0.24176461789688367  0.471869260183979  0.4407188890196351  1.0000
  C   C15       1.0  0.3530743352255428  0.3663142527534403  0.49467431683690677  1.0000
  C   C16       1.0  0.600034291643581  0.08851312429759868  0.34860694281552174  1.0000
  C   C17       1.0  0.6305551777402769  0.059569650511519995  0.26045464492214876  1.0000
  C   C18       1.0  0.7488636609324857  0.9289697364988778  0.23756800254881227  1.0000
  C   C19       1.0  0.8342590269698963  0.8308379463679145  0.3027547947449847  1.0000
  C   C20       1.0  0.8000144865882178  0.867511375418374  0.3890952645018188  1.0000
  C   C21       1.0  0.25192427539789014  0.022310710726664195  0.8356165283792973  1.0000
  C   C22       1.0  0.34785805416012744  0.06547481703776728  0.6897060195540021  1.0000
  C   C23       1.0  0.1233579273186365  0.9335492440479242  0.7086126010214853  1.0000
  C   C24       1.0  0.0988463804073945  0.0886492415260705  0.3435265456411399  1.0000
  C   C25       1.0  0.11876438101546677  0.0451227537828061  0.4315712810802097  1.0000
  C   C26       1.0  0.23485909589673765  0.9107663130074786  0.45501636675837887  1.0000
  C   C27       1.0  0.32952477157351723  0.8239919860975675  0.39070659508658406  1.0000
  C   C28       1.0  0.3063707892119469  0.8752460837905854  0.3045501363968484  1.0000
  C   C29       1.0  0.9747856009696957  0.22922517043191695  0.31340862731111935  1.0000
  C   C30       1.0  0.8635947061884152  0.32380829923981463  0.3703852939857696  1.0000
  C   C31       1.0  0.7504247948645855  0.45267209907904504  0.33651422277392123  1.0000
  C   C32       1.0  0.7489331739056979  0.4858633312663301  0.2474196288147681  1.0000
  C   C33       1.0  0.8638634813832622  0.3864270598411821  0.19525499254136489  1.0000
  C   C34       1.0  0.34103193481653443  0.433782694853207  0.00037924363072509875  1.0000
  C   C35       1.0  0.25155063608346506  0.5897289260979689  0.0369390583668761  1.0000
  C   C36       1.0  0.38671007794503953  0.676862952493934  0.007022822170995397  1.0000
  C   C37       1.0  0.5695398485360028  0.5665072898107653  0.0053250018255894946  1.0000
  C   C38       1.0  0.5382015837484599  0.4144779361851362  0.019100498689446996  1.0000
  C   C39       1.0  0.3090472011470098  0.4306240867834461  0.9021759625714194  1.0000
  C   C40       1.0  0.06691036671102073  0.6606529315392251  0.0006293797148728987  1.0000
  C   C41       1.0  0.2384840762408587  0.5808577335471554  0.1364534605866439  1.0000
  C   C42       1.0  0.2678610467092852  0.3167137581172099  0.04664196284040399  1.0000
  C   C43       1.0  0.7385631656595492  0.10389717577919548  0.8535913920918218  1.0000
  C   C44       1.0  0.642795534377285  0.9708332025298814  0.9775089939978726  1.0000
  C   C45       1.0  0.8667593319210027  0.1010604193802109  0.9972774415561857  1.0000
  C   C46       1.0  0.3731985960573069  0.8075316972179181  0.06391411723690509  1.0000
  N   N1        1.0  0.46573271670847294  0.24723519501458202  0.4635533297786053  1.0000
  N   N2        1.0  0.685913785196078  0.9931117042505804  0.411417576504263  1.0000
  N   N3        1.0  0.2440290894849326  0.010038393617236399  0.7423179462307627  1.0000
  N   N4        1.0  0.1934828342795498  0.003904470709166199  0.2817473189200185  1.0000
  N   N5        1.0  0.9730302602701286  0.2626520347773535  0.22758308953866185  1.0000
  N   N6        1.0  0.7588379107443328  0.0555639445129259  0.9443213038565756  1.0000
  O   O1        1.0  0.3506014352726865  0.058772868493271284  0.6086872883197003  1.0000
  O   O2        1.0  0.700076330222977  0.893045896989747  0.6647059067555572  1.0000
  O   O3        1.0  0.8435916635777827  0.21288782470694662  0.5813707180994783  1.0000
  O   O4        1.0  0.6075551316051316  0.261213671818652  0.6683204103294427  1.0000
  O   O5        1.0  0.9191422981010292  0.7989214350463242  0.5725666815100254  1.0000
  O   O6        1.0  0.8814032437093502  0.07287501358942447  0.07733714305378918  1.0000
  O   O7        1.0  0.47498792688750047  0.7991792623056285  0.12760389235916134  1.0000
  O   O8        1.0  0.24578408867231608  0.9202953709077664  0.04205127242020978  1.0000
  O   O9        1.0  0.12034661177640517  0.30086548983074113  0.022160276819810993  1.0000
  O   O10       1.0  0.35671723185534177  0.23934587813432276  0.1096984438449624  1.0000
