data_image0
_chemical_formula_structural       Zn4H26C34N14O12
_chemical_formula_sum              "Zn4 H26 C34 N14 O12"
_cell_length_a       7.250174523509899
_cell_length_b       10.087389138844047
_cell_length_c       14.564904491863793
_cell_angle_alpha    85.46322974848476
_cell_angle_beta     80.80125788952407
_cell_angle_gamma    89.41673324722717

_space_group_name_H-M_alt    "P 1"
_space_group_IT_number       1

loop_
  _space_group_symop_operation_xyz
  'x, y, z'

loop_
  _atom_site_type_symbol
  _atom_site_label
  _atom_site_symmetry_multiplicity
  _atom_site_fract_x
  _atom_site_fract_y
  _atom_site_fract_z
  _atom_site_occupancy
  Zn  Zn1       1.0  0.5637771920452083  0.3562096596335633  0.7483171258378861  1.0000
  Zn  Zn2       1.0  0.4362256665399542  0.6437919253116816  0.2516820166428105  1.0000
  Zn  Zn3       1.0  0.31735472684206917  0.6685572997400795  0.7427310651612231  1.0000
  Zn  Zn4       1.0  0.6826480938683018  0.33144622831152043  0.25726937778939885  1.0000
  H   H1        1.0  0.44043812705049845  0.4215353287836691  0.9269268383021583  1.0000
  H   H2        1.0  0.559560549486349  0.5784623025759854  0.0730720720976734  1.0000
  H   H3        1.0  0.6198421295578103  0.34123563876679697  0.9481238601199422  1.0000
  H   H4        1.0  0.38015926537011074  0.6587658784314101  0.0518774506296538  1.0000
  H   H5        1.0  0.4576070485475583  0.4428381178728598  0.57735323595859  1.0000
  H   H6        1.0  0.5423971816540387  0.5571624500427175  0.42264653464133073  1.0000
  H   H7        1.0  0.6583104292085409  0.3763318768577334  0.5443256478029639  1.0000
  H   H8        1.0  0.3416924352810256  0.6236647597428018  0.455673000801383  1.0000
  H   H9        1.0  0.18244093801696687  0.1744011426437027  0.7591868401123136  1.0000
  H   H10       1.0  0.8175632921846301  0.8255994252718748  0.24081293048760702  1.0000
  H   H11       1.0  0.48767304037937015  0.14558992578813698  0.6301017009315117  1.0000
  H   H12       1.0  0.5123241725002358  0.8544076378244793  0.36989937773721243  1.0000
  H   H13       1.0  0.5349168960625478  0.9002495604384035  0.6260153186336624  1.0000
  H   H14       1.0  0.4650829431673388  0.0997508042360451  0.3739909567729427  1.0000
  H   H15       1.0  0.8316594907136049  0.9154685890143454  0.8599269635744095  1.0000
  H   H16       1.0  0.1683461842078415  0.08453301820145498  0.14007128899157817  1.0000
  H   H17       1.0  0.7623471945426131  0.15858659714211848  0.8577034486133999  1.0000
  H   H18       1.0  0.2376599029030331  0.8414160267291915  0.14229397524327683  1.0000
  H   H19       1.0  0.89917394392657  0.7670108190947571  0.050591018916819136  1.0000
  H   H20       1.0  0.10081625875962173  0.23299266535114063  0.9494117053384701  1.0000
  H   H21       1.0  0.707494103074133  0.9570652584541929  0.11262392650865391  1.0000
  H   H22       1.0  0.29249186400981847  0.04293818126352278  0.8873804772810132  1.0000
  H   H23       1.0  0.9928821197315686  0.788720160124825  0.422662791536311  1.0000
  H   H24       1.0  0.007118007429525605  0.2112735621903425  0.5773341069532307  1.0000
  H   H25       1.0  0.16224020507455347  0.004404953275283693  0.6374767291863821  1.0000
  H   H26       1.0  0.8377586934186709  0.9955929045314416  0.36251528796728394  1.0000
  C   C1        1.0  0.8660124093163617  0.5621514346493227  0.7525422779687929  1.0000
  C   C2        1.0  0.13399324279735939  0.4378432131812886  0.2474562482247578  1.0000
  C   C3        1.0  0.725375597695397  0.745072525696763  0.7444972844832592  1.0000
  C   C4        1.0  0.2746258096534221  0.25492603155250027  0.2555034542106753  1.0000
  C   C5        1.0  0.1507047686665146  0.27982512419833927  0.7581919812181468  1.0000
  C   C6        1.0  0.8493008710263084  0.7201724835812158  0.2418071170310584  1.0000
  C   C7        1.0  0.009871441444907708  0.46310061295887556  0.7562849022990719  1.0000
  C   C8        1.0  0.9901314073655102  0.5368979893927203  0.24371435745058534  1.0000
  C   C9        1.0  0.5588943800320935  0.08929208568081748  0.6809721218430269  1.0000
  C   C10       1.0  0.44110701163758387  0.9107084373195063  0.31902922799621797  1.0000
  C   C11       1.0  0.5884511860958811  0.9535039450182198  0.6783021005824852  1.0000
  C   C12       1.0  0.41155291093188856  0.04649648702911689  0.3217018059651339  1.0000
  C   C13       1.0  0.6866683520393907  0.8877685486002845  0.7435531447397778  1.0000
  C   C14       1.0  0.31333296978512243  0.11223091226803206  0.25645031216296843  1.0000
  C   C15       1.0  0.7528137611089605  0.962500714720107  0.8086940223162814  1.0000
  C   C16       1.0  0.24718761488157537  0.03750177403127  0.191307938668281  1.0000
  C   C17       1.0  0.7146279826801774  0.09743356918541218  0.807959785719355  1.0000
  C   C18       1.0  0.28537486022583647  0.9025699815108934  0.1920399679066591  1.0000
  C   C19       1.0  0.21509503532445962  0.7790599918755062  0.921996699318683  1.0000
  C   C20       1.0  0.7848965513990721  0.2209395155917733  0.07800608100016153  1.0000
  C   C21       1.0  0.10892999349770348  0.8930889174804548  0.9658352252147467  1.0000
  C   C22       1.0  0.8910546999150101  0.10691167569893166  0.034165260191223  1.0000
  C   C23       1.0  0.9438014203972429  0.8692247704512325  0.029388805731962026  1.0000
  C   C24       1.0  0.056183251431917804  0.13078273682393157  0.970612784695682  1.0000
  C   C25       1.0  0.836043456550165  0.9753260390516157  0.06322314373463202  1.0000
  C   C26       1.0  0.16393698619324945  0.024683411891139383  0.9367800480480853  1.0000
  C   C27       1.0  0.1837029354287623  0.7636447129611809  0.5686271079830121  1.0000
  C   C28       1.0  0.816297183181767  0.23635990024128972  0.4313707391695943  1.0000
  C   C29       1.0  0.08728551204565349  0.8853819400245656  0.5332939076303591  1.0000
  C   C30       1.0  0.912714567465919  0.11461074280329336  0.4667044085980621  1.0000
  C   C31       1.0  0.9945880288291137  0.8816057723920705  0.45612068826667956  1.0000
  C   C32       1.0  0.005413492144057804  0.11838695553812772  0.5438761490174642  1.0000
  C   C33       1.0  0.09144157807916292  0.00437322200676959  0.5769046382575171  1.0000
  C   C34       1.0  0.9085614444260274  0.9956176305641194  0.4230887302878018  1.0000
  N   N1        1.0  0.5997930266336624  0.6507097794244883  0.7349290310074466  1.0000
  N   N2        1.0  0.4002097111985706  0.34928870970357195  0.2650736753652936  1.0000
  N   N3        1.0  0.6909934505394445  0.5325430097704498  0.74081038133739  1.0000
  N   N4        1.0  0.30901077314565834  0.46745556974936153  0.2591894674418285  1.0000
  N   N5        1.0  0.8925445653488283  0.6930780627367312  0.7564887142406249  1.0000
  N   N6        1.0  0.10745829914073822  0.3069185738638041  0.24350993436371482  1.0000
  N   N7        1.0  0.1898755941283596  0.49223839898543514  0.758593055585692  1.0000
  N   N8        1.0  0.8101272644568027  0.5077631859598098  0.24140608689500456  1.0000
  N   N9        1.0  0.28061296435887334  0.37280823557711773  0.7602401997498377  1.0000
  N   N10       1.0  0.7193912945548604  0.6271943433789317  0.23975880334615607  1.0000
  N   N11       1.0  0.97976414628679  0.33152931743383357  0.75587928674247  1.0000
  N   N12       1.0  0.020241541055554497  0.6684693298330159  0.2441183937678488  1.0000
  N   N13       1.0  0.6194782290347406  0.16048450872482078  0.7450269282577936  1.0000
  N   N14       1.0  0.38052740149542796  0.8395170532015612  0.2549727029574242  1.0000
  O   O1        1.0  0.2615417611877717  0.8019434131747188  0.8333069508801145  1.0000
  O   O2        1.0  0.7384400558182378  0.1980590781957687  0.16669641423511192  1.0000
  O   O3        1.0  0.24585933972153376  0.673362132242765  0.969312575112376  1.0000
  O   O4        1.0  0.7541364192755751  0.32663834621646254  0.030690554556294092  1.0000
  O   O5        1.0  0.2812381004885083  0.7835650507444498  0.6327959293500103  1.0000
  O   O6        1.0  0.7187789063649818  0.2164367134876598  0.36719669558328155  1.0000
  O   O7        1.0  0.16902080153138846  0.6538748240883904  0.53448588181697  1.0000
  O   O8        1.0  0.8309777326689698  0.3461266255498501  0.4655176974965657  1.0000
  O   O9        1.0  0.522214602197174  0.34888406855716164  0.9060817531641662  1.0000
  O   O10       1.0  0.4777882244176084  0.6511145111497213  0.09391819591010629  1.0000
  O   O11       1.0  0.546040290473165  0.3763964510977472  0.595294242664835  1.0000
  O   O12       1.0  0.45396391753278925  0.6236040941731247  0.404706217259701  1.0000
