data_image0
_chemical_formula_structural       Cu4H48C48N8O24
_chemical_formula_sum              "Cu4 H48 C48 N8 O24"
_cell_length_a       10.10949494319413
_cell_length_b       11.58111785058951
_cell_length_c       12.460267267026483
_cell_angle_alpha    90.00013957044551
_cell_angle_beta     89.9997939136319
_cell_angle_gamma    96.36565622622342

_space_group_name_H-M_alt    "P 1"
_space_group_IT_number       1

loop_
  _space_group_symop_operation_xyz
  'x, y, z'

loop_
  _atom_site_type_symbol
  _atom_site_label
  _atom_site_symmetry_multiplicity
  _atom_site_fract_x
  _atom_site_fract_y
  _atom_site_fract_z
  _atom_site_occupancy
  Cu  Cu1       1.0  0.052670150224244594  0.0829010868277464  0.9367431644185659  1.0000
  Cu  Cu2       1.0  0.447332418966468  0.41710084647043294  0.43674405100456687  1.0000
  Cu  Cu3       1.0  0.9473218648192088  0.9171087822330154  0.0632655285959629  1.0000
  Cu  Cu4       1.0  0.5526744748814565  0.5828949795017665  0.5632678521763239  1.0000
  H   H1        1.0  0.367501604525188  0.6396949970174078  0.187363731830871  1.0000
  H   H2        1.0  0.13247662451895073  0.8602998894221512  0.6873552056348019  1.0000
  H   H3        1.0  0.6324952309521735  0.360313961344275  0.8126321203594744  1.0000
  H   H4        1.0  0.8675204177368344  0.1396890616141206  0.3126406465328344  1.0000
  H   H5        1.0  0.2092613591946133  0.6537125127505519  0.12553464892578603  1.0000
  H   H6        1.0  0.2907283517451376  0.8462847486371601  0.625533650302117  1.0000
  H   H7        1.0  0.790732152442139  0.3462938643767119  0.8744628083685698  1.0000
  H   H8        1.0  0.7092752182885179  0.1537084960861606  0.3744670171667296  1.0000
  H   H9        1.0  0.2801436119597298  0.7632074071730274  0.21205127032784793  1.0000
  H   H10       1.0  0.21983637204964165  0.7367866493284867  0.7120454201805375  1.0000
  H   H11       1.0  0.7198469354937699  0.23679899509411945  0.7879493971749202  1.0000
  H   H12       1.0  0.7801615383847321  0.2632014245345786  0.2879472217808186  1.0000
  H   H13       1.0  0.5713339498004971  0.9513927256084432  0.7956316319012801  1.0000
  H   H14       1.0  0.9286599072693349  0.5485933065182567  0.2956221176815532  1.0000
  H   H15       1.0  0.42865156644210606  0.0486058910526239  0.2043658253961738  1.0000
  H   H16       1.0  0.0713486940081367  0.451407723793068  0.7043657089725388  1.0000
  H   H17       1.0  0.45845591405252156  0.04104836064991701  0.8572642883895584  1.0000
  H   H18       1.0  0.041545782286057396  0.45894470570707585  0.35725522933790194  1.0000
  H   H19       1.0  0.541540293039752  0.9589632124557927  0.14272514339661063  1.0000
  H   H20       1.0  0.9584581764099481  0.541044186662539  0.6427269794524122  1.0000
  H   H21       1.0  0.39704068716299895  0.9317396002047644  0.7664037618261119  1.0000
  H   H22       1.0  0.10295488285964179  0.5682544446586633  0.266394449339117  1.0000
  H   H23       1.0  0.6029491120234809  0.06826854801286693  0.23358807761867692  1.0000
  H   H24       1.0  0.897055454758565  0.43174483131529234  0.7335949824124484  1.0000
  H   H25       1.0  0.267870449405045  0.5279032789278163  0.9689673733594831  1.0000
  H   H26       1.0  0.2321324339971227  0.9720928927590153  0.4689658073633255  1.0000
  H   H27       1.0  0.7321457875746801  0.4721029054943814  0.031035701758185007  1.0000
  H   H28       1.0  0.7678684116418495  0.027902114677715407  0.5310308473564903  1.0000
  H   H29       1.0  0.3010432505779335  0.5865364967955033  0.8373466178712905  1.0000
  H   H30       1.0  0.1989552613588471  0.9134524616113567  0.33734501836978137  1.0000
  H   H31       1.0  0.6989667273615225  0.4134601728158955  0.16265164193892903  1.0000
  H   H32       1.0  0.8010460638375178  0.08654602098327761  0.6626468210471971  1.0000
  H   H33       1.0  0.4286829446307223  0.5291550302555097  0.908475658359457  1.0000
  H   H34       1.0  0.07132126587615058  0.9708488242915723  0.4084713534783759  1.0000
  H   H35       1.0  0.571329877596881  0.47084074542969045  0.09152340399656822  1.0000
  H   H36       1.0  0.9286783229778449  0.02915141264134752  0.5915196833921216  1.0000
  H   H37       1.0  0.1706917826903549  0.06115771265164232  0.7113930646962672  1.0000
  H   H38       1.0  0.3293017103293465  0.4388429280589962  0.21139755814859743  1.0000
  H   H39       1.0  0.8293169384345019  0.9388441864722097  0.2886140231826957  1.0000
  H   H40       1.0  0.670691201859846  0.5611591051213412  0.7886063195498069  1.0000
  H   H41       1.0  0.3364609083156722  0.11371305710549963  0.669262161695059  1.0000
  H   H42       1.0  0.1635372182556978  0.3862839716518708  0.16926782872211285  1.0000
  H   H43       1.0  0.6635359850729259  0.8862819838543959  0.33074171598965313  1.0000
  H   H44       1.0  0.836468778471186  0.6137196901871961  0.8307368515098333  1.0000
  H   H45       1.0  0.1995239600632672  0.16544134007313002  0.6042814718206557  1.0000
  H   H46       1.0  0.3004698524048166  0.33455819058460184  0.10428661929002912  1.0000
  H   H47       1.0  0.8004803582357667  0.8345501587006084  0.3957288262571766  1.0000
  H   H48       1.0  0.6995258751037313  0.6654499073776565  0.8957204686150391  1.0000
  C   C1        1.0  0.21128326623524876  0.8976590546554349  0.9884578219206618  1.0000
  C   C2        1.0  0.28871570488507803  0.6023380632327504  0.488451248297821  1.0000
  C   C3        1.0  0.7887030891809488  0.10234564356043312  0.011556488953445403  1.0000
  C   C4        1.0  0.7112978655947372  0.39765596651011503  0.5115638650752246  1.0000
  C   C5        1.0  0.33682999085724663  0.844428582270581  0.9879945053167634  1.0000
  C   C6        1.0  0.16316467026953768  0.6555659617152828  0.4879868159450498  1.0000
  C   C7        1.0  0.6631513953533172  0.15558311651556522  0.011994123940390001  1.0000
  C   C8        1.0  0.8368480610564292  0.34442198646192423  0.5120018132393086  1.0000
  C   C9        1.0  0.37205516875445704  0.7615606273846112  0.05857288417219311  1.0000
  C   C10       1.0  0.12793619354148686  0.7384321224541637  0.558563295917864  1.0000
  C   C11       1.0  0.6279303185292306  0.2384449479791543  0.9414221654800913  1.0000
  C   C12       1.0  0.8720724367014865  0.26156194915083836  0.4414237281773837  1.0000
  C   C13       1.0  0.3045375641063544  0.7003299800635787  0.1511062433022161  1.0000
  C   C14       1.0  0.1954425500037331  0.7996630703657959  0.6510949880261805  1.0000
  C   C15       1.0  0.6954511271146017  0.29967730775281615  0.8488952267552891  1.0000
  C   C16       1.0  0.804555600202761  0.20032674107984152  0.348898456487774  1.0000
  C   C17       1.0  0.45072666689326  0.8692124414160746  0.9197983961915386  1.0000
  C   C18       1.0  0.04926123766507118  0.6307811388154578  0.4197845667147889  1.0000
  C   C19       1.0  0.5492515443191978  0.13079058622558654  0.0801958509176117  1.0000
  C   C20       1.0  0.9507492198515379  0.3692190059430019  0.580199247180552  1.0000
  C   C21       1.0  0.4714502473045883  0.9532235307460298  0.8293597896688356  1.0000
  C   C22       1.0  0.028542997458501397  0.5467628451801263  0.3293474382388197  1.0000
  C   C23       1.0  0.5285341320333288  0.04678118420566341  0.17063525998411683  1.0000
  C   C24       1.0  0.9714662611827194  0.45322861167362305  0.670639585852577  1.0000
  C   C25       1.0  0.395249077747863  0.39806342994801014  0.666061820024197  1.0000
  C   C26       1.0  0.10475005002491139  0.10193358321335924  0.16605980062790596  1.0000
  C   C27       1.0  0.6047773085303945  0.6019374495782445  0.3339548984396359  1.0000
  C   C28       1.0  0.8952249571976126  0.8980677320045986  0.8339537077081401  1.0000
  C   C29       1.0  0.31238130883784265  0.3462055218713544  0.7544099087934557  1.0000
  C   C30       1.0  0.187620061064834  0.15378905878650073  0.25441337906573847  1.0000
  C   C31       1.0  0.6876278009115069  0.6537920249195749  0.2455971790800646  1.0000
  C   C32       1.0  0.8123727312358326  0.8462121056039043  0.7455913011828772  1.0000
  C   C33       1.0  0.2801832946126339  0.4016270676533155  0.8470468755551225  1.0000
  C   C34       1.0  0.2198246117494449  0.09836766300529125  0.34704370636892895  1.0000
  C   C35       1.0  0.7198274315922077  0.5983678560085155  0.1529610148640828  1.0000
  C   C36       1.0  0.7801755765175571  0.9016369178935336  0.6529577636685958  1.0000
  C   C37       1.0  0.3210644226376189  0.5175858833638786  0.8935908905851023  1.0000
  C   C38       1.0  0.1789428420578645  0.9824109538168033  0.3935887019666069  1.0000
  C   C39       1.0  0.6789463035820303  0.4824090402898167  0.1064097768750685  1.0000
  C   C40       1.0  0.8210627660659215  0.017597060343433703  0.6064055451077408  1.0000
  C   C41       1.0  0.23722116194594633  0.23411322831119466  0.7592356332615966  1.0000
  C   C42       1.0  0.2627773438766283  0.26588225714165503  0.2592375278698782  1.0000
  C   C43       1.0  0.7627826478466629  0.7658817540019245  0.24077225716787612  1.0000
  C   C44       1.0  0.7372135921881906  0.7341197927998027  0.7407695600354816  1.0000
  C   C45       1.0  0.2350790741783655  0.13660153478755183  0.6817941706941897  1.0000
  C   C46       1.0  0.2649152885264384  0.36339729329555587  0.18180109267434835  1.0000
  C   C47       1.0  0.7649257236780684  0.8633934391440977  0.31821131208080544  1.0000
  C   C48       1.0  0.7350811872738205  0.6366090587026676  0.8182027850236439  1.0000
  N   N1        1.0  0.5460734337720865  0.8055577286558916  0.9459059710604694  1.0000
  N   N2        1.0  0.9539116337124582  0.6944339301093337  0.44589670897412503  1.0000
  N   N3        1.0  0.4539123552363122  0.19446437049573012  0.054093091364890704  1.0000
  N   N4        1.0  0.0460887613494236  0.30555064345503524  0.5540967355306563  1.0000
  N   N5        1.0  0.16507531846544768  0.22429787221872033  0.8475725175871887  1.0000
  N   N6        1.0  0.3349257892069204  0.2756977870705769  0.3475734189176336  1.0000
  N   N7        1.0  0.8349256470406559  0.7756980040196879  0.15243376774546394  1.0000
  N   N8        1.0  0.6650786200365459  0.724301539187671  0.6524264460057836  1.0000
  O   O1        1.0  0.20662276142306976  0.9878009979708936  0.9303724982894153  1.0000
  O   O2        1.0  0.2933792922262057  0.5121950951605571  0.4303697218082406  1.0000
  O   O3        1.0  0.793357967384253  0.012220274294513398  0.0696361947545157  1.0000
  O   O4        1.0  0.7066395162676287  0.48778671284940617  0.5696365634823551  1.0000
  O   O5        1.0  0.11895665408592039  0.8489462890226281  0.048644194102323006  1.0000
  O   O6        1.0  0.38103783297998467  0.6510472821166857  0.5486432945635118  1.0000
  O   O7        1.0  0.8810324257875025  0.15105664644548264  0.9513436325826705  1.0000
  O   O8        1.0  0.6189746296050841  0.34894588718607633  0.45134693972909196  1.0000
  O   O9        1.0  0.38370474922232495  0.3461241242375904  0.5760645118941456  1.0000
  O   O10       1.0  0.1162967238091355  0.15387266945161573  0.07606177222243822  1.0000
  O   O11       1.0  0.6163388516668035  0.6538653017997262  0.4239417733684335  1.0000
  O   O12       1.0  0.8836575961589119  0.8461436079092342  0.9239405004468041  1.0000
  O   O13       1.0  0.4679985423748575  0.49308795730031113  0.6872331146575521  1.0000
  O   O14       1.0  0.032000378670034  0.006908234759180201  0.1872327020447955  1.0000
  O   O15       1.0  0.5320013151657221  0.5069070585368749  0.3127828012878169  1.0000
  O   O16       1.0  0.9680011573016856  0.9930989441415223  0.8127759909526804  1.0000
  O   O17       1.0  0.49639779974847886  0.7369309118969344  0.0350659544023131  1.0000
  O   O18       1.0  0.003590963526896524  0.7630565890059063  0.5350559853449967  1.0000
  O   O19       1.0  0.503597869832376  0.2630911034761638  0.9649411335184157  1.0000
  O   O20       1.0  0.9964099400430654  0.23692450101818713  0.4649390642571376  1.0000
  O   O21       1.0  0.1908836398554001  0.33072878324865235  0.903539295500835  1.0000
  O   O22       1.0  0.30912663931119505  0.1692634431461428  0.40353521925184316  1.0000
  O   O23       1.0  0.8091179540555304  0.6692644782348866  0.09646377962395293  1.0000
  O   O24       1.0  0.6908801346893512  0.8307315140135291  0.5964574227041555  1.0000
