data_image0
_chemical_formula_structural       Zn4H36C32N12O20
_chemical_formula_sum              "Zn4 H36 C32 N12 O20"
_cell_length_a       7.174866761
_cell_length_b       8.79825734
_cell_length_c       16.234
_cell_angle_alpha    90.0
_cell_angle_beta     90.0
_cell_angle_gamma    90.0

_space_group_name_H-M_alt    "P 1"
_space_group_IT_number       1

loop_
  _space_group_symop_operation_xyz
  'x, y, z'

loop_
  _atom_site_type_symbol
  _atom_site_label
  _atom_site_symmetry_multiplicity
  _atom_site_fract_x
  _atom_site_fract_y
  _atom_site_fract_z
  _atom_site_occupancy
  Zn  Zn1       1.0  0.750425085141174  0.5449908788414675  0.0406418627571767  1.0000
  Zn  Zn2       1.0  0.7495748951372079  0.45500942349112716  0.5406418627571767  1.0000
  Zn  Zn3       1.0  0.24958512257451554  0.0449770886105938  0.4593556732783028  1.0000
  Zn  Zn4       1.0  0.2504185875292251  0.9550209405445714  0.9593556732783028  1.0000
  H   H1        1.0  0.9366989275022133  0.3163342344337465  0.3959172107921631  1.0000
  H   H2        1.0  0.5633052340384808  0.6836660678988481  0.8959202907478101  1.0000
  H   H3        1.0  0.0632973426724206  0.8163355221887585  0.1040827892078369  1.0000
  H   H4        1.0  0.4367035799231046  0.1836625069664066  0.6040821732167032  1.0000
  H   H5        1.0  0.17539001655615744  0.4847937307548662  0.0695786620672649  1.0000
  H   H6        1.0  0.3246011497606388  0.515204298400299  0.5695817420229119  1.0000
  H   H7        1.0  0.8246020723561713  0.9847961550985929  0.4304194899593412  1.0000
  H   H8        1.0  0.6753965141681063  0.0152018740565723  0.9304194899593412  1.0000
  H   H9        1.0  0.21782564778696664  0.3592325022855008  0.3258198841936704  1.0000
  H   H10       1.0  0.2821738810544615  0.6407700732245232  0.8258241961315775  1.0000
  H   H11       1.0  0.7821817724205145  0.8592394729840933  0.1741751878772959  1.0000
  H   H12       1.0  0.7178196016119711  0.1407642391146524  0.6741751878772959  1.0000
  H   H13       1.0  0.36904936191887566  0.3944269718303133  0.1864734507823087  1.0000
  H   H14       1.0  0.1309473794143372  0.6055721939135736  0.6864783787113495  1.0000
  H   H15       1.0  0.6309455145016614  0.894432805940184  0.3135210052975239  1.0000
  H   H16       1.0  0.8690502845144079  0.1055663598037029  0.8135216212886505  1.0000
  H   H17       1.0  0.7083072298462695  0.5264508437303804  0.2173426142663573  1.0000
  H   H18       1.0  0.7916913566780008  0.47355286836836546  0.7173432302574838  1.0000
  H   H19       1.0  0.2916974028529964  0.0264518291527978  0.2826573857336427  1.0000
  H   H20       1.0  0.20830491349664015  0.9735462000023745  0.7826567697425162  1.0000
  H   H21       1.0  0.7341251308847845  0.6064575965221763  0.4043051620056701  1.0000
  H   H22       1.0  0.7658720618853889  0.3935415692217035  0.9043045460145365  1.0000
  H   H23       1.0  0.2658697455357526  0.1064597185333085  0.0956985339411105  1.0000
  H   H24       1.0  0.23412838955156445  0.8935405837992931  0.5956985339411105  1.0000
  H   H25       1.0  0.9571717815485739  0.5842156919679269  0.4319434520142877  1.0000
  H   H26       1.0  0.5428254112215996  0.4157846103646676  0.9319428360231612  1.0000
  H   H27       1.0  0.04282448862606709  0.08421781397905902  0.0680577799679654  1.0000
  H   H28       1.0  0.45717643396945806  0.9157790785873986  0.5680577799679654  1.0000
  H   H29       1.0  0.6725156244333518  0.2496721697390143  0.2955987433780933  1.0000
  H   H30       1.0  0.827487143353238  0.7503281325935873  0.7955981273869668  1.0000
  H   H31       1.0  0.3274750707248727  0.749666637961738  0.204397560675126  1.0000
  H   H32       1.0  0.17252585187065955  0.2503348009595712  0.704397560675126  1.0000
  H   H33       1.0  0.5647059569138688  0.4220779020769143  0.3224159172107903  1.0000
  H   H34       1.0  0.9352954171186167  0.5779201270782579  0.8224183811753107  1.0000
  H   H35       1.0  0.4352917070148762  0.9220791898319264  0.1775883947271168  1.0000
  H   H36       1.0  0.0647147905970726  0.0779211125006682  0.6775877787359832  1.0000
  C   C1        1.0  0.8501858227050647  0.4015408805944318  0.3643901687815685  1.0000
  C   C2        1.0  0.6498127638192129  0.5984605583268845  0.8643901687815685  1.0000
  C   C3        1.0  0.14981184122368055  0.9015421683494438  0.1356092152272979  1.0000
  C   C4        1.0  0.3501904751259559  0.0984569973944431  0.6356092152272979  1.0000
  C   C5        1.0  0.9500343667775579  0.440454268413113  0.2840267340150291  1.0000
  C   C6        1.0  0.5499642197467125  0.559548307096911  0.7840267340150291  1.0000
  C   C7        1.0  0.049968872167603685  0.9404544195794103  0.2159738819760975  1.0000
  C   C8        1.0  0.4500348379361369  0.0595447461644696  0.7159732659849709  1.0000
  C   C9        1.0  0.11647742429763497  0.4741348017901927  0.1312566219046474  1.0000
  C   C10       1.0  0.38351931703557796  0.5258655005424089  0.6312597018602943  1.0000
  C   C11       1.0  0.8835174521229019  0.9741406359000636  0.3687427621042261  1.0000
  C   C12       1.0  0.6164797406472715  0.0258573932551087  0.8687421461130995  1.0000
  C   C13       1.0  0.13889874658259058  0.4048244853906482  0.2740267340150311  1.0000
  C   C14       1.0  0.3610979947506222  0.5951780901193758  0.774029813970678  1.0000
  C   C15       1.0  0.861101704854363  0.9048269097343749  0.2259708020204485  1.0000
  C   C16       1.0  0.6388996691781229  0.09517225600950503  0.7259708020204485  1.0000
  C   C17       1.0  0.22352749582996975  0.4236384383819356  0.1973413822840939  1.0000
  C   C18       1.0  0.2764706392573544  0.5763607273619513  0.6973432302574878  1.0000
  C   C19       1.0  0.776465986836463  0.9236454090805211  0.3026567697425122  1.0000
  C   C20       1.0  0.7235325996878146  0.0763548932520735  0.8026567697425122  1.0000
  C   C21       1.0  0.8551155309739682  0.4953981034612482  0.214903905383764  1.0000
  C   C22       1.0  0.644883055550302  0.5046067452262122  0.7149057533571508  1.0000
  C   C23       1.0  0.14488492046298515  0.9953993912162602  0.2850942466428492  1.0000
  C   C24       1.0  0.35511600213254707  0.0045997745276196  0.7850936306517156  1.0000
  C   C25       1.0  0.6590770473542449  0.33321371343294  0.3454287298262884  1.0000
  C   C26       1.0  0.840924326678241  0.6667865888996616  0.8454287298262884  1.0000
  C   C27       1.0  0.3409234040827087  0.833215001187952  0.154570654182578  1.0000
  C   C28       1.0  0.15907891226692775  0.16678643773336432  0.654570654182578  1.0000
  C   C29       1.0  0.5549538594421293  0.2558881734186684  0.4151749414808421  1.0000
  C   C30       1.0  0.945061452131405  0.7441246313897878  0.9151620056671206  1.0000
  C   C31       1.0  0.44503962322430357  0.7559008270608275  0.0848232105457711  1.0000
  C   C32       1.0  0.05495014933838859  0.24410515821534057  0.5848293704570651  1.0000
  N   N1        1.0  0.9347211904274102  0.5095270377713206  0.1399457927805869  1.0000
  N   N2        1.0  0.5652787898509641  0.49047326456127394  0.6399464087717135  1.0000
  N   N3        1.0  0.0652792610095432  0.0095291597824527  0.3600517432548997  1.0000
  N   N4        1.0  0.43472166158598907  0.9904711425501418  0.8600523592460263  1.0000
  N   N5        1.0  0.6708584508026689  0.2144856563152118  0.0789965504496735  1.0000
  N   N6        1.0  0.8291457107380252  0.7855123728399604  0.5789971664408  1.0000
  N   N7        1.0  0.3291308506014515  0.7144835343040796  0.4210065295059735  1.0000
  N   N8        1.0  0.17086449697765715  0.2855133582623779  0.9210065295059735  1.0000
  N   N9        1.0  0.8312990608300409  0.5290627245963222  0.424300850067759  1.0000
  N   N10       1.0  0.6686995256942294  0.47093644114755767  0.9243014660588855  1.0000
  N   N11       1.0  0.1686972093445931  0.029065983196169  0.0756997659233676  1.0000
  N   N12       1.0  0.3313037132509321  0.9709320459590032  0.575699149932241  1.0000
  O   O1        1.0  0.8243902217322299  0.2116305454643594  0.0403923863496374  1.0000
  O   O2        1.0  0.6756125460543599  0.7883743032230939  0.5403917703585037  1.0000
  O   O3        1.0  0.17559629216367506  0.7116329698080861  0.4596094616237494  1.0000
  O   O4        1.0  0.32440044916953775  0.2883673325245084  0.9596113095971435  1.0000
  O   O5        1.0  0.5947288140867568  0.3431929623463361  0.09478994702476483  1.0000
  O   O6        1.0  0.9052655911752083  0.6568039302201214  0.5947893310336312  1.0000
  O   O7        1.0  0.4052660623337799  0.8431874305690601  0.4052131329308892  1.0000
  O   O8        1.0  0.09473486026174527  0.1568117351748199  0.9052131329308892  1.0000
  O   O9        1.0  0.4271828456327781  0.1658066982614557  0.3904724651965026  1.0000
  O   O10       1.0  0.07281528945454598  0.8341924674824313  0.8904724651965026  1.0000
  O   O11       1.0  0.5728245745747031  0.6658068494277529  0.1095256868301107  1.0000
  O   O12       1.0  0.927179586965991  0.3341889065499899  0.609525070838977  1.0000
  O   O13       1.0  0.5908388463800802  0.27965765320522007  0.4905574719724015  1.0000
  O   O14       1.0  0.9091611338983012  0.7203392393612376  0.9905605519280555  1.0000
  O   O15       1.0  0.4091518487781442  0.7796657604925201  0.009443144018725  1.0000
  O   O16       1.0  0.0908434988009645  0.22032885889650805  0.5094412960453383  1.0000
  O   O17       1.0  0.5912054037096581  0.0943505023689184  0.1015442897622307  1.0000
  O   O18       1.0  0.9088029390933554  0.9056441170201097  0.6015449057533573  1.0000
  O   O19       1.0  0.4087825039403512  0.5943472437690716  0.3984587901934233  1.0000
  O   O20       1.0  0.0912114498846535  0.4056507853861007  0.8984600221756835  1.0000
