data_image0
_chemical_formula_structural       Zn4H16C36N8O16
_chemical_formula_sum              "Zn4 H16 C36 N8 O16"
_cell_length_a       6.224740607788486
_cell_length_b       8.441640612115357
_cell_length_c       17.90733551243669
_cell_angle_alpha    89.99949216946489
_cell_angle_beta     95.03417374496921
_cell_angle_gamma    90.00036646438109

_space_group_name_H-M_alt    "P 1"
_space_group_IT_number       1

loop_
  _space_group_symop_operation_xyz
  'x, y, z'

loop_
  _atom_site_type_symbol
  _atom_site_label
  _atom_site_symmetry_multiplicity
  _atom_site_fract_x
  _atom_site_fract_y
  _atom_site_fract_z
  _atom_site_occupancy
  Zn  Zn1       1.0  0.1725926459968576  0.9768005030920504  0.8112745406225699  1.0000
  Zn  Zn2       1.0  0.3274069384605268  0.4768008789320177  0.6887234267380791  1.0000
  Zn  Zn3       1.0  0.82739376378953  0.0231982776669994  0.1887269883769918  1.0000
  Zn  Zn4       1.0  0.6726069870522622  0.5231979019150615  0.3112756903429101  1.0000
  H   H1        1.0  0.4176935075848931  0.25172137558374175  0.2129885542631769  1.0000
  H   H2        1.0  0.0823193912982418  0.7517186605006501  0.2870107111019422  1.0000
  H   H3        1.0  0.5823025274096948  0.7482774051792089  0.7870149785345006  1.0000
  H   H4        1.0  0.9176962142205692  0.24827656655939728  0.7129862294655067  1.0000
  H   H5        1.0  0.20857487158304622  0.3938202626770177  0.9416866512224543  1.0000
  H   H6        1.0  0.29142732159352386  0.8938252270828639  0.5583111941909493  1.0000
  H   H7        1.0  0.7914162750253908  0.6061879948909307  0.058318390144428585  1.0000
  H   H8        1.0  0.7085850586921507  0.10617473838598808  0.44168563632045726  1.0000
  H   H9        1.0  0.8650075565665671  0.05864220627891108  0.011133625369097889  1.0000
  H   H10       1.0  0.634990306997423  0.558650144752228  0.48886657253948573  1.0000
  H   H11       1.0  0.13497408273243383  0.9413553898875973  0.9888655070187937  1.0000
  H   H12       1.0  0.3650236353774189  0.4413521899117114  0.5111319866485502  1.0000
  H   H13       1.0  0.2037494773549611  0.38568752965869624  0.1074674491980616  1.0000
  H   H14       1.0  0.296258010468172  0.8856885752486646  0.39253051203443323  1.0000
  H   H15       1.0  0.7962449113486798  0.6143195433173145  0.8925371443319037  1.0000
  H   H16       1.0  0.7037559824340673  0.11430902101578509  0.6074663735049909  1.0000
  C   C1        1.0  0.4524203539098224  0.24096817484448246  0.15466108905072665  1.0000
  C   C2        1.0  0.0475892544852883  0.740964193671374  0.3453375506168613  1.0000
  C   C3        1.0  0.5475724726865607  0.7590317905210283  0.8453417758119173  1.0000
  C   C4        1.0  0.9524263341805079  0.2590298487795123  0.6546599478388869  1.0000
  C   C5        1.0  0.5964258454253012  0.18526231557843428  0.05085803485539488  1.0000
  C   C6        1.0  0.9035778393600394  0.6852675396824708  0.449141272948104  1.0000
  C   C7        1.0  0.40355569279177667  0.8147376497639413  0.9491444448436753  1.0000
  C   C8        1.0  0.0964393451054804  0.314732425785678  0.5508568384053446  1.0000
  C   C9        1.0  0.41366132377608966  0.2814080688761678  0.0313516954156867  1.0000
  C   C10       1.0  0.08633895127734798  0.7814126045706472  0.468645339497236  1.0000
  C   C11       1.0  0.5863266312464573  0.7185918964688085  0.9686521201487963  1.0000
  C   C12       1.0  0.9136718500751685  0.2185861763016632  0.5313503202211862  1.0000
  C   C13       1.0  0.35081820130318414  0.32153118982677853  0.957005194173739  1.0000
  C   C14       1.0  0.14918826110915254  0.8215357688049421  0.5429936581084432  1.0000
  C   C15       1.0  0.6491729958416882  0.6784746985493868  0.042998173539878295  1.0000
  C   C16       1.0  0.8508241023370641  0.17846656586630869  0.4570037302842848  1.0000
  C   C17       1.0  0.6625945117792539  0.1701683232892535  0.9214101331496564  1.0000
  C   C18       1.0  0.8374085389183817  0.6701707536931277  0.578589315139908  1.0000
  C   C19       1.0  0.33738870646193664  0.8298328266815032  0.07859017002656539  1.0000
  C   C20       1.0  0.16260375711125613  0.3298256579376328  0.4214103048083331  1.0000
  C   C21       1.0  0.7231647982485682  0.13067899321085716  0.9960042061965808  1.0000
  C   C22       1.0  0.776837984732616  0.6306849140656394  0.5039942814066762  1.0000
  C   C23       1.0  0.2768249041694588  0.8693162337644721  0.003995201312804398  1.0000
  C   C24       1.0  0.22317436185154793  0.3693138667887439  0.49600366487899805  1.0000
  C   C25       1.0  0.47585746748793406  0.2631938191796337  0.9020558636738799  1.0000
  C   C26       1.0  0.024148566470579204  0.7631967674939802  0.5979426598428219  1.0000
  C   C27       1.0  0.5241272623059885  0.7368120691780078  0.0979478418322373  1.0000
  C   C28       1.0  0.975868618013031  0.2368079363895887  0.4020554515013259  1.0000
  C   C29       1.0  0.7989932364900482  0.11728850243024169  0.8608583289920728  1.0000
  C   C30       1.0  0.7010077810977221  0.6172915116955408  0.6391418298419751  1.0000
  C   C31       1.0  0.20097874391732518  0.8827126475333029  0.1391399153626622  1.0000
  C   C32       1.0  0.2990173653958692  0.3827060845495892  0.3608599039487999  1.0000
  C   C33       1.0  0.39875356374414384  0.2934408903146846  0.8211561410130059  1.0000
  C   C34       1.0  0.10125268422284961  0.7934379383297383  0.6788428216072973  1.0000
  C   C35       1.0  0.601237633423338  0.7065709210807469  0.17884722668897973  1.0000
  C   C36       1.0  0.8987564371236445  0.2065643963295969  0.3211550146246651  1.0000
  N   N1        1.0  0.6145121311684605  0.16190834581100688  0.1284204884445117  1.0000
  N   N2        1.0  0.8854962132037014  0.6619066564903164  0.3715790761642879  1.0000
  N   N3        1.0  0.3854791164902451  0.8380892503541019  0.8715812056274713  1.0000
  N   N4        1.0  0.11451937546661375  0.3380885705644231  0.6284184222891297  1.0000
  N   N5        1.0  0.32902028854952897  0.31350407494035437  0.09856891115938277  1.0000
  N   N6        1.0  0.17098987354605552  0.8135067275345164  0.4014294436138357  1.0000
  N   N7        1.0  0.6709725212073961  0.6864982596275554  0.9014345115845827  1.0000
  N   N8        1.0  0.8290257151378242  0.18649205333178281  0.5985680548326044  1.0000
  O   O1        1.0  0.7612993181971391  0.17215868839811316  0.7963051714581936  1.0000
  O   O2        1.0  0.7387005561326702  0.6721594729327477  0.7036930431988606  1.0000
  O   O3        1.0  0.23867108325448064  0.8278353539496165  0.20369190211518878  1.0000
  O   O4        1.0  0.26132464087927326  0.3278310157051791  0.29630701694795647  1.0000
  O   O5        1.0  0.9519330889957514  0.017302182901474297  0.8814033008395654  1.0000
  O   O6        1.0  0.5480656033076342  0.5173060393026675  0.6185955220031188  1.0000
  O   O7        1.0  0.0480469713791436  0.9826965978761916  0.1185946607506949  1.0000
  O   O8        1.0  0.45195312637144264  0.4826891877321486  0.38140487592689  1.0000
  O   O9        1.0  0.4286961646195593  0.4310661172227127  0.7947414406449693  1.0000
  O   O10       1.0  0.07130464967337959  0.9310672628367342  0.705257877129128  1.0000
  O   O11       1.0  0.5712982914509225  0.5689338481514098  0.20526092135506957  1.0000
  O   O12       1.0  0.9286850190612268  0.0689315179395322  0.29474264614522366  1.0000
  O   O13       1.0  0.2901063697511574  0.18754568844535408  0.784287876126953  1.0000
  O   O14       1.0  0.20989102364296738  0.6875472940209448  0.715710669380023  1.0000
  O   O15       1.0  0.7098719432192125  0.8124554614942596  0.2157144935230519  1.0000
  O   O16       1.0  0.7901262113861236  0.3124574098785401  0.28428576830620494  1.0000
