data_image0
_chemical_formula_structural       CdH30C18S2N4O6
_chemical_formula_sum              "Cd1 H30 C18 S2 N4 O6"
_cell_length_a       8.348094203993266
_cell_length_b       8.489895593413953
_cell_length_c       8.50491124500604
_cell_angle_alpha    88.84096019371123
_cell_angle_beta     66.87129782078453
_cell_angle_gamma    91.1072763129538

_space_group_name_H-M_alt    "P 1"
_space_group_IT_number       1

loop_
  _space_group_symop_operation_xyz
  'x, y, z'

loop_
  _atom_site_type_symbol
  _atom_site_label
  _atom_site_symmetry_multiplicity
  _atom_site_fract_x
  _atom_site_fract_y
  _atom_site_fract_z
  _atom_site_occupancy
  Cd  Cd1       1.0  0.49999848543695447  2.475676055012172e-07  0.5000007348136251  1.0000
  H   H1        1.0  0.1715369318943516  0.8383687758738033  0.6251387932646892  1.0000
  H   H2        1.0  0.8284582398619734  0.16162857593657518  0.37486570777567607  1.0000
  H   H3        1.0  0.44621084765606167  0.08991724251995947  0.8461150330640379  1.0000
  H   H4        1.0  0.5537843691562259  0.9100824420103562  0.15388702786023603  1.0000
  H   H5        1.0  0.7253723581631135  0.2502087564612978  0.856178977124479  1.0000
  H   H6        1.0  0.27463985430225074  0.7497947076485472  0.14381531068428904  1.0000
  H   H7        1.0  0.6337204602002375  0.5305569790584456  0.9032846606517565  1.0000
  H   H8        1.0  0.36628911240606504  0.469444088795882  0.0967107071008044  1.0000
  H   H9        1.0  0.9732699824361434  0.17980851901409517  0.5971327416426316  1.0000
  H   H10       1.0  0.0267357204935124  0.820193619896841  0.40285936579343223  1.0000
  H   H11       1.0  0.20455720773395572  0.56967627036623  0.7204894790729099  1.0000
  H   H12       1.0  0.7954379696824389  0.43032228393546745  0.2795173348352262  1.0000
  H   H13       1.0  0.4317241212176341  0.6190665631644379  0.6497384716784395  1.0000
  H   H14       1.0  0.5682723536003067  0.3809320229050428  0.35026902231584234  1.0000
  H   H15       1.0  0.3307593913466249  0.613113670143143  0.5000188970926516  1.0000
  H   H16       1.0  0.6692383526848075  0.38688257884284366  0.49998818417806506  1.0000
  H   H17       1.0  0.32982096534702526  0.8076045666068905  0.8753547767095994  1.0000
  H   H18       1.0  0.6701742627479702  0.19239630837095933  0.12464841944050421  1.0000
  H   H19       1.0  0.10348987974840901  0.7851949949041311  0.9173482803707884  1.0000
  H   H20       1.0  0.896506611937447  0.21480355503400259  0.08265568069768373  1.0000
  H   H21       1.0  0.1142277109787031  0.06774924682004979  0.8077220974873711  1.0000
  H   H22       1.0  0.8857674945508834  0.9322492472627244  0.192278828211073  1.0000
  H   H23       1.0  0.15011095965108723  0.04795115437311639  0.0007709904802339777  1.0000
  H   H24       1.0  0.8498855432800455  0.952047371477448  0.9992306153043629  1.0000
  H   H25       1.0  0.25935788824931894  0.31995451051791685  0.9081905106585637  1.0000
  H   H26       1.0  0.7406373285629755  0.6800451740123987  0.09181155026571028  1.0000
  H   H27       1.0  0.2772648093456312  0.30859126742497256  0.6916513711362666  1.0000
  H   H28       1.0  0.722731710490848  0.6914084368293485  0.30835019223221855  1.0000
  H   H29       1.0  0.46613251273387857  0.34795298076905096  0.7358593443149315  1.0000
  H   H30       1.0  0.5338639789519775  0.6520455691690756  0.26414461675354056  1.0000
  C   C1        1.0  0.7959516963547416  0.34149908942133317  0.7608554538151893  1.0000
  C   C2        1.0  0.20405524201514416  0.658499570133699  0.23913981623923056  1.0000
  C   C3        1.0  0.7430292136271249  0.49910675716427744  0.7877367899363888  1.0000
  C   C4        1.0  0.25697910663360096  0.5008966116421972  0.2122554576139279  1.0000
  C   C5        1.0  0.8294180539773708  0.6159872621213224  0.667162749532423  1.0000
  C   C6        1.0  0.17058503162120792  0.38401364689406137  0.3328292177893886  1.0000
  C   C7        1.0  0.9733013266208063  0.5806733990808509  0.5125458795077692  1.0000
  C   C8        1.0  0.026696558163735108  0.41932862148605915  0.4874492132630195  1.0000
  C   C9        1.0  0.9349305078116359  0.3021433990972681  0.6148972445205699  1.0000
  C   C10       1.0  0.0650752345513439  0.6978610845773828  0.38509360044134405  1.0000
  C   C11       1.0  0.3124031221530502  0.6441254706605971  0.6300398820330314  1.0000
  C   C12       1.0  0.6875933188542049  0.35587075860138373  0.3699676967934735  1.0000
  C   C13       1.0  0.22598450507037884  0.8488425103368866  0.8371100945256129  1.0000
  C   C14       1.0  0.7740120148035247  0.15115840845253808  0.1628949593525773  1.0000
  C   C15       1.0  0.20456921252502272  0.02436270569785389  0.8631353322270953  1.0000
  C   C16       1.0  0.7954260211926112  0.9756381572362115  0.13686668628106702  1.0000
  C   C17       1.0  0.341696892057243  0.28204326567470867  0.7788499700449094  1.0000
  C   C18       1.0  0.6582983191324134  0.7179564308993845  0.22115326852130573  1.0000
  S   S1        1.0  0.758695133249013  0.8148046581365872  0.7095240458590838  1.0000
  S   S2        1.0  0.2413013809273963  0.18519384362640778  0.2904752046416377  1.0000
  N   N1        1.0  0.2757995394831455  0.8119546228620961  0.6556650781615828  1.0000
  N   N2        1.0  0.7241969522027107  0.1880439270760377  0.3443388829068893  1.0000
  N   N3        1.0  0.3720714760140852  0.11222586941351406  0.7769548498091793  1.0000
  N   N4        1.0  0.6279237351755639  0.8877738271605863  0.22304838875702873  1.0000
  O   O1        1.0  0.9090813537814456  0.9054628619255567  0.7120589839555292  1.0000
  O   O2        1.0  0.09091777772604098  0.09453686973298399  0.2879404066594446  1.0000
  O   O3        1.0  0.7150274542668029  0.8610496416561089  0.5624996529721287  1.0000
  O   O4        1.0  0.28497171671143917  0.13895364930125703  0.4375019656784005  1.0000
  O   O5        1.0  0.6072122623431255  0.8102850650376678  0.8729844625528853  1.0000
  O   O6        1.0  0.39278936249795754  0.18970644519882277  0.12701305222132922  1.0000
