data_image0
_chemical_formula_structural       Ca4H48C24O24
_chemical_formula_sum              "Ca4 H48 C24 O24"
_cell_length_a       7.633211558006942
_cell_length_b       14.562254186436157
_cell_length_c       15.354244936015437
_cell_angle_alpha    89.9999717156046
_cell_angle_beta     89.99983611531106
_cell_angle_gamma    95.87651727696371

_space_group_name_H-M_alt    "P 1"
_space_group_IT_number       1

loop_
  _space_group_symop_operation_xyz
  'x, y, z'

loop_
  _atom_site_type_symbol
  _atom_site_label
  _atom_site_symmetry_multiplicity
  _atom_site_fract_x
  _atom_site_fract_y
  _atom_site_fract_z
  _atom_site_occupancy
  Ca  Ca1       1.0  0.5510435586307025  0.220610831621606  0.7166293810154939  1.0000
  Ca  Ca2       1.0  0.9489509940666988  0.7793877162687153  0.21663110087700937  1.0000
  Ca  Ca3       1.0  0.4489505686456353  0.7793904835463438  0.2833713277829303  1.0000
  Ca  Ca4       1.0  0.051051945748035586  0.22061210247392177  0.7833676540579546  1.0000
  H   H1        1.0  0.7926650555706656  0.0367599992535688  0.9525372810435471  1.0000
  H   H2        1.0  0.7669150406418124  0.1481539731530432  0.9900383116135174  1.0000
  H   H3        1.0  0.562030316721163  0.9043886711149938  0.9843969015122624  1.0000
  H   H4        1.0  0.41478306446347085  0.9577649245551072  0.9169185958302962  1.0000
  H   H5        1.0  0.28440862973812386  0.377351588999062  0.9616432320044124  1.0000
  H   H6        1.0  0.47854422822543086  0.33556179592907404  0.0017717305858439998  1.0000
  H   H7        1.0  0.47448010221806664  0.5187899020332482  0.9026580736471672  1.0000
  H   H8        1.0  0.6611034968849195  0.4752134756480119  0.9481059582348905  1.0000
  H   H9        1.0  0.4917343430138884  0.603635066897091  0.3756305021787583  1.0000
  H   H10       1.0  0.6817636046132804  0.658099240820306  0.3697368654126051  1.0000
  H   H11       1.0  0.2182719339069834  0.8927421357606137  0.3776281527294785  1.0000
  H   H12       1.0  0.40398121883087856  0.9513475086564681  0.38496668987470156  1.0000
  H   H13       1.0  0.7073293421206656  0.9632431519994216  0.4525353954691268  1.0000
  H   H14       1.0  0.7330807864022971  0.8518505056001828  0.490033168473019  1.0000
  H   H15       1.0  0.9379673232847094  0.09561232921407027  0.4843982181453724  1.0000
  H   H16       1.0  0.08521150581783839  0.0422348550547227  0.4169191601407149  1.0000
  H   H17       1.0  0.21558863596477099  0.6226494945509202  0.4616355877043148  1.0000
  H   H18       1.0  0.02145739021579367  0.6644362474031595  0.5017692538268008  1.0000
  H   H19       1.0  0.02552058115555411  0.48120773796058824  0.402657276833331  1.0000
  H   H20       1.0  0.8388980752029623  0.5247812821003563  0.44810662775374505  1.0000
  H   H21       1.0  0.008274377929964816  0.39637357496273756  0.8756229257792254  1.0000
  H   H22       1.0  0.8182389523027138  0.34190873828961094  0.8697360039649453  1.0000
  H   H23       1.0  0.28172235721017097  0.10725561135138414  0.8776215642320507  1.0000
  H   H24       1.0  0.09600863692109837  0.04865374842562182  0.8849623552453706  1.0000
  H   H25       1.0  0.20733232587958375  0.963238505592777  0.04746277646720639  1.0000
  H   H26       1.0  0.23308022679240986  0.8518466352866342  0.0099610946127839  1.0000
  H   H27       1.0  0.4379592260797833  0.09560993329695583  0.015595991861807997  1.0000
  H   H28       1.0  0.5852077847750863  0.042233663261889404  0.0830769026855478  1.0000
  H   H29       1.0  0.7155998206532458  0.6226384682843715  0.03836398964200068  1.0000
  H   H30       1.0  0.5214696381236904  0.6644344227914516  0.9982328859126923  1.0000
  H   H31       1.0  0.5255148087363962  0.48120378845747785  0.0973478454374757  1.0000
  H   H32       1.0  0.3388937182655809  0.5247843390615472  0.0518973557045541  1.0000
  H   H33       1.0  0.5082722074290302  0.39636885946849526  0.6243702066098534  1.0000
  H   H34       1.0  0.31823674617920256  0.34190614878289693  0.6302664485231944  1.0000
  H   H35       1.0  0.7817243073835557  0.1072570758136919  0.6223738586390866  1.0000
  H   H36       1.0  0.5960120769758531  0.04865035583259921  0.6150398804961341  1.0000
  H   H37       1.0  0.29266511775335147  0.0367595434417822  0.5474594517576035  1.0000
  H   H38       1.0  0.26691628636331893  0.14815215665395703  0.509961027466062  1.0000
  H   H39       1.0  0.062025663846498  0.9043896926843616  0.5155992342253413  1.0000
  H   H40       1.0  0.9147780608560934  0.9577692870313611  0.5830763383751502  1.0000
  H   H41       1.0  0.7844158004675846  0.3773565354089357  0.5383625159427722  1.0000
  H   H42       1.0  0.9785525806843934  0.33556555877477473  0.4982334088166524  1.0000
  H   H43       1.0  0.9744885821680355  0.5187961552160445  0.5973466883817622  1.0000
  H   H44       1.0  0.16111450858517878  0.4752204908898747  0.5518966861734355  1.0000
  H   H45       1.0  0.9917313410651899  0.6036269007277254  0.12437582915352148  1.0000
  H   H46       1.0  0.181767906830295  0.6580910306691267  0.1302686125382735  1.0000
  H   H47       1.0  0.7182779697275308  0.8927442405808252  0.1223726317050478  1.0000
  H   H48       1.0  0.9039933290245725  0.9513474671801846  0.1150383535471562  1.0000
  C   C1        1.0  0.6487868014689795  0.11750231151011555  0.868159407116728  1.0000
  C   C2        1.0  0.6949859600180942  0.08709414686170903  0.959259265806132  1.0000
  C   C3        1.0  0.5404185670031153  0.047520942388189304  0.015305449297230196  1.0000
  C   C4        1.0  0.4571644232120348  0.3331732888443213  0.8638838246030859  1.0000
  C   C5        1.0  0.4268286836323085  0.3786612336069126  0.9506122986293873  1.0000
  C   C6        1.0  0.5182831287129801  0.47692503843746453  0.9568358990594561  1.0000
  C   C7        1.0  0.8512064289690568  0.8824995574645983  0.3681631933887458  1.0000
  C   C8        1.0  0.8050035068792384  0.9129104445498017  0.45926115762695463  1.0000
  C   C9        1.0  0.9595687977184252  0.9524813665568033  0.5153048192050207  1.0000
  C   C10       1.0  0.04282552652141186  0.666822450897932  0.3638868465503791  1.0000
  C   C11       1.0  0.07316061489149217  0.6213337323334688  0.4506107312112347  1.0000
  C   C12       1.0  0.9817221714964787  0.5230745086497208  0.4568330972614092  1.0000
  C   C13       1.0  0.3512143330489579  0.8824954534240277  0.1318321836773606  1.0000
  C   C14       1.0  0.3050076683990567  0.9129050979028008  0.04073688399319049  1.0000
  C   C15       1.0  0.45956736515872615  0.9524735543989209  0.9846893979373234  1.0000
  C   C16       1.0  0.5428417707492912  0.6668237195719937  0.13612404832954886  1.0000
  C   C17       1.0  0.5731740659932995  0.6213323573219753  0.0493929691636623  1.0000
  C   C18       1.0  0.4817181481825584  0.5230678789508474  0.043167414877757396  1.0000
  C   C19       1.0  0.14879097637784608  0.11750448505996053  0.6318310025498448  1.0000
  C   C20       1.0  0.19499192686019734  0.08709085402760051  0.5407330383135898  1.0000
  C   C21       1.0  0.040426327314527596  0.0475240894246198  0.4846913305921205  1.0000
  C   C22       1.0  0.9571767480997904  0.33317460729850973  0.6361229802422697  1.0000
  C   C23       1.0  0.9268375980065214  0.37866822318799354  0.5493912801553763  1.0000
  C   C24       1.0  0.01828684942947939  0.47693423206929003  0.5431663089531469  1.0000
  O   O1        1.0  0.773983584960895  0.1461398347322813  0.8169239652088294  1.0000
  O   O2        1.0  0.4891115192633038  0.1167226699407422  0.8439095563317094  1.0000
  O   O3        1.0  0.6141351545973207  0.33386616636865796  0.8347751434729673  1.0000
  O   O4        1.0  0.3271550476854158  0.2949601657881117  0.8211693571936394  1.0000
  O   O5        1.0  0.5542631666191014  0.6647090806393834  0.3822012659955617  1.0000
  O   O6        1.0  0.3471296447647204  0.8886763601027355  0.3877763898317568  1.0000
  O   O7        1.0  0.7260225214288311  0.8538653850062872  0.3169214371852219  1.0000
  O   O8        1.0  0.01088018118739606  0.8832744527491345  0.3439099480544741  1.0000
  O   O9        1.0  0.8858593788060459  0.6661294904130133  0.3347691814303672  1.0000
  O   O10       1.0  0.17283516478172342  0.7050411528406786  0.32116500592348973  1.0000
  O   O11       1.0  0.9457430736537092  0.33529814653060447  0.882198260573837  1.0000
  O   O12       1.0  0.15286589605778286  0.1113213606258796  0.887768691785247  1.0000
  O   O13       1.0  0.2260283336810573  0.8538591777199331  0.18307348714811408  1.0000
  O   O14       1.0  0.5108822515660448  0.8832717272839119  0.1560859421826351  1.0000
  O   O15       1.0  0.38586400828037876  0.6661288546126729  0.1652281704654825  1.0000
  O   O16       1.0  0.6728612652646575  0.7050353296101335  0.1788346080174819  1.0000
  O   O17       1.0  0.44573685159572557  0.33529492869402594  0.6178007453693438  1.0000
  O   O18       1.0  0.6528626771893398  0.11132290125232912  0.6122262728254453  1.0000
  O   O19       1.0  0.2739776630984991  0.14613931446610456  0.6830727587511658  1.0000
  O   O20       1.0  0.9891154188390415  0.11672753596285192  0.656085550457206  1.0000
  O   O21       1.0  0.11414847808540429  0.3338744193595106  0.6652302247858799  1.0000
  O   O22       1.0  0.8271498173840397  0.2949602784837424  0.6788344003104354  1.0000
  O   O23       1.0  0.054265424516408735  0.6647029861067468  0.1178024482137801  1.0000
  O   O24       1.0  0.8471378513371874  0.8886763711186846  0.1122274580067  1.0000
