data_image0
_chemical_formula_structural       Zn4H28C12N4Cl8O8
_chemical_formula_sum              "Zn4 H28 C12 N4 Cl8 O8"
_cell_length_a       6.95227424908344
_cell_length_b       7.585499359028908
_cell_length_c       12.769160594115693
_cell_angle_alpha    90.00009809510912
_cell_angle_beta     90.00047364761666
_cell_angle_gamma    90.00030434296332

_space_group_name_H-M_alt    "P 1"
_space_group_IT_number       1

loop_
  _space_group_symop_operation_xyz
  'x, y, z'

loop_
  _atom_site_type_symbol
  _atom_site_label
  _atom_site_symmetry_multiplicity
  _atom_site_fract_x
  _atom_site_fract_y
  _atom_site_fract_z
  _atom_site_occupancy
  Zn  Zn1       1.0  0.6040647194310438  0.45732972000357125  0.2719560224378341  1.0000
  Zn  Zn2       1.0  0.3959305595552607  0.957323331305098  0.7280437344829879  1.0000
  Zn  Zn3       1.0  0.10406253147386482  0.4573284267768402  0.22804677320073102  1.0000
  Zn  Zn4       1.0  0.8959341858831067  0.9573219879258164  0.7719529837219952  1.0000
  H   H1        1.0  0.4423588565841713  0.4889862144935862  0.570142858032213  1.0000
  H   H2        1.0  0.5576437960431448  0.9889836967076563  0.4298561472452818  1.0000
  H   H3        1.0  0.9423519538583279  0.4889800631561274  0.929856734363476  1.0000
  H   H4        1.0  0.05764782198822621  0.9889793016010276  0.0701430540391854  1.0000
  H   H5        1.0  0.2977477409982044  0.6656611191443106  0.5765173568154509  1.0000
  H   H6        1.0  0.7022544937488533  0.16566052700892442  0.4234805438526267  1.0000
  H   H7        1.0  0.7977493710191299  0.6656589039613224  0.9234841149212444  1.0000
  H   H8        1.0  0.20225142536829574  0.16565878727983124  0.0765177014258285  1.0000
  H   H9        1.0  0.30183011936823334  0.5456108630841928  0.4676699008328313  1.0000
  H   H10       1.0  0.6981728645373266  0.045610571628415614  0.532328663611473  1.0000
  H   H11       1.0  0.8018272019826115  0.5456101318966804  0.03232916686948071  1.0000
  H   H12       1.0  0.19817578193335816  0.0456086662098514  0.9676717469840099  1.0000
  H   H13       1.0  0.8538500342768387  0.3813068196805603  0.6014864256158745  1.0000
  H   H14       1.0  0.1461476850369863  0.8813087789351218  0.3985140388640502  1.0000
  H   H15       1.0  0.35384326313224085  0.3813152568935935  0.898515797040865  1.0000
  H   H16       1.0  0.6461544562389748  0.8813161613816549  0.1014862337205997  1.0000
  H   H17       1.0  0.9183158082748977  0.6027096541650538  0.5887403445076131  1.0000
  H   H18       1.0  0.08169181857913801  0.10271388631161224  0.4112567104472832  1.0000
  H   H19       1.0  0.4183063554245409  0.6027141740176419  0.9112631692807867  1.0000
  H   H20       1.0  0.5816955179600641  0.10271200306134892  0.088738584483572  1.0000
  H   H21       1.0  0.17091447516286004  0.41687311488615114  0.6764718366171253  1.0000
  H   H22       1.0  0.8290892018583804  0.9168782092190427  0.3235278801033488  1.0000
  H   H23       1.0  0.6708987534636749  0.41688510647846755  0.8235288213581811  1.0000
  H   H24       1.0  0.3290977317335405  0.9168833555745483  0.1764732447652619  1.0000
  H   H25       1.0  0.19395173658275414  0.28634105736075816  0.5630093923820709  1.0000
  H   H26       1.0  0.806048314229571  0.7863397812841484  0.4369862788587895  1.0000
  H   H27       1.0  0.693943504610644  0.2863402002502725  0.9369841904595334  1.0000
  H   H28       1.0  0.3060551078653901  0.7863406383991889  0.0630169627359507  1.0000
  C   C1        1.0  0.9139085479430662  0.46372451267021136  0.4438247101316009  1.0000
  C   C2        1.0  0.08609395963387813  0.9637174132432879  0.5561734868894987  1.0000
  C   C3        1.0  0.4139109218072364  0.463726667929919  0.0561794754679781  1.0000
  C   C4        1.0  0.586087270682292  0.9637192128942192  0.9438234203664564  1.0000
  C   C5        1.0  0.9540445238385546  0.4693921751809001  0.5603500814981501  1.0000
  C   C6        1.0  0.04595370116972221  0.9693924449781552  0.4396489042890721  1.0000
  C   C7        1.0  0.4540398205611212  0.4693954603949921  0.9396518930175831  1.0000
  C   C8        1.0  0.545959842860711  0.9693931146865254  0.0603502253221464  1.0000
  C   C9        1.0  0.15736574177226714  0.41831518129895795  0.5911435670649254  1.0000
  C   C10       1.0  0.8426336283747347  0.9183179570240873  0.4088545848049137  1.0000
  C   C11       1.0  0.6573657096051237  0.4183221511441602  0.9088562487387435  1.0000
  C   C12       1.0  0.3426350989825622  0.9183202153227442  0.09114660195990612  1.0000
  N   N1        1.0  0.30943110756126674  0.5375574774283012  0.5487903596097397  1.0000
  N   N2        1.0  0.6905689533453272  0.03755690957645191  0.4512074136838253  1.0000
  N   N3        1.0  0.809428846736573  0.5375566622393964  0.9512086875102314  1.0000
  N   N4        1.0  0.19057265257065845  0.037555088165113715  0.04879300146939871  1.0000
  Cl  Cl1       1.0  0.45285638353791313  0.7138293560634497  0.3295022731800614  1.0000
  Cl  Cl2       1.0  0.5471346207286417  0.21382609294506252  0.6704972416275368  1.0000
  Cl  Cl3       1.0  0.9528627724053467  0.7138290320328058  0.1704960699239138  1.0000
  Cl  Cl4       1.0  0.04713686212907221  0.2138237803885233  0.8295042280384735  1.0000
  Cl  Cl5       1.0  0.36095251934275313  0.24732716908128802  0.3002054702476258  1.0000
  Cl  Cl6       1.0  0.6390458691207855  0.7473245284362309  0.6997925116089903  1.0000
  Cl  Cl7       1.0  0.860950726272513  0.24732693135970865  0.19979356489065483  1.0000
  Cl  Cl8       1.0  0.13904622378345272  0.7473208112364988  0.8002020675502807  1.0000
  O   O1        1.0  0.7441205942042687  0.42047310946491484  0.4145851127073286  1.0000
  O   O2        1.0  0.25588310344011234  0.9204708854696124  0.585411475041589  1.0000
  O   O3        1.0  0.24411910035594533  0.42046744104489164  0.0854182716971508  1.0000
  O   O4        1.0  0.7558817205533971  0.9204673257584023  0.9145845811354222  1.0000
  O   O5        1.0  0.052420330215348115  0.5056773569710701  0.3838721166093465  1.0000
  O   O6        1.0  0.947580986021656  0.005667991625642802  0.6161264081220068  1.0000
  O   O7        1.0  0.5524071881765382  0.505668962863311  0.11613284586712068  1.0000
  O   O8        1.0  0.4475869361257524  0.005648701322456903  0.8838703776554199  1.0000
