data_image0
_chemical_formula_structural       Zn2H24C30N4O8
_chemical_formula_sum              "Zn2 H24 C30 N4 O8"
_cell_length_a       8.492032250076724
_cell_length_b       9.21217487230956
_cell_length_c       9.70665595610096
_cell_angle_alpha    64.81274113997448
_cell_angle_beta     82.67989306122166
_cell_angle_gamma    76.09712900852314

_space_group_name_H-M_alt    "P 1"
_space_group_IT_number       1

loop_
  _space_group_symop_operation_xyz
  'x, y, z'

loop_
  _atom_site_type_symbol
  _atom_site_label
  _atom_site_symmetry_multiplicity
  _atom_site_fract_x
  _atom_site_fract_y
  _atom_site_fract_z
  _atom_site_occupancy
  Zn  Zn1       1.0  0.5380037045298067  0.07343330340606975  0.5967648850888665  1.0000
  Zn  Zn2       1.0  0.4619940931284033  0.9265715382957471  0.4032322935957067  1.0000
  H   H1        1.0  0.32284182506692355  0.5849575252290081  0.697352409875876  1.0000
  H   H2        1.0  0.6771617697659451  0.4150372470592176  0.3026634941524549  1.0000
  H   H3        1.0  0.9772664498762748  0.9803081023506128  0.6554097919475196  1.0000
  H   H4        1.0  0.0227361868681442  0.019690677097003104  0.3445871379971805  1.0000
  H   H5        1.0  0.061868370562244465  0.7804119607303265  0.7781730134272423  1.0000
  H   H6        1.0  0.9381342558520058  0.21958683807678633  0.2218228797719632  1.0000
  H   H7        1.0  0.9486769829579347  0.7377041336963758  0.02067809255940731  1.0000
  H   H8        1.0  0.05132529237594239  0.26229088056296496  0.979324475199327  1.0000
  H   H9        1.0  0.11878182224200631  0.18483579891496052  0.7618696563390444  1.0000
  H   H10       1.0  0.8812204221013714  0.8151592734228573  0.23812980118318447  1.0000
  H   H11       1.0  0.6660765170577818  0.02956603465668911  0.8947218455914269  1.0000
  H   H12       1.0  0.33392440249922106  0.9704352064801542  0.10527328942293933  1.0000
  H   H13       1.0  0.9235082548383317  0.2823999550810825  0.4512483343664613  1.0000
  H   H14       1.0  0.0764878049721389  0.7176073870289417  0.5487449758967743  1.0000
  H   H15       1.0  0.2108191767650495  0.6469423980949647  0.33902612071774024  1.0000
  H   H16       1.0  0.7891809603163294  0.35306252108989616  0.6609676648865133  1.0000
  H   H17       1.0  0.22240921821935428  0.5112641924508525  0.1708869061147311  1.0000
  H   H18       1.0  0.7775933978647274  0.4887346257157505  0.8291079503389727  1.0000
  H   H19       1.0  0.08499831219774731  0.3851542963224118  0.19430091700723304  1.0000
  H   H20       1.0  0.9149965417455661  0.6148530748043087  0.8056904611869058  1.0000
  H   H21       1.0  0.6256783303704551  0.19175164278516382  0.05252157380422061  1.0000
  H   H22       1.0  0.37433472041393395  0.8082373383719104  0.9474810748506004  1.0000
  H   H23       1.0  0.3683318210667962  0.400742576796958  0.5586092831573951  1.0000
  H   H24       1.0  0.631661881376516  0.5992595417497953  0.4414018017675687  1.0000
  C   C1        1.0  0.4740056566457013  0.4033950384140468  0.8834388065624381  1.0000
  C   C2        1.0  0.5259976050507902  0.5966010954066264  0.11656939044402041  1.0000
  C   C3        1.0  0.16686359166281767  0.41140578057836313  0.25553280840162523  1.0000
  C   C4        1.0  0.8331332299629537  0.5885979222026236  0.7444597777807259  1.0000
  C   C5        1.0  0.3977196652587978  0.46199565851326013  0.744915791929003  1.0000
  C   C6        1.0  0.6022821607358252  0.5380016722616431  0.2550931334414912  1.0000
  C   C7        1.0  0.302140030561894  0.25909427260395296  0.3207221856815394  1.0000
  C   C8        1.0  0.6978499199877746  0.7409081846663031  0.679269625344638  1.0000
  C   C9        1.0  0.42479475975378733  0.3621976903138633  0.666644722200644  1.0000
  C   C10       1.0  0.5751993350905593  0.6378081353426881  0.3333638351467981  1.0000
  C   C11       1.0  0.5909054151023054  0.15291028237085416  0.8558091194362947  1.0000
  C   C12       1.0  0.40910197279958976  0.8470885165264054  0.14418828156627234  1.0000
  C   C13       1.0  0.5706410862371454  0.24457845926906438  0.9417400701851905  1.0000
  C   C14       1.0  0.42936689562633024  0.7554177520797297  0.05826548764262891  1.0000
  C   C15       1.0  0.23425972539755685  0.9269044327743006  0.6558982149128099  1.0000
  C   C16       1.0  0.7657468001037129  0.07309301424771775  0.3441059977880485  1.0000
  C   C17       1.0  0.03835315400133501  0.955655313713159  0.8743663918335187  1.0000
  C   C18       1.0  0.9616445896796079  0.044338532518494816  0.125632007688715  1.0000
  C   C19       1.0  0.0664768872401353  0.10321207905286663  0.8657687157066292  1.0000
  C   C20       1.0  0.9335174530564814  0.8967866324787581  0.13422920419143475  1.0000
  C   C21       1.0  0.07161209415310306  0.908581751611486  0.7412350733219953  1.0000
  C   C22       1.0  0.9283893883749883  0.09141696005536913  0.25876510828111793  1.0000
  C   C23       1.0  0.9717405070497307  0.8534674918354669  0.010838657773852742  1.0000
  C   C24       1.0  0.028261344892612787  0.14652387339255318  0.9891633273258976  1.0000
  C   C25       1.0  0.07805592246756984  0.4599259483692536  0.3790501016682271  1.0000
  C   C26       1.0  0.9219406589933213  0.5400789417087497  0.6209441082017548  1.0000
  C   C27       1.0  0.11884779889883394  0.5811451245357304  0.4102383682671515  1.0000
  C   C28       1.0  0.8811465540543888  0.418864659904017  0.5897541838112516  1.0000
  C   C29       1.0  0.9578858636792587  0.37881182933065827  0.4709076059768123  1.0000
  C   C30       1.0  0.04210994563616309  0.6211967194358794  0.529086291228552  1.0000
  N   N1        1.0  0.5205582949910905  0.2109855121306056  0.7201457675991705  1.0000
  N   N2        1.0  0.4794368920885929  0.7890204974636605  0.27985331761685467  1.0000
  N   N3        1.0  0.44352609846124835  0.5106718767955416  0.9581204549446982  1.0000
  N   N4        1.0  0.5564834896741503  0.48931690101924374  0.041891948685353994  1.0000
  O   O1        1.0  0.3174952537885503  0.14829204732188125  0.2717391015479151  1.0000
  O   O2        1.0  0.6824986964334697  0.8517140493675588  0.7282549413625147  1.0000
  O   O3        1.0  0.38877368438270554  0.254002423454665  0.4210425021083211  1.0000
  O   O4        1.0  0.611215251530183  0.7459937875335287  0.5789570245060319  1.0000
  O   O5        1.0  0.33256829280835365  0.9822242898344915  0.698774810235271  1.0000
  O   O6        1.0  0.667429889637063  0.017779093537399104  0.30123525919868405  1.0000
  O   O7        1.0  0.2586276077978553  0.8845547923432451  0.5441661929708915  1.0000
  O   O8        1.0  0.7413797334959895  0.1154500108198917  0.4558360748114154  1.0000
