data_image0
_chemical_formula_structural       Zn2H20C20N8O8
_chemical_formula_sum              "Zn2 H20 C20 N8 O8"
_cell_length_a       9.114344541785945
_cell_length_b       9.209059576513171
_cell_length_c       9.346443941262525
_cell_angle_alpha    76.84841854115706
_cell_angle_beta     60.818136858742264
_cell_angle_gamma    62.1837232784918

_space_group_name_H-M_alt    "P 1"
_space_group_IT_number       1

loop_
  _space_group_symop_operation_xyz
  'x, y, z'

loop_
  _atom_site_type_symbol
  _atom_site_label
  _atom_site_symmetry_multiplicity
  _atom_site_fract_x
  _atom_site_fract_y
  _atom_site_fract_z
  _atom_site_occupancy
  Zn  Zn1       1.0  0.8445582933787181  0.6836040858680689  0.7840582133409053  1.0000
  Zn  Zn2       1.0  0.6286168848034634  0.18361789025305336  0.21593542383942568  1.0000
  H   H1        1.0  0.6062930851166544  0.001271808393532599  0.9932935737540586  1.0000
  H   H2        1.0  0.5995717815791437  0.5013030618345835  0.006701963396388138  1.0000
  H   H3        1.0  0.2633926808254472  0.23045871986445118  0.005175741014198761  1.0000
  H   H4        1.0  0.26855460167736606  0.730474851124036  0.9948158077568716  1.0000
  H   H5        1.0  0.48483799266647787  0.8332923220651904  0.6976975043835691  1.0000
  H   H6        1.0  0.18253694951193486  0.3333094651225109  0.30231195275899114  1.0000
  H   H7        1.0  0.17352850540607545  0.0719103009302344  0.7270874224270469  1.0000
  H   H8        1.0  0.9006215670315854  0.5719020522014446  0.27290822085196  1.0000
  H   H9        1.0  0.10682365909575282  0.2567960342841359  0.8136972874487609  1.0000
  H   H10       1.0  0.9205069309410449  0.7567979594052189  0.18630200610866143  1.0000
  H   H11       1.0  0.25435658160870417  0.6771175586232588  0.6720114009325114  1.0000
  H   H12       1.0  0.926357207145465  0.17711702249439998  0.32799103849297506  1.0000
  H   H13       1.0  0.9011789906206219  0.8519505493684107  0.44316641907433035  1.0000
  H   H14       1.0  0.3443422536774962  0.35194225148691766  0.5568362968255584  1.0000
  H   H15       1.0  0.2209430208247698  0.895303011444106  0.23098493782178753  1.0000
  H   H16       1.0  0.4519262260975909  0.39528856290902326  0.7690220693128109  1.0000
  H   H17       1.0  0.5580094427570759  0.7364981607723492  0.2451398493194146  1.0000
  H   H18       1.0  0.8031546208356705  0.2364776177363908  0.7548649129585313  1.0000
  H   H19       1.0  0.5372373752721985  0.7156470300545976  0.4462652762145962  1.0000
  H   H20       1.0  0.9835020527893974  0.21563215099739347  0.5537358270714066  1.0000
  C   C1        1.0  0.5286896527038041  0.0011591252941513994  0.93488679793149  1.0000
  C   C2        1.0  0.4635683808739871  0.5011827935234194  0.06510523829658865  1.0000
  C   C3        1.0  0.358875650990669  0.11272015990986968  0.9445554428389114  1.0000
  C   C4        1.0  0.3034228162108264  0.6127352817730837  0.055435327468956117  1.0000
  C   C5        1.0  0.4710120453150215  0.9093036033386708  0.7805852763035755  1.0000
  C   C6        1.0  0.25159521796551604  0.4093222957521405  0.21941675699044783  1.0000
  C   C7        1.0  0.15161140454681313  0.123829254449042  0.834345510543862  1.0000
  C   C8        1.0  0.9859499045684926  0.6238312400701956  0.16565189786216172  1.0000
  C   C9        1.0  0.9976648376903939  0.09380728854002739  0.9908192555157457  1.0000
  C   C10       1.0  0.9884771591035035  0.5938017209138946  0.00917872181570089  1.0000
  C   C11       1.0  0.19839234092401656  0.7338666086728904  0.5840048797165734  1.0000
  C   C12       1.0  0.7823912261118054  0.23386205674538016  0.41599864220029276  1.0000
  C   C13       1.0  0.021529320467948452  0.823487355177022  0.4596986998739183  1.0000
  C   C14       1.0  0.48122188255179305  0.32347866588360574  0.5403064268032409  1.0000
  C   C15       1.0  0.17956869856940474  0.8449594603189112  0.3536899151224516  1.0000
  C   C16       1.0  0.5332537076677542  0.3449454721215659  0.6463160294126594  1.0000
  C   C17       1.0  0.4685384490265037  0.7909079296722226  0.36843306307356727  1.0000
  C   C18       1.0  0.836971130501418  0.2908903072810886  0.6315713240174856  1.0000
  C   C19       1.0  0.4544212705118724  0.9656145001514671  0.3565588309413455  1.0000
  C   C20       1.0  0.8109739141843025  0.46560298822935653  0.6434393226453279  1.0000
  N   N1        1.0  0.5971527606212489  0.8745537385275667  0.832072963645899  1.0000
  N   N2        1.0  0.4292198469930641  0.3745775362276119  0.16792802004857763  1.0000
  N   N3        1.0  0.3248793759105909  0.05326992429343849  0.8461961888553801  1.0000
  N   N4        1.0  0.1710700656105927  0.5532797676424366  0.15379838745354132  1.0000
  N   N5        1.0  0.035114683667757454  0.7538113618039048  0.6029066753952176  1.0000
  N   N6        1.0  0.6380132007810103  0.25380933759417706  0.3970967027137957  1.0000
  N   N7        1.0  0.2897335882698045  0.7871092022703579  0.4338193909627391  1.0000
  N   N8        1.0  0.7235497445200779  0.28709182309080455  0.5661883958902576  1.0000
  O   O1        1.0  0.03276043145189793  0.0042774679884445  0.10236655764651198  1.0000
  O   O2        1.0  0.13512420333119501  0.5042828880345595  0.8976279566782636  1.0000
  O   O3        1.0  0.8360183431313005  0.1712771999755773  0.994020815735652  1.0000
  O   O4        1.0  0.8300284789491812  0.6712606094629905  0.005983097588789014  1.0000
  O   O5        1.0  0.3030133336027917  0.0841755202740586  0.42517288352644994  1.0000
  O   O6        1.0  0.7281502658650897  0.5841637835986474  0.5748474614563218  1.0000
  O   O7        1.0  0.6137038183231739  0.9709388954098869  0.2692328731711982  1.0000
  O   O8        1.0  0.8829651699967443  0.4709233318845633  0.7307368256722168  1.0000
