data_image0
_chemical_formula_structural       HgH10C10Br2N6O2
_chemical_formula_sum              "Hg1 H10 C10 Br2 N6 O2"
_cell_length_a       4.035133745967871
_cell_length_b       6.28454349002088
_cell_length_c       14.771601631953292
_cell_angle_alpha    100.08191076107133
_cell_angle_beta     91.21248647282339
_cell_angle_gamma    97.25190881393186

_space_group_name_H-M_alt    "P 1"
_space_group_IT_number       1

loop_
  _space_group_symop_operation_xyz
  'x, y, z'

loop_
  _atom_site_type_symbol
  _atom_site_label
  _atom_site_symmetry_multiplicity
  _atom_site_fract_x
  _atom_site_fract_y
  _atom_site_fract_z
  _atom_site_occupancy
  Hg  Hg1       1.0  0.5000181843686563  0.99999755263476  0.4999984861610115  1.0000
  H   H1        1.0  0.2647521578992453  0.6720080816491959  0.8132021808872593  1.0000
  H   H2        1.0  0.7352472326374696  0.32799695067243556  0.18679248479525504  1.0000
  H   H3        1.0  0.2626301869084032  0.4934117970463203  0.6462644334472785  1.0000
  H   H4        1.0  0.737373641250045  0.5065784421794676  0.3537324509471702  1.0000
  H   H5        1.0  0.7315318952393427  0.9947660104849875  0.7213981538147605  1.0000
  H   H6        1.0  0.26844199750394176  0.005225366551876198  0.27860459868331583  1.0000
  H   H7        1.0  0.8910162058788771  0.1617133746575306  0.0420067942033882  1.0000
  H   H8        1.0  0.10898525371381144  0.8382914016239696  0.9579932904497779  1.0000
  H   H9        1.0  0.6609959626524784  0.36521572515633244  0.0123735591087453  1.0000
  H   H10       1.0  0.3389868576148204  0.634780961987822  0.9876222755177719  1.0000
  C   C1        1.0  0.37025687770768195  0.5198881255775304  0.793378027359374  1.0000
  C   C2        1.0  0.6297382980762691  0.4801086053869027  0.20661862035046846  1.0000
  C   C3        1.0  0.36839665147670086  0.4216672534416404  0.7006563362080911  1.0000
  C   C4        1.0  0.6316081922335287  0.5783293699921472  0.2993437923128752  1.0000
  C   C5        1.0  0.6243949700847865  0.14599179493153258  0.7416589447886963  1.0000
  C   C6        1.0  0.37558439709358277  0.8540013790114142  0.25834130496003377  1.0000
  C   C7        1.0  0.626889262628211  0.244703940930961  0.8342537224106576  1.0000
  C   C8        1.0  0.3731063178425629  0.7552959142389639  0.16574589514551968  1.0000
  C   C9        1.0  0.7868973938140229  0.13885472654608577  0.9045425320124635  1.0000
  C   C10       1.0  0.21309835104775482  0.8611597151827153  0.09545963974925085  1.0000
  Br  Br1       1.0  0.8605887631508579  0.7449554797087288  0.5597577424216098  1.0000
  Br  Br2       1.0  0.13946799588360653  0.2550731565937667  0.4402631790099818  1.0000
  N   N1        1.0  0.49750954256845153  0.43156549662382554  0.8605175542434009  1.0000
  N   N2        1.0  0.5024886224036322  0.5684344419985123  0.13948074336806118  1.0000
  N   N3        1.0  0.4951673673796579  0.23435490326970404  0.6752404623572517  1.0000
  N   N4        1.0  0.5048209060611554  0.7656333749866062  0.32476083510771037  1.0000
  N   N5        1.0  0.7806248206831018  0.232092311341269  0.9925548393328183  1.0000
  N   N6        1.0  0.21936595543151333  0.7679061882628774  0.007438520382713406  1.0000
  O   O1        1.0  0.9223362840214053  0.9709941667677668  0.8770651573084078  1.0000
  O   O2        1.0  0.07767834813102333  0.029014049133543603  0.12293331914212757  1.0000
