data_image0
_chemical_formula_structural       Mg4H32C16O28
_chemical_formula_sum              "Mg4 H32 C16 O28"
_cell_length_a       7.922688882000884
_cell_length_b       7.922689390001078
_cell_length_c       12.743619548002053
_cell_angle_alpha    89.99995070479511
_cell_angle_beta     89.99995764897896
_cell_angle_gamma    90.00003378724134

_space_group_name_H-M_alt    "P 1"
_space_group_IT_number       1

loop_
  _space_group_symop_operation_xyz
  'x, y, z'

loop_
  _atom_site_type_symbol
  _atom_site_label
  _atom_site_symmetry_multiplicity
  _atom_site_fract_x
  _atom_site_fract_y
  _atom_site_fract_z
  _atom_site_occupancy
  Mg  Mg1       1.0  0.5311834296294577  0.88075396231428  0.21305920475695936  1.0000
  Mg  Mg2       1.0  0.46881645482500295  0.1192445062821363  0.7130594403855712  1.0000
  Mg  Mg3       1.0  0.11924445238275891  0.531183893495964  0.9630590269489833  1.0000
  Mg  Mg4       1.0  0.8807551343199834  0.46881549120396226  0.46305885122131235  1.0000
  H   H1        1.0  0.30244892605573176  0.07649284338656769  0.3041230822006825  1.0000
  H   H2        1.0  0.6975508499414146  0.9235067613409809  0.8041227828619172  1.0000
  H   H3        1.0  0.9235072284345522  0.30244803785004837  0.054123262825761714  1.0000
  H   H4        1.0  0.0764928453146894  0.6975519129716546  0.5541233692087317  1.0000
  H   H5        1.0  0.2227336227536512  0.039015726271479395  0.18959363993271697  1.0000
  H   H6        1.0  0.7772662896488923  0.9609827748105744  0.689593283986689  1.0000
  H   H7        1.0  0.9609825907209738  0.22273460503775058  0.939594625144807  1.0000
  H   H8        1.0  0.03901702392845151  0.7772648121461783  0.4395938859216174  1.0000
  H   H9        1.0  0.7738812511151281  0.6731237543381708  0.2518480273617528  1.0000
  H   H10       1.0  0.22611858714181918  0.3268759227574804  0.7518482633054406  1.0000
  H   H11       1.0  0.326876624544262  0.7738799859029584  0.0018484864399611004  1.0000
  H   H12       1.0  0.6731235114648796  0.2261187750897378  0.5018477864930446  1.0000
  H   H13       1.0  0.8091635485036973  0.7095609718702814  0.12888608382839814  1.0000
  H   H14       1.0  0.19083643620216154  0.29043887545125097  0.6288863554403294  1.0000
  H   H15       1.0  0.2904389883138877  0.8091628414385067  0.8788873798407482  1.0000
  H   H16       1.0  0.7095606986384766  0.19083665978724446  0.3788866465753318  1.0000
  H   H17       1.0  0.6034620537576317  0.9164692706507221  0.0078121536267304025  1.0000
  H   H18       1.0  0.3965380751489676  0.08353074428351448  0.5078116568024529  1.0000
  H   H19       1.0  0.0835319730697748  0.6034625117733796  0.7578119908134656  1.0000
  H   H20       1.0  0.9164691202820024  0.3965371570665255  0.257811837349955  1.0000
  H   H21       1.0  0.7110875794189795  0.1572226459700801  0.9978128535569086  1.0000
  H   H22       1.0  0.2889119658914582  0.8427779528144442  0.4978135340803932  1.0000
  H   H23       1.0  0.8427780305871336  0.7110878125352399  0.7478114893487419  1.0000
  H   H24       1.0  0.15722307467510888  0.28891187014887265  0.24781174172841966  1.0000
  H   H25       1.0  0.3739362025291443  0.2686398854260901  0.09181598582107853  1.0000
  H   H26       1.0  0.6260638263283056  0.731360013215337  0.5918150373106102  1.0000
  H   H27       1.0  0.7313624185083116  0.3739357869672019  0.8418155099358773  1.0000
  H   H28       1.0  0.26863857479431635  0.6260637655799002  0.3418155309300489  1.0000
  H   H29       1.0  0.5313689295189192  0.413291596241308  0.05411390665945963  1.0000
  H   H30       1.0  0.46863114424153446  0.5867083545934335  0.5541138924210928  1.0000
  H   H31       1.0  0.5867083154083305  0.531367160007761  0.8041142813535986  1.0000
  H   H32       1.0  0.41329272279683954  0.4686324447321154  0.30411432016760653  1.0000
  C   C1        1.0  0.7041220166605129  0.1950575945862667  0.16589378467610771  1.0000
  C   C2        1.0  0.2958779239694564  0.8049422015033584  0.6658929482905479  1.0000
  C   C3        1.0  0.8049448133860296  0.7041203539582598  0.9158940444075088  1.0000
  C   C4        1.0  0.1950560916881869  0.29587909603595364  0.4158942757062079  1.0000
  C   C5        1.0  0.617306844022565  0.15346822862051104  0.061166112956357224  1.0000
  C   C6        1.0  0.38269195914049453  0.8465317124504563  0.5611667839205199  1.0000
  C   C7        1.0  0.8465330034843745  0.6173077459331179  0.8111655706199132  1.0000
  C   C8        1.0  0.15346802632253542  0.3826918490449883  0.3111657745780861  1.0000
  C   C9        1.0  0.4815739382421286  0.2860077938392179  0.03852105095273831  1.0000
  C   C10       1.0  0.518426154089255  0.7139909163843469  0.5385209458132608  1.0000
  C   C11       1.0  0.713992116687493  0.48157351068874016  0.7885205796070027  1.0000
  C   C12       1.0  0.28600894009029076  0.5184273778363602  0.2885206501861434  1.0000
  C   C13       1.0  0.41671285320483525  0.2818595788336395  0.9261024920902445  1.0000
  C   C14       1.0  0.5832842531188761  0.718141119225578  0.42610153480339363  1.0000
  C   C15       1.0  0.7181397462818568  0.4167117764326702  0.6761019856789973  1.0000
  C   C16       1.0  0.2818614443876371  0.5832892677223639  0.17610202347924545  1.0000
  O   O1        1.0  0.6575897628716519  0.11444600922316538  0.2467413340537946  1.0000
  O   O2        1.0  0.3424113436653684  0.8855536749427059  0.7467412179253048  1.0000
  O   O3        1.0  0.8855512235825813  0.6575919294659939  0.9967392013920817  1.0000
  O   O4        1.0  0.11444832300732341  0.3424086708057175  0.4967386600830111  1.0000
  O   O5        1.0  0.29715936231760054  0.9951367485143408  0.24345561551695744  1.0000
  O   O6        1.0  0.7028404859348285  0.004862940199622301  0.7434558049495552  1.0000
  O   O7        1.0  0.0048640060989555  0.29715977080004313  0.9934555034127686  1.0000
  O   O8        1.0  0.9951355444017551  0.7028408340174225  0.4934551500815162  1.0000
  O   O9        1.0  0.7595591515790405  0.7547576855921038  0.1945055876011423  1.0000
  O   O10       1.0  0.24044075497369732  0.2452433330848365  0.6945058606239274  1.0000
  O   O11       1.0  0.24524089574847346  0.7595609390936175  0.944505338534356  1.0000
  O   O12       1.0  0.7547561886578933  0.24044225788428258  0.4445045580123194  1.0000
  O   O13       1.0  0.8146918368528305  0.31193713217294317  0.16333087691813836  1.0000
  O   O14       1.0  0.18530936902679684  0.6880626674644644  0.6633309384567952  1.0000
  O   O15       1.0  0.688061550216979  0.8146938849778775  0.9133296210934604  1.0000
  O   O16       1.0  0.31193809571374237  0.18530556856608627  0.41332985789704696  1.0000
  O   O17       1.0  0.30796194535218296  0.3906458587381465  0.8969961576333179  1.0000
  O   O18       1.0  0.6920389822303079  0.6093536174187121  0.396995208625505  1.0000
  O   O19       1.0  0.6093546949498503  0.30796207641406426  0.6469957093880299  1.0000
  O   O20       1.0  0.3906465303844584  0.6920352214421754  0.14699563913693237  1.0000
  O   O21       1.0  0.47980633501072134  0.1719777596413081  0.8660104744989713  1.0000
  O   O22       1.0  0.5201908428820943  0.8280192350150627  0.36600948740287015  1.0000
  O   O23       1.0  0.8280229493050657  0.47980784919646885  0.6160091264036185  1.0000
  O   O24       1.0  0.17197705073747474  0.5201920159517572  0.11600924834961295  1.0000
  O   O25       1.0  0.5475933821396808  0.9868998442230037  0.06461704493885631  1.0000
  O   O26       1.0  0.4524066791112419  0.0131000920711983  0.5646173448510157  1.0000
  O   O27       1.0  0.013100026690253203  0.5475937967117729  0.8146177039384244  1.0000
  O   O28       1.0  0.9868997368080132  0.45240705568484435  0.3146174882920506  1.0000
