data_image0
_chemical_formula_structural       Ho4H24C28O36
_chemical_formula_sum              "Ho4 H24 C28 O36"
_cell_length_a       9.825569133116637
_cell_length_b       9.825207111843165
_cell_length_c       13.064190674252966
_cell_angle_alpha    95.40003736452898
_cell_angle_beta     108.93068192425216
_cell_angle_gamma    116.29594164078237

_space_group_name_H-M_alt    "P 1"
_space_group_IT_number       1

loop_
  _space_group_symop_operation_xyz
  'x, y, z'

loop_
  _atom_site_type_symbol
  _atom_site_label
  _atom_site_symmetry_multiplicity
  _atom_site_fract_x
  _atom_site_fract_y
  _atom_site_fract_z
  _atom_site_occupancy
  Ho  Ho1       1.0  0.46110904150639703  0.736183225912747  0.003308438797091644  1.0000
  Ho  Ho2       1.0  0.23276792466914736  0.45777661109140416  0.4965918157483742  1.0000
  Ho  Ho3       1.0  0.5388936256000817  0.26381898155442224  0.9966926001476962  1.0000
  Ho  Ho4       1.0  0.7672335005240924  0.5422232414647113  0.5034102912019804  1.0000
  H   H1        1.0  0.6909947531604956  0.9346515279743103  0.23337589909790069  1.0000
  H   H2        1.0  0.20166961816126164  0.4577614667422196  0.26656184045116754  1.0000
  H   H3        1.0  0.3090096100561083  0.0653518845977388  0.7666279346129982  1.0000
  H   H4        1.0  0.7983242284403859  0.5422300921793948  0.7334386115038923  1.0000
  H   H5        1.0  0.6369743866519002  0.0498272095041727  0.18141658080555345  1.0000
  H   H6        1.0  0.3687991972346937  0.45578251574885803  0.3186632015990014  1.0000
  H   H7        1.0  0.36302658005462973  0.950173813859614  0.8185847255677243  1.0000
  H   H8        1.0  0.6311969717959728  0.5442113994812844  0.6813356833761474  1.0000
  H   H9        1.0  0.7850185514660807  0.8395737603774053  0.8524782027523514  1.0000
  H   H10       1.0  0.4868638778694461  0.9323075197015883  0.6472363574871878  1.0000
  H   H11       1.0  0.2149819567537392  0.16042843379405272  0.14752230304384278  1.0000
  H   H12       1.0  0.5131350774392374  0.06768755477753531  0.3527579333418912  1.0000
  H   H13       1.0  0.05424904255407636  0.9776666775332501  0.8016346121788658  1.0000
  H   H14       1.0  0.6757503322248155  0.2523631203098092  0.6981232257511605  1.0000
  H   H15       1.0  0.9457443766287879  0.02233425729254891  0.19835870378511075  1.0000
  H   H16       1.0  0.3242469141042719  0.7476308120689409  0.301877456895582  1.0000
  H   H17       1.0  0.23348660077548533  0.5326661244133177  0.0816722803337129  1.0000
  H   H18       1.0  0.9510808140997113  0.15169706084929405  0.4182203065928505  1.0000
  H   H19       1.0  0.7665154432294585  0.46733491609907674  0.9183308237111587  1.0000
  H   H20       1.0  0.04891475324524936  0.848303939775967  0.5817811980062118  1.0000
  H   H21       1.0  0.3905139993782925  0.5172067880734943  0.13930267914675207  1.0000
  H   H22       1.0  0.8778975520160444  0.2510475098158694  0.36061538397287046  1.0000
  H   H23       1.0  0.6094880478440244  0.4827942366877734  0.8606981282521742  1.0000
  H   H24       1.0  0.1221037331955729  0.7489582415765669  0.63938784653255  1.0000
  C   C1        1.0  0.7402444113602301  0.0867457027370975  0.9685503839545007  1.0000
  C   C2        1.0  0.6181452820398619  0.7715827295687347  0.531285576300796  1.0000
  C   C3        1.0  0.2597577961870811  0.9132576807881135  0.03145061996185209  1.0000
  C   C4        1.0  0.381854449188161  0.2284159073817449  0.4687122047861577  1.0000
  C   C5        1.0  0.07470719085815601  0.19863391158671115  0.881217886205391  1.0000
  C   C6        1.0  0.8173245408939065  0.19332831609391826  0.6186773916743461  1.0000
  C   C7        1.0  0.9252834559886196  0.8013657957352223  0.11877007177223223  1.0000
  C   C8        1.0  0.18267472541266716  0.8066715231664857  0.38132418212741465  1.0000
  C   C9        1.0  0.8675188245324676  0.9649432636041483  0.8687251169796325  1.0000
  C   C10       1.0  0.596072878331249  0.9985879463495947  0.6310764522397605  1.0000
  C   C11       1.0  0.13248015004712954  0.035060073725624405  0.13127125947058  1.0000
  C   C12       1.0  0.4039240762708616  0.0014094840985236995  0.36891903305543383  1.0000
  C   C13       1.0  0.23037941530098047  0.3356615714541889  0.8927390999690061  1.0000
  C   C14       1.0  0.9428022667298422  0.33756708393038093  0.6072031275176073  1.0000
  C   C15       1.0  0.7696153814869219  0.6643358404478404  0.10725508662893904  1.0000
  C   C16       1.0  0.0571997772751019  0.6624339565820138  0.39279997652726445  1.0000
  C   C17       1.0  0.007890513397107701  0.0374260129330111  0.8427475517771439  1.0000
  C   C18       1.0  0.6945024262916633  0.16492369728748466  0.6570944161613922  1.0000
  C   C19       1.0  0.9921022869740453  0.9625737339365088  0.1572447670923225  1.0000
  C   C20       1.0  0.3054963826006655  0.8350773075302198  0.3429055915146293  1.0000
  C   C21       1.0  0.33598831661691264  0.6798819303365208  0.7364794278251665  1.0000
  C   C22       1.0  0.4430945380279141  0.5994645777998571  0.7633535379047274  1.0000
  C   C23       1.0  0.6640195863087611  0.3201179568563433  0.2635235130223563  1.0000
  C   C24       1.0  0.5569051632046323  0.4005258488037312  0.23664981304757757  1.0000
  C   C25       1.0  0.8566310606303202  0.085584069708311  0.921574310529273  1.0000
  C   C26       1.0  0.6639793464485138  0.9349331282770522  0.5782870580340358  1.0000
  C   C27       1.0  0.1433683745809021  0.9144180863130345  0.07842133540073355  1.0000
  C   C28       1.0  0.3360196292035411  0.0650702038023496  0.4217085528675283  1.0000
  O   O1        1.0  0.6449535400296897  0.9579403981013931  0.9823772109243334  1.0000
  O   O2        1.0  0.47549731445751314  0.6624933893013322  0.5174244449953633  1.0000
  O   O3        1.0  0.3550517455226156  0.04206064660343861  0.017624396197497602  1.0000
  O   O4        1.0  0.5245014880000767  0.3375076470186188  0.482580155972549  1.0000
  O   O5        1.0  0.740951276269243  0.21577551426295122  0.9911687959616486  1.0000
  O   O6        1.0  0.7245869526957165  0.749687241240018  0.5086842186306697  1.0000
  O   O7        1.0  0.2590547862748594  0.7842290876628583  0.00883553586941595  1.0000
  O   O8        1.0  0.27541431860726107  0.2503102210498938  0.49131309851038196  1.0000
  O   O9        1.0  0.33283602943473756  0.7541523100320545  0.8195769351815017  1.0000
  O   O10       1.0  0.4342124585282932  0.5131719950961797  0.6802572390923486  1.0000
  O   O11       1.0  0.6671703355608969  0.24584874132062853  0.18042493851463348  1.0000
  O   O12       1.0  0.5657833834176459  0.4868172341083153  0.31974584613983126  1.0000
  O   O13       1.0  0.3413546306229804  0.3060363748393229  0.8845660465404492  1.0000
  O   O14       1.0  0.9214085376140632  0.45674257377342536  0.6155562661632529  1.0000
  O   O15       1.0  0.6586410809934334  0.6939587059481199  0.11543127230896738  1.0000
  O   O16       1.0  0.07859320393934875  0.5432620173120882  0.38444929601655536  1.0000
  O   O17       1.0  0.9813058487683788  0.22917634756647232  0.9280212130472234  1.0000
  O   O18       1.0  0.8011637694449333  0.053186254997918105  0.5718874075020678  1.0000
  O   O19       1.0  0.01869067305267452  0.7708304850377135  0.07197096400012984  1.0000
  O   O20       1.0  0.19883844346465224  0.946817102275418  0.4281097686710496  1.0000
  O   O21       1.0  0.2473874363713335  0.47239267030892057  0.9134538026518086  1.0000
  O   O22       1.0  0.05878268062856762  0.33394512246995595  0.5863866112869971  1.0000
  O   O23       1.0  0.7526175499468053  0.5276119092179031  0.08654796595900659  1.0000
  O   O24       1.0  0.9412212219564182  0.6660594714105202  0.413617952944115  1.0000
  O   O25       1.0  0.2639972660883743  0.6704650186165396  0.6340136038712316  1.0000
  O   O26       1.0  0.5361114989743639  0.6298473441870412  0.8658049055391216  1.0000
  O   O27       1.0  0.7360087761123495  0.3295313257089916  0.36598940788734774  1.0000
  O   O28       1.0  0.46389392226974013  0.3701478226829736  0.13419864022223746  1.0000
  O   O29       1.0  0.5952182774776632  0.9382187079217773  0.18343235071868252  1.0000
  O   O30       1.0  0.255123201169674  0.411912698339961  0.31655211373484343  1.0000
  O   O31       1.0  0.4047863903353885  0.061781143576404  0.8165674937599974  1.0000
  O   O32       1.0  0.7448734263477091  0.5880800460825027  0.6834475718173889  1.0000
  O   O33       1.0  0.3501566511822034  0.5939384052840992  0.1353086113462112  1.0000
  O   O34       1.0  0.9586183250719315  0.21471615005124534  0.3645354018958358  1.0000
  O   O35       1.0  0.6498441530544169  0.40606026981648574  0.8646940296069372  1.0000
  O   O36       1.0  0.04138527720642327  0.7852919839016083  0.6354700893729088  1.0000
