data_image0
_chemical_formula_structural       K4H12C16N24O24
_chemical_formula_sum              "K4 H12 C16 N24 O24"
_cell_length_a       7.607004834979247
_cell_length_b       9.25566543927338
_cell_length_c       13.130286703101138
_cell_angle_alpha    89.99993728416311
_cell_angle_beta     90.00044834306358
_cell_angle_gamma    106.07438334639987

_space_group_name_H-M_alt    "P 1"
_space_group_IT_number       1

loop_
  _space_group_symop_operation_xyz
  'x, y, z'

loop_
  _atom_site_type_symbol
  _atom_site_label
  _atom_site_symmetry_multiplicity
  _atom_site_fract_x
  _atom_site_fract_y
  _atom_site_fract_z
  _atom_site_occupancy
  K   K1        1.0  0.05843049132713673  0.354099651082521  0.18214378761987854  1.0000
  K   K2        1.0  0.4415722034491552  0.6458979465103455  0.6821404968198902  1.0000
  K   K3        1.0  0.9415735058208483  0.6459074687014948  0.8178583977922212  1.0000
  K   K4        1.0  0.5584270725579757  0.3541069704717047  0.3178616885822194  1.0000
  H   H1        1.0  0.35528075322119435  0.6406272022222766  0.3504879857234257  1.0000
  H   H2        1.0  0.14471841373094926  0.35937635147823954  0.8504835394342221  1.0000
  H   H3        1.0  0.64471776754322  0.35938675471343373  0.6495119148798805  1.0000
  H   H4        1.0  0.8552733649583574  0.6406184927679066  0.14951331476831334  1.0000
  H   H5        1.0  0.5961287807978407  0.8820302608749274  0.4305049829393964  1.0000
  H   H6        1.0  0.9038724161025015  0.11797419207012891  0.9305034057375037  1.0000
  H   H7        1.0  0.40386918588994564  0.11797467135695434  0.5694972024597219  1.0000
  H   H8        1.0  0.09612003624039309  0.8820262888061312  0.06949573325861277  1.0000
  H   H9        1.0  0.6959462431967366  0.02185197301341901  0.3422012643533988  1.0000
  H   H10       1.0  0.8040581677004539  0.9781500427989871  0.8422039737340226  1.0000
  H   H11       1.0  0.3040568412392233  0.9781562862978036  0.6578032058502146  1.0000
  H   H12       1.0  0.19593178557010302  0.021847080502119812  0.15779821164952065  1.0000
  C   C1        1.0  0.46435255312396617  0.7223428375330986  0.12442764342096517  1.0000
  C   C2        1.0  0.03565116306878481  0.27765239761620825  0.6244219948269246  1.0000
  C   C3        1.0  0.5356504117403347  0.27766880985237924  0.8755730187912503  1.0000
  C   C4        1.0  0.9643530351763234  0.7223366575031707  0.37557485940588  1.0000
  C   C5        1.0  0.5677233198216457  0.8574518314324495  0.17377557444103783  1.0000
  C   C6        1.0  0.9322816025025489  0.14254313437520952  0.6737748713635553  1.0000
  C   C7        1.0  0.43227964504796296  0.14255981595358952  0.8262258493691659  1.0000
  C   C8        1.0  0.06771866779512699  0.8574459664947586  0.3262235060562728  1.0000
  C   C9        1.0  0.5352757234457143  0.8332966950002856  0.2800420383893253  1.0000
  C   C10       1.0  0.9647274249086025  0.16670410672263367  0.7800399433247731  1.0000
  C   C11       1.0  0.46472553551844  0.16671384336040526  0.7199601470153637  1.0000
  C   C12       1.0  0.035267091980443935  0.833287318948493  0.21995919567915212  1.0000
  C   C13       1.0  0.45301625644586346  0.6881733148274449  0.016005777447844594  1.0000
  C   C14       1.0  0.046983173226230746  0.3118138937398173  0.5160009186393422  1.0000
  C   C15       1.0  0.5469844863711443  0.31183948733342254  0.9839948847589068  1.0000
  C   C16       1.0  0.9530203513758977  0.6881695247505492  0.483995173995872  1.0000
  N   N1        1.0  0.37480521971032493  0.6248051181258705  0.19379305655009194  1.0000
  N   N2        1.0  0.12519815348088056  0.37519023249671335  0.6937892720946477  1.0000
  N   N3        1.0  0.6251894926358688  0.3752054964817618  0.8062060824476943  1.0000
  N   N4        1.0  0.874805132041587  0.6247999621487711  0.3062083437336796  1.0000
  N   N5        1.0  0.4180532546032865  0.6937104495470906  0.2864064937419072  1.0000
  N   N6        1.0  0.08194867057840582  0.306288453464994  0.7864040827662248  1.0000
  N   N7        1.0  0.58194709161171  0.30630122833695606  0.713592645268349  1.0000
  N   N8        1.0  0.9180471556246915  0.6937029569557469  0.2135942946426893  1.0000
  N   N9        1.0  0.6144410120714526  0.7063227904818137  0.9616290548282006  1.0000
  N   N10       1.0  0.8855538763554736  0.29366259474548445  0.4616277841975033  1.0000
  N   N11       1.0  0.3855580248294999  0.29368890265261177  0.0383708457770595  1.0000
  N   N12       1.0  0.11444718714092529  0.7063287546775857  0.5383728780173411  1.0000
  N   N13       1.0  0.2851459577351891  0.6440455410612674  0.9665375869601219  1.0000
  N   N14       1.0  0.21484982768120633  0.35595146515854753  0.466533972938734  1.0000
  N   N15       1.0  0.7148547850712107  0.35596726109850624  0.033461552050645986  1.0000
  N   N16       1.0  0.7851527842035895  0.6440330928584788  0.5334636428899913  1.0000
  N   N17       1.0  0.6786401657107107  0.9883241729332045  0.1317348113351287  1.0000
  N   N18       1.0  0.8213678218940217  0.011666174032384903  0.6317375008491835  1.0000
  N   N19       1.0  0.32136541780289457  0.0116874439537185  0.8682673740790462  1.0000
  N   N20       1.0  0.17863427386484448  0.988320647787021  0.36826163817357827  1.0000
  N   N21       1.0  0.599495379130225  0.9238696053546889  0.3585948937619675  1.0000
  N   N22       1.0  0.9005053321741769  0.07613247989253581  0.858596376315958  1.0000
  N   N23       1.0  0.40050770529512647  0.07613865395543232  0.6414080532456551  1.0000
  N   N24       1.0  0.09948200244706845  0.9238646739071331  0.14140428586563294  1.0000
  O   O1        1.0  0.6235241123842172  0.7282089232920583  0.8667278653001202  1.0000
  O   O2        1.0  0.876465488104472  0.27176508206176925  0.36672809149980157  1.0000
  O   O3        1.0  0.3764742508790563  0.27179713321389454  0.13327203530553788  1.0000
  O   O4        1.0  0.1235311312920332  0.7282285769115265  0.6332718091061407  1.0000
  O   O5        1.0  0.757319042750531  0.7068976337086854  0.011653169873412098  1.0000
  O   O6        1.0  0.7426803288211943  0.29309149172811294  0.5116515000055982  1.0000
  O   O7        1.0  0.24268090686775423  0.29311291989908034  0.9883452075383302  1.0000
  O   O8        1.0  0.25732386946104674  0.7068975633951171  0.4883506854131524  1.0000
  O   O9        1.0  0.2719824431550251  0.5922775237183799  0.8765905669745635  1.0000
  O   O10       1.0  0.22800764515242383  0.4077216620934936  0.37658773898335324  1.0000
  O   O11       1.0  0.7280172294382082  0.40772851753884964  0.1234108568300698  1.0000
  O   O12       1.0  0.7719927446850791  0.5922640506989155  0.6234098768399148  1.0000
  O   O13       1.0  0.14471498871169086  0.6519197979283364  0.014816994931543098  1.0000
  O   O14       1.0  0.35528366916148  0.3480764488754247  0.51481046902078  1.0000
  O   O15       1.0  0.8552873404550285  0.34809750133379685  0.9851813824833042  1.0000
  O   O16       1.0  0.6447161665675623  0.6519002392098515  0.4851848620103424  1.0000
  O   O17       1.0  0.6955934540066692  0.00027362440329170096  0.037051803110784896  1.0000
  O   O18       1.0  0.804416745958932  0.9997154157339527  0.5370529761193621  1.0000
  O   O19       1.0  0.3044218108789138  0.9997356219335388  0.962950382326248  1.0000
  O   O20       1.0  0.19559070661184563  0.0002679570080203994  0.4629446397207955  1.0000
  O   O21       1.0  0.759776480851663  0.09256745859521943  0.19203177800140733  1.0000
  O   O22       1.0  0.7402336560463922  0.9074229602400053  0.6920342451871091  1.0000
  O   O23       1.0  0.24022426197595342  0.9074453435667496  0.8079704074013346  1.0000
  O   O24       1.0  0.25976752698453254  0.09256500110495121  0.3079648938331799  1.0000
