data_image0
_chemical_formula_structural       Cd2H32C30N12O12
_chemical_formula_sum              "Cd2 H32 C30 N12 O12"
_cell_length_a       9.738177771358114
_cell_length_b       10.441241209972715
_cell_length_c       11.024747534177921
_cell_angle_alpha    67.52130581860658
_cell_angle_beta     80.3301291939602
_cell_angle_gamma    68.64875288389082

_space_group_name_H-M_alt    "P 1"
_space_group_IT_number       1

loop_
  _space_group_symop_operation_xyz
  'x, y, z'

loop_
  _atom_site_type_symbol
  _atom_site_label
  _atom_site_symmetry_multiplicity
  _atom_site_fract_x
  _atom_site_fract_y
  _atom_site_fract_z
  _atom_site_occupancy
  Cd  Cd1       1.0  0.42732065799091873  0.9609238371658935  0.3000040592745917  1.0000
  Cd  Cd2       1.0  0.5726794969076963  0.039074611932981916  0.6999957327162463  1.0000
  H   H1        1.0  0.6884075675392226  0.684313455244933  0.04425795667467006  1.0000
  H   H2        1.0  0.3115953635036774  0.315682769039512  0.9557412967395748  1.0000
  H   H3        1.0  0.7260018711032147  0.2604900034837385  0.04361140214768967  1.0000
  H   H4        1.0  0.27399376495438327  0.7395096028612616  0.9563904832582608  1.0000
  H   H5        1.0  0.4141583341821261  0.4478228692256466  0.30802358792206513  1.0000
  H   H6        1.0  0.5858376784269694  0.5521788940405444  0.6919792845398476  1.0000
  H   H7        1.0  0.06521961386492592  0.24619744043123157  0.19061616249754113  1.0000
  H   H8        1.0  0.9347868403971235  0.7538074554191639  0.8093785507161827  1.0000
  H   H9        1.0  0.3628056910539287  0.9689479784560505  0.9989448048387145  1.0000
  H   H10       1.0  0.6371913199196798  0.031050529314327908  0.0010554477152310922  1.0000
  H   H11       1.0  0.24053405200824335  0.09151923359952012  0.7789681294612337  1.0000
  H   H12       1.0  0.7594660853488621  0.9084792339427993  0.22102984444465795  1.0000
  H   H13       1.0  0.1280976425327012  0.2777759485360747  0.747130139877882  1.0000
  H   H14       1.0  0.8719045820036514  0.7222224891136265  0.2528666179434609  1.0000
  H   H15       1.0  0.9062640205794423  0.19088978225449443  0.843192572277772  1.0000
  H   H16       1.0  0.09373644371865456  0.8091076062703664  0.15680392229714363  1.0000
  H   H17       1.0  0.021774191258884905  0.008682064559408804  0.8605249450361896  1.0000
  H   H18       1.0  0.9782266495907096  0.9913174808866503  0.13947253659468106  1.0000
  H   H19       1.0  0.8653518116089957  0.14243736159470194  0.6598619974306246  1.0000
  H   H20       1.0  0.13464902348388819  0.8575589018040831  0.34013756302569936  1.0000
  H   H21       1.0  0.9649862112447283  0.26758151682557246  0.5981280975040094  1.0000
  H   H22       1.0  0.03501322261988088  0.7324158728130072  0.4018703686768887  1.0000
  H   H23       1.0  0.19054565599694942  0.1980560832838094  0.45124614096300064  1.0000
  H   H24       1.0  0.809456317521175  0.8019466416568265  0.5487572897036728  1.0000
  H   H25       1.0  0.25093629241732873  0.748200240668048  0.5711242297784976  1.0000
  H   H26       1.0  0.7490656197054832  0.2518025488246565  0.42887283759083766  1.0000
  H   H27       1.0  0.9069189421867706  0.39429395239218223  0.9462191961824331  1.0000
  H   H28       1.0  0.09308188989206197  0.6057056022755989  0.05377737640596779  1.0000
  H   H29       1.0  0.5566776995463912  0.6882007134744299  0.4553166185575817  1.0000
  H   H30       1.0  0.44332175487379294  0.31179336645170963  0.5446866535761998  1.0000
  H   H31       1.0  0.5870114214648295  0.7659488163358221  0.5432393958589259  1.0000
  H   H32       1.0  0.412987317678045  0.2340474861773032  0.4567604716394698  1.0000
  C   C1        1.0  0.4864943970841723  0.6963241124605589  0.24113829604239348  1.0000
  C   C2        1.0  0.51350890749616  0.303677560014073  0.758858956559891  1.0000
  C   C3        1.0  0.5471557958573358  0.5764734602037791  0.18360219138052264  1.0000
  C   C4        1.0  0.45284472682201493  0.42352715503800203  0.816397678623801  1.0000
  C   C5        1.0  0.6551457087498208  0.5871871955627342  0.08272215006432049  1.0000
  C   C6        1.0  0.34485970657939197  0.4128078460378434  0.9172816802742219  1.0000
  C   C7        1.0  0.7219756061216104  0.4738788446345127  0.03218390530177111  1.0000
  C   C8        1.0  0.2780242336208262  0.526117382991089  0.9678212629304498  1.0000
  C   C9        1.0  0.6774006811038973  0.3495114481949956  0.0823972241366988  1.0000
  C   C10       1.0  0.3225949755092827  0.6504848484375643  0.9176094672221352  1.0000
  C   C11       1.0  0.566740324097836  0.3396535255310696  0.18155314174394727  1.0000
  C   C12       1.0  0.4332518380796987  0.6603505097718881  0.8184476956881568  1.0000
  C   C13       1.0  0.5016145246478629  0.45301118386883144  0.23254030387643346  1.0000
  C   C14       1.0  0.4983786855046759  0.5469928318769635  0.7674603800346416  1.0000
  C   C15       1.0  0.5177012296047253  0.20823530947873078  0.23090985612311948  1.0000
  C   C16       1.0  0.48229166237757687  0.7917697760627932  0.7690932161614012  1.0000
  C   C17       1.0  0.11745469310824323  0.19480758587155833  0.11852241055120058  1.0000
  C   C18       1.0  0.882546856990544  0.8051963195255071  0.8814724999792035  1.0000
  C   C19       1.0  0.2700524328762555  0.05241257882747871  0.023785470248810704  1.0000
  C   C20       1.0  0.7299470242865739  0.9475880744149237  0.9762127351915879  1.0000
  C   C21       1.0  0.13899053874279588  0.1637212281014372  0.8095359673465694  1.0000
  C   C22       1.0  0.8610106698875273  0.836280483487535  0.1904615922977867  1.0000
  C   C23       1.0  0.004583377866296695  0.12503962364702664  0.8020891627324289  1.0000
  C   C24       1.0  0.9954149992525528  0.8749577947704527  0.19790854792703524  1.0000
  C   C25       1.0  0.9718511338265758  0.1549735880481791  0.6617077727294358  1.0000
  C   C26       1.0  0.02814656309800512  0.8450260160693831  0.3382901694645426  1.0000
  C   C27       1.0  0.17977519425924982  0.09018579733822212  0.5012286899769549  1.0000
  C   C28       1.0  0.8202270886583563  0.9098158670284066  0.498771443273796  1.0000
  C   C29       1.0  0.20800348075331956  0.862178162804952  0.5647231377248048  1.0000
  C   C30       1.0  0.7920001770802829  0.13782240298705525  0.43527536267393424  1.0000
  N   N1        1.0  0.24591377934196862  0.07982819840114531  0.1363283614223363  1.0000
  N   N2        1.0  0.7540863725425951  0.9201735419667187  0.8636684427005717  1.0000
  N   N3        1.0  0.0607836293178892  0.23827247410203975  0.0023308840472111778  1.0000
  N   N4        1.0  0.9392189862974123  0.7617313932944044  0.9976656910471106  1.0000
  N   N5        1.0  0.15953511555182595  0.14682780266610962  0.9431422992137115  1.0000
  N   N6        1.0  0.8404639971284955  0.8531739480371953  0.056855567472709416  1.0000
  N   N7        1.0  0.2597804213152274  0.968584761991089  0.4750200062550078  1.0000
  N   N8        1.0  0.7402271365604349  0.031416767702793905  0.524982995560471  1.0000
  N   N9        1.0  0.08419090720196461  0.05731042238385701  0.6015973319445393  1.0000
  N   N10       1.0  0.9158106546816356  0.9426901825224832  0.39840147549627153  1.0000
  N   N11       1.0  0.10055572084903727  0.911752380276127  0.6435765208572377  1.0000
  N   N12       1.0  0.8994458147222847  0.08824825229538652  0.35641955945614257  1.0000
  O   O1        1.0  0.8270106565216582  0.49094252795635646  0.9341706049639242  1.0000
  O   O2        1.0  0.1729906077472663  0.5090558370332732  0.06583539680322296  1.0000
  O   O3        1.0  0.4213816164204332  0.19510866396576895  0.3255060654829478  1.0000
  O   O4        1.0  0.5786056385797806  0.8048976721528548  0.6744919813979138  1.0000
  O   O5        1.0  0.5720468248749031  0.11025999822624043  0.17756107899698034  1.0000
  O   O6        1.0  0.4279558639205234  0.88974050412741  0.8224457563050863  1.0000
  O   O7        1.0  0.4051380955359106  0.6801062459376584  0.3448547836032602  1.0000
  O   O8        1.0  0.5948603457208963  0.31989768124401513  0.6551442236601588  1.0000
  O   O9        1.0  0.5262910844664718  0.8106076515197814  0.18118414875952027  1.0000
  O   O10       1.0  0.47371397459540526  0.1893917880324238  0.8188154459146375  1.0000
  O   O11       1.0  0.6031566344992638  0.7581258241005672  0.4533214573596709  1.0000
  O   O12       1.0  0.3968539565670142  0.2418626109499726  0.5466803087697373  1.0000
