data_image0
_chemical_formula_structural       Cd4H44C56N20O24
_chemical_formula_sum              "Cd4 H44 C56 N20 O24"
_cell_length_a       9.737476286000485
_cell_length_b       11.989688589108411
_cell_length_c       14.763889427572762
_cell_angle_alpha    97.76817074964053
_cell_angle_beta     90.00003121401002
_cell_angle_gamma    89.99997743260953

_space_group_name_H-M_alt    "P 1"
_space_group_IT_number       1

loop_
  _space_group_symop_operation_xyz
  'x, y, z'

loop_
  _atom_site_type_symbol
  _atom_site_label
  _atom_site_symmetry_multiplicity
  _atom_site_fract_x
  _atom_site_fract_y
  _atom_site_fract_z
  _atom_site_occupancy
  Cd  Cd1       1.0  0.40003101622981063  0.4420100087518932  0.8888829412423577  1.0000
  Cd  Cd2       1.0  0.9000310636336123  0.5579903011691626  0.6111167234486956  1.0000
  Cd  Cd3       1.0  0.599968508390191  0.5579898525846191  0.11111660233952853  1.0000
  Cd  Cd4       1.0  0.09996846098638201  0.44200956016734944  0.38888282013319053  1.0000
  H   H1        1.0  0.0542010491932672  0.18346751921620807  0.46302854222655304  1.0000
  H   H2        1.0  0.5542009090755969  0.8165319055808451  0.03697086516604028  1.0000
  H   H3        1.0  0.9457984754267346  0.816532342120304  0.5369710013553259  1.0000
  H   H4        1.0  0.4457986155443976  0.18346795575567404  0.9630286784158457  1.0000
  H   H5        1.0  0.3150837006702077  0.9436022876088545  0.5715368801496581  1.0000
  H   H6        1.0  0.8150873364426304  0.05639719114661549  0.9284653697964984  1.0000
  H   H7        1.0  0.6849158239499006  0.05639841255951691  0.4284634351964556  1.0000
  H   H8        1.0  0.1849162960189261  0.9436018196057674  0.07153611002853918  1.0000
  H   H9        1.0  0.35538188450155433  0.0834053810120139  0.7120276895012054  1.0000
  H   H10       1.0  0.8553829303975604  0.9165949347837948  0.7879733144817394  1.0000
  H   H11       1.0  0.6446176401185609  0.9165953191563575  0.28797262584490824  1.0000
  H   H12       1.0  0.1446176211831371  0.08340492067672049  0.21202758310366931  1.0000
  H   H13       1.0  0.274546341605884  0.6802447822855486  0.026383113754619113  1.0000
  H   H14       1.0  0.774545778462752  0.3197554262909321  0.4736164610029334  1.0000
  H   H15       1.0  0.7254542099742524  0.3197550790508287  0.9736164298274375  1.0000
  H   H16       1.0  0.22545374615707917  0.6802452768153768  0.5263831773415079  1.0000
  H   H17       1.0  0.008542070490072702  0.7562169192523455  0.0012017945325836657  1.0000
  H   H18       1.0  0.5085425922206497  0.24378335639299567  0.4987983695799869  1.0000
  H   H19       1.0  0.9914574541301989  0.24378293914623583  0.9987984260509748  1.0000
  H   H20       1.0  0.49145795935948666  0.7562165049433814  0.5012011740020625  1.0000
  H   H21       1.0  0.9090417080797695  0.6086334283410866  0.8732430780481623  1.0000
  H   H22       1.0  0.4090424952626392  0.3913668792084408  0.6267565896119792  1.0000
  H   H23       1.0  0.0909578165400617  0.3913672747652157  0.1267565602962719  1.0000
  H   H24       1.0  0.5909570293576395  0.6086329791901407  0.3732436309715866  1.0000
  H   H25       1.0  0.06999886656009122  0.4452183495111441  0.833474542964254  1.0000
  H   H26       1.0  0.5699989614151094  0.5547820443297481  0.6665256899848373  1.0000
  H   H27       1.0  0.9300006580601873  0.5547815088874373  0.16652567761930473  1.0000
  H   H28       1.0  0.4300005632051694  0.44521781406883315  0.33347453059872834  1.0000
  H   H29       1.0  0.7182427879938088  0.46804417942917104  0.8004179553948063  1.0000
  H   H30       1.0  0.21824253994521575  0.5319570230426294  0.6995810671589242  1.0000
  H   H31       1.0  0.28175673662573797  0.531956526615069  0.19958100594794811  1.0000
  H   H32       1.0  0.7817569846743383  0.4680436830016106  0.3004178941838376  1.0000
  H   H33       1.0  0.8730385556904141  0.3086959127709861  0.7356031468722508  1.0000
  H   H34       1.0  0.3730382835867374  0.6913044071919144  0.7643958319232098  1.0000
  H   H35       1.0  0.1269619958892747  0.6913047932731189  0.26439581447068156  1.0000
  H   H36       1.0  0.6269602140726677  0.3086962988524604  0.2356031294193812  1.0000
  H   H37       1.0  0.7680411785253511  0.11494212152443589  0.7528644963719131  1.0000
  H   H38       1.0  0.2680397706526989  0.8850582231338675  0.7471351248290291  1.0000
  H   H39       1.0  0.23196040001475646  0.8850585815816032  0.24713514197286912  1.0000
  H   H40       1.0  0.7319587270069904  0.1149424799725765  0.2528645135152416  1.0000
  H   H41       1.0  0.5139620190944215  0.1651705201190339  0.8346023275430242  1.0000
  H   H42       1.0  0.013960568033859002  0.8348298825939652  0.6653992409453624  1.0000
  H   H43       1.0  0.4860395594466952  0.8348293324034161  0.16539924704423473  1.0000
  H   H44       1.0  0.9860379296268462  0.1651699699288898  0.334602333641385  1.0000
  C   C1        1.0  0.2633477338772607  0.2943673147403416  0.7472033908065541  1.0000
  C   C2        1.0  0.7633467996307743  0.7056330282151818  0.7527969058496781  1.0000
  C   C3        1.0  0.7366528177031527  0.705632543658105  0.252796829777175  1.0000
  C   C4        1.0  0.2366527249892201  0.2943668331213303  0.2472026377322081  1.0000
  C   C5        1.0  0.22487471344602036  0.20967226137533146  0.6665360329633432  1.0000
  C   C6        1.0  0.7248738046885137  0.7903289334753011  0.8334643457788148  1.0000
  C   C7        1.0  0.7751268650940873  0.7903284417307005  0.3334636053814322  1.0000
  C   C8        1.0  0.2751277738518709  0.2096717666928072  0.16653596956764014  1.0000
  C   C9        1.0  0.13814481292604336  0.23829540099321628  0.5966896891004936  1.0000
  C   C10       1.0  0.6381450029344151  0.7617041302053023  0.9033111485414267  1.0000
  C   C11       1.0  0.8618557386543773  0.7617044574052301  0.4033105314832356  1.0000
  C   C12       1.0  0.3618555486460053  0.23829572819314387  0.09668907204230952  1.0000
  C   C13       1.0  0.05881828211855121  0.3470249128743744  0.6080101236060926  1.0000
  C   C14       1.0  0.558818515790179  0.6529754868469339  0.8919894286574107  1.0000
  C   C15       1.0  0.9411812425008323  0.6529766349396553  0.3919889324992241  1.0000
  C   C16       1.0  0.4411810088298155  0.3470243744895781  0.10801011492447542  1.0000
  C   C17       1.0  0.11980637153892101  0.1621157074538999  0.5175587192966233  1.0000
  C   C18       1.0  0.6198086438382191  0.8378838285706606  0.9824421123032254  1.0000
  C   C19       1.0  0.8801931530810733  0.8378841538826194  0.48244082428525564  1.0000
  C   C20       1.0  0.3801929347027837  0.16211518511993012  0.017558690519798907  1.0000
  C   C21       1.0  0.1840509664803776  0.05737539406901959  0.5103632506472807  1.0000
  C   C22       1.0  0.6840542206061784  0.9426232803398021  0.9896381843600752  1.0000
  C   C23       1.0  0.815948558139617  0.9426244672674926  0.4896362929346056  1.0000
  C   C24       1.0  0.3159483848949662  0.05737573335064639  0.0103626184631196  1.0000
  C   C25       1.0  0.2682843271047802  0.0267147383802566  0.5794979592341605  1.0000
  C   C26       1.0  0.7682875090203183  0.973283919735927  0.9205021495242178  1.0000
  C   C27       1.0  0.7317151975152144  0.9732851229562557  0.42050158434772567  1.0000
  C   C28       1.0  0.23171612344056305  0.026714258060458504  0.0794972045332329  1.0000
  C   C29       1.0  0.28893137404008945  0.10403478248234421  0.6572617548748598  1.0000
  C   C30       1.0  0.7889324753534126  0.8959655478639448  0.8427399042147244  1.0000
  C   C31       1.0  0.7110681505801892  0.8959650759162372  0.34273846570870603  1.0000
  C   C32       1.0  0.21106910318742686  0.10403430759642869  0.15726099337085492  1.0000
  C   C33       1.0  0.1922769706812346  0.6417644982492233  0.983765662300286  1.0000
  C   C34       1.0  0.6922770369502089  0.3582358663484868  0.5162339339370376  1.0000
  C   C35       1.0  0.80772255393876  0.3582353630872888  0.016233881281600297  1.0000
  C   C36       1.0  0.307722487669615  0.6417648367578225  0.4837657044073964  1.0000
  C   C37       1.0  0.06180167039176611  0.6807320707388556  0.9713823548655471  1.0000
  C   C38       1.0  0.5618017659244501  0.3192683281973104  0.5286171983809425  1.0000
  C   C39       1.0  0.9381988811883704  0.3192677905975216  0.02861718871650961  1.0000
  C   C40       1.0  0.4381977586955442  0.680731533139209  0.47138234520094363  1.0000
  C   C41       1.0  0.09078762403164832  0.5174208933121633  0.8841629579457901  1.0000
  C   C42       1.0  0.5907877121302505  0.48257865622569074  0.6158365100888405  1.0000
  C   C43       1.0  0.9092119005883532  0.4825789680243489  0.11583658563608881  1.0000
  C   C44       1.0  0.409211812489744  0.5174212051108212  0.3841630334930457  1.0000
  C   C45       1.0  0.6949729199256965  0.3796270161637025  0.8007943521072463  1.0000
  C   C46       1.0  0.1949716014749825  0.6203733506626036  0.6992045680164694  1.0000
  C   C47       1.0  0.3050286586145746  0.6203728451725395  0.19920519147498084  1.0000
  C   C48       1.0  0.8050268961844227  0.3796273553817713  0.3007943933261146  1.0000
  C   C49       1.0  0.7193396383814346  0.19459823011427343  0.7769071919604897  1.0000
  C   C50       1.0  0.21933722249474394  0.8054029661932773  0.7230931849576478  1.0000
  C   C51       1.0  0.2806619401589573  0.8054024700538278  0.223093123385965  1.0000
  C   C52       1.0  0.7806602482050877  0.19459773397537114  0.276907130388132  1.0000
  C   C53       1.0  0.5941942861442159  0.22116669431812847  0.8174297910015512  1.0000
  C   C54       1.0  0.09419287661965833  0.7788336931552212  0.6825704499195383  1.0000
  C   C55       1.0  0.4058072923961689  0.7788340058499728  0.18257052434490362  1.0000
  C   C56       1.0  0.9058056210404785  0.22116616524349547  0.3174297706638498  1.0000
  N   N1        1.0  0.160081459389751  0.9751859695408597  0.4292417306944429  1.0000
  N   N2        1.0  0.6600817334582417  0.024813418576762596  0.0707597425902264  1.0000
  N   N3        1.0  0.8399190921904988  0.0248147306273836  0.5707585846518415  1.0000
  N   N4        1.0  0.3399188181224559  0.9751864368837531  0.9292411549951822  1.0000
  N   N5        1.0  0.20891064633924836  0.539451362011178  0.9290224022044387  1.0000
  N   N6        1.0  0.708909681074239  0.46054899820902045  0.5709771995134147  1.0000
  N   N7        1.0  0.7910899052407245  0.4605493410949891  0.0709772361401662  1.0000
  N   N8        1.0  0.2910898435457625  0.5394508631274988  0.4290223440684713  1.0000
  N   N9        1.0  0.999698684853385  0.6007871767909733  0.9086742997651811  1.0000
  N   N10       1.0  0.4996984119066497  0.399213106899616  0.5913253977657291  1.0000
  N   N11       1.0  0.00030186672702830006  0.39921268160747303  0.09132592081855512  1.0000
  N   N12       1.0  0.5003011127133447  0.6007867544369034  0.408674145816157  1.0000
  N   N13       1.0  0.5804740765371791  0.33718429698000557  0.8322746078879462  1.0000
  N   N14       1.0  0.08047271131322022  0.6628169329360815  0.6677264002766635  1.0000
  N   N15       1.0  0.41952750200349004  0.6628164002501649  0.1677263844601882  1.0000
  N   N16       1.0  0.9195257863470304  0.33718376429449404  0.33227459207096643  1.0000
  N   N17       1.0  0.780534110416568  0.295572362204652  0.7670088757325716  1.0000
  N   N18       1.0  0.2805327789429058  0.7044279791657573  0.7329907495847295  1.0000
  N   N19       1.0  0.2194664411634051  0.7044283409015223  0.2329907626120332  1.0000
  N   N20       1.0  0.7194646917566416  0.29557272394082196  0.26700888875937073  1.0000
  O   O1        1.0  0.30971906082334755  0.3881561375274175  0.7271727022714175  1.0000
  O   O2        1.0  0.8097192158757097  0.6118441961619041  0.7728269326623903  1.0000
  O   O3        1.0  0.6902804637967678  0.6118445626409609  0.2728276130746963  1.0000
  O   O4        1.0  0.19028030874428484  0.3881556651746082  0.2271726109194887  1.0000
  O   O5        1.0  0.2575587989325712  0.268473448476179  0.8270042126548776  1.0000
  O   O6        1.0  0.7575588129282808  0.731527740710476  0.6729954998549702  1.0000
  O   O7        1.0  0.7424407256872598  0.7315272546301299  0.17299542568955667  1.0000
  O   O8        1.0  0.2424407116915503  0.2684729623958333  0.3270041384894711  1.0000
  O   O9        1.0  0.04679972612128581  0.401405611834754  0.539840197857508  1.0000
  O   O10       1.0  0.546799015814301  0.5985947910497201  0.9601593504457926  1.0000
  O   O11       1.0  0.9531946636980635  0.5985925689007843  0.4601584791967427  1.0000
  O   O12       1.0  0.45319948184555875  0.4014050702869269  0.0398401931359231  1.0000
  O   O13       1.0  0.003338838210133601  0.3799687919531181  0.684603138072319  1.0000
  O   O14       1.0  0.5033379975620491  0.620031622369403  0.8153963959108524  1.0000
  O   O15       1.0  0.996662740329697  0.6200319140908519  0.31539582327077653  1.0000
  O   O16       1.0  0.4966615270582295  0.37996823602917823  0.1846038246727062  1.0000
  O   O17       1.0  0.09466430807569991  0.0056202396081417  0.3641780229918794  1.0000
  O   O18       1.0  0.5946662169864751  0.9943783239559424  0.13582333397593518  1.0000
  O   O19       1.0  0.9053352165445787  0.99437961879044  0.6358221975916792  1.0000
  O   O20       1.0  0.40533330763363307  0.005622376212436102  0.8641769813701858  1.0000
  O   O21       1.0  0.20465668799722184  0.8781621818298008  0.42950878040429075  1.0000
  O   O22       1.0  0.7046548605952125  0.12183719749472739  0.0704920305656245  1.0000
  O   O23       1.0  0.7953438635830281  0.1218385183384356  0.5704915349419935  1.0000
  O   O24       1.0  0.2953456909850872  0.878161822071853  0.929507418253877  1.0000
