data_image0
_chemical_formula_structural       V4P2H18C20N4O15
_chemical_formula_sum              "V4 P2 H18 C20 N4 O15"
_cell_length_a       8.288612675703371
_cell_length_b       9.159575604099691
_cell_length_c       9.551941277843612
_cell_angle_alpha    97.52626529029686
_cell_angle_beta     109.59570667817763
_cell_angle_gamma    98.39201276757183

_space_group_name_H-M_alt    "P 1"
_space_group_IT_number       1

loop_
  _space_group_symop_operation_xyz
  'x, y, z'

loop_
  _atom_site_type_symbol
  _atom_site_label
  _atom_site_symmetry_multiplicity
  _atom_site_fract_x
  _atom_site_fract_y
  _atom_site_fract_z
  _atom_site_occupancy
  V   V1        1.0  0.47490354581031374  0.6881242137272208  0.4820378383100206  1.0000
  V   V2        1.0  0.5250995293079725  0.3118890328519085  0.5179678876527447  1.0000
  V   V3        1.0  0.05846624119271837  0.7751818279617451  0.3771581429583719  1.0000
  V   V4        1.0  0.9415280283218835  0.22482130778090684  0.622837460817962  1.0000
  P   P1        1.0  0.7226689391222224  0.9230098130809664  0.37896071425245736  1.0000
  P   P2        1.0  0.2773284266981975  0.0769955633757462  0.6210371265594005  1.0000
  H   H1        1.0  0.26279651665813475  0.9987970680043216  0.2316833534040654  1.0000
  H   H2        1.0  0.7372051484669344  0.0012049110757673003  0.7683153459075456  1.0000
  H   H3        1.0  0.2730720548445902  0.0254609073983119  0.9750530944110025  1.0000
  H   H4        1.0  0.7269279895126604  0.9745343175869722  0.024942207226558818  1.0000
  H   H5        1.0  0.05741235614172521  0.8432375495989104  0.7466975270092604  1.0000
  H   H6        1.0  0.9425881208942856  0.15675430711524996  0.25330167956592214  1.0000
  H   H7        1.0  0.8533726299269304  0.6373474667865012  0.7816810066632199  1.0000
  H   H8        1.0  0.14662584095990644  0.3626466480533423  0.21831683446534103  1.0000
  H   H9        1.0  0.6983053374060262  0.47115022932929673  0.8339291468425499  1.0000
  H   H10       1.0  0.3016986903152771  0.5288404910750089  0.16607306626969628  1.0000
  H   H11       1.0  0.5210662308896234  0.2758306275897978  0.9111164707424138  1.0000
  H   H12       1.0  0.47894062783191066  0.7241612059010405  0.08888671636276509  1.0000
  H   H13       1.0  0.5776931467584205  0.29080527403976913  0.1901185103382446  1.0000
  H   H14       1.0  0.42231143327478554  0.7091876928668127  0.809883093423089  1.0000
  H   H15       1.0  0.8134006508423113  0.4953406124773067  0.37604826428513155  1.0000
  H   H16       1.0  0.1865983506557001  0.5046557576176054  0.6239521029285838  1.0000
  H   H17       1.0  0.5479554371348387  0.07473753041012539  0.2912419749206805  1.0000
  H   H18       1.0  0.4520380837604066  0.9252678663992882  0.7087557768929571  1.0000
  C   C1        1.0  0.17735186660328864  0.9198817710376803  0.12907796288580906  1.0000
  C   C2        1.0  0.8226412220558217  0.0801112394214485  0.870917103008736  1.0000
  C   C3        1.0  0.18017648076648388  0.9354132605282716  0.986884763315686  1.0000
  C   C4        1.0  0.8198238288963609  0.06458309208453979  0.013111801364459604  1.0000
  C   C5        1.0  0.06089517267615461  0.8339220339519996  0.8600147548144719  1.0000
  C   C6        1.0  0.9391058711388924  0.16607206342924744  0.139981752119084  1.0000
  C   C7        1.0  0.9457653630412894  0.7185403393857542  0.8796101412140658  1.0000
  C   C8        1.0  0.054237189142021684  0.281454894399296  0.12039323253671341  1.0000
  C   C9        1.0  0.9538293430393736  0.707593906334459  0.026448210213885725  1.0000
  C   C10       1.0  0.04617123916262498  0.29240357098829134  0.9735485723634766  1.0000
  C   C11       1.0  0.845142665624998  0.5878800720174836  0.0629287084599213  1.0000
  C   C12       1.0  0.15485605610027872  0.41211517628508426  0.9370724860019237  1.0000
  C   C13       1.0  0.7180211445997103  0.4741721026615905  0.9526720012026928  1.0000
  C   C14       1.0  0.2819824359756922  0.5258219918490353  0.04732839726264606  1.0000
  C   C15       1.0  0.6197514985843072  0.3652606913670128  0.996047322964067  1.0000
  C   C16       1.0  0.38025125714003155  0.6347300319314045  0.0039534669549610236  1.0000
  C   C17       1.0  0.6513674896946142  0.3724953113765678  0.14977127679695457  1.0000
  C   C18       1.0  0.34864020111155014  0.6274998904088847  0.8502304737091819  1.0000
  C   C19       1.0  0.781022036828958  0.48676271100269025  0.25466551552446504  1.0000
  C   C20       1.0  0.21897824389959203  0.5132336532805154  0.7453352297371083  1.0000
  N   N1        1.0  0.0674127644456917  0.8085837391581235  0.14838190602505819  1.0000
  N   N2        1.0  0.9325886281402235  0.1914171152120332  0.851616575389329  1.0000
  N   N3        1.0  0.876715066941756  0.5928373000689361  0.21308542795587462  1.0000
  N   N4        1.0  0.12328321487118642  0.4071613194223501  0.7869129067137165  1.0000
  O   O1        1.0  0.5000053844323062  0.5000094336643244  0.5000090559981913  1.0000
  O   O2        1.0  0.5304101559984391  0.7925673479743622  0.6506101407461172  1.0000
  O   O3        1.0  0.46959245027322544  0.20744928146387312  0.34939690600582196  1.0000
  O   O4        1.0  0.26297154357656893  0.6853144705663397  0.38275032649478646  1.0000
  O   O5        1.0  0.7370342429088126  0.31469427432591596  0.6172608877494453  1.0000
  O   O6        1.0  0.022882985942224772  0.7090918901626251  0.5147718324094299  1.0000
  O   O7        1.0  0.9771079547912294  0.29091352702298673  0.48522829874456613  1.0000
  O   O8        1.0  0.8667061951203721  0.889644474478622  0.32276593099602013  1.0000
  O   O9        1.0  0.13328759831403397  0.11036204704073069  0.677232038714834  1.0000
  O   O10       1.0  0.7773372007825827  0.0270213598332703  0.5326771921844012  1.0000
  O   O11       1.0  0.2226604303434314  0.9729851442509696  0.4673219116700338  1.0000
  O   O12       1.0  0.5986440990000972  0.9917717438187807  0.2508465725024536  1.0000
  O   O13       1.0  0.40134885511610463  0.0082314123235605  0.7491538789528107  1.0000
  O   O14       1.0  0.6111151819091064  0.7695667545502045  0.3835673761457342  1.0000
  O   O15       1.0  0.3888852585164102  0.23044087137335365  0.6164358371377078  1.0000
