data_image0
_chemical_formula_structural       H44Pb2C36O12
_chemical_formula_sum              "H44 Pb2 C36 O12"
_cell_length_a       8.047081371259544
_cell_length_b       9.974284950950544
_cell_length_c       12.834611658549415
_cell_angle_alpha    112.80354917237327
_cell_angle_beta     96.21283221448256
_cell_angle_gamma    90.04281129772254

_space_group_name_H-M_alt    "P 1"
_space_group_IT_number       1

loop_
  _space_group_symop_operation_xyz
  'x, y, z'

loop_
  _atom_site_type_symbol
  _atom_site_label
  _atom_site_symmetry_multiplicity
  _atom_site_fract_x
  _atom_site_fract_y
  _atom_site_fract_z
  _atom_site_occupancy
  H   H1        1.0  0.49968977140908066  0.17506315069856274  0.07390854217902637  1.0000
  H   H2        1.0  0.9999923436057614  0.10136511780861919  0.9266151563060914  1.0000
  H   H3        1.0  0.5003065087762478  0.8249157300327139  0.9260852396715574  1.0000
  H   H4        1.0  5.13367510306147e-07  0.8986430832014561  0.07339746748179714  1.0000
  H   H5        1.0  0.3988179358745897  0.03309841644379221  0.1797493455526293  1.0000
  H   H6        1.0  0.10078515051645807  0.8537885667121967  0.8208333740830296  1.0000
  H   H7        1.0  0.6011948892912713  0.9668847985546304  0.8202553941185754  1.0000
  H   H8        1.0  0.8991897331010534  0.14620977817288147  0.17917820483064864  1.0000
  H   H9        1.0  0.45503799006750967  0.1332689815602635  0.3913355646504825  1.0000
  H   H10       1.0  0.04457813143537951  0.7427361439023131  0.609280513254326  1.0000
  H   H11       1.0  0.5449779950479581  0.8667284377953023  0.6086666940972093  1.0000
  H   H12       1.0  0.955405987582459  0.25727202842849545  0.39073309689995733  1.0000
  H   H13       1.0  0.6142399221944146  0.369075165874186  0.4944369716173397  1.0000
  H   H14       1.0  0.8855358207131233  0.8754483832454626  0.5060647837044951  1.0000
  H   H15       1.0  0.3857687242376144  0.6309266377911767  0.5055591374702428  1.0000
  H   H16       1.0  0.11448889141924919  0.1245718655667787  0.4939527849973188  1.0000
  H   H17       1.0  0.6987202113673661  0.634546303762697  0.38533865083248736  1.0000
  H   H18       1.0  0.8012970101468182  0.2495484838812345  0.6148398505755778  1.0000
  H   H19       1.0  0.30127314090510987  0.3654489052949046  0.6146591381370782  1.0000
  H   H20       1.0  0.19872342071212049  0.7504642463311415  0.3851580097722759  1.0000
  H   H21       1.0  0.8803780763102863  0.5426370589064219  0.3981858062199704  1.0000
  H   H22       1.0  0.619502456359605  0.14495924441249033  0.602282930304952  1.0000
  H   H23       1.0  0.1196162199767485  0.45735386318408894  0.6018006083009906  1.0000
  H   H24       1.0  0.38051915989927937  0.8550512757516701  0.3977197872215399  1.0000
  H   H25       1.0  0.7384338903018914  0.5810983028948938  0.5024686142569335  1.0000
  H   H26       1.0  0.7611445821439773  0.07909221759172878  0.4978506746413273  1.0000
  H   H27       1.0  0.2615676828548175  0.41888715116324704  0.49752283658206403  1.0000
  H   H28       1.0  0.23888074891512182  0.9209172067132271  0.5021542859262877  1.0000
  H   H29       1.0  0.3102106346821998  0.49444130401212744  0.286758366206115  1.0000
  H   H30       1.0  0.1893341796461883  0.2079870702367117  0.7131691413982747  1.0000
  H   H31       1.0  0.6897861066302156  0.5055485346467847  0.7132278758075827  1.0000
  H   H32       1.0  0.8106676204667806  0.7920049968002233  0.28681187234038663  1.0000
  H   H33       1.0  0.21815759596797338  0.3476363371259481  0.31153022066720837  1.0000
  H   H34       1.0  0.28190547411713135  0.0368136549851101  0.688475134965273  1.0000
  H   H35       1.0  0.7818466171323237  0.6523524086248571  0.6884592866136072  1.0000
  H   H36       1.0  0.7181041686662724  0.963183821479248  0.31151582409287204  1.0000
  H   H37       1.0  0.1141161872348917  0.5150261522440546  0.3425951146379517  1.0000
  H   H38       1.0  0.3855487718212061  0.17355056195760446  0.6575134359307881  1.0000
  H   H39       1.0  0.8858947812674673  0.48497013754379736  0.65741115156964  1.0000
  H   H40       1.0  0.6144725877057198  0.8264544993596985  0.3424899393045705  1.0000
  H   H41       1.0  0.9942722744592276  0.4214655976194877  0.17208503005254977  1.0000
  H   H42       1.0  0.5054861244920306  0.24963044148179853  0.8279922526539636  1.0000
  H   H43       1.0  0.0057068796098747095  0.5785436679104167  0.8279262556694036  1.0000
  H   H44       1.0  0.49449644839270235  0.7503722995174728  0.17201726550359803  1.0000
  Pb  Pb1       1.0  0.2499681189966196  0.417519254241185  0.0001647607854095517  1.0000
  Pb  Pb2       1.0  0.7500004644762797  0.5824802465630015  0.9998342976236001  1.0000
  C   C1        1.0  0.6729579795491034  0.42670466860811024  0.15405419103115034  1.0000
  C   C2        1.0  0.8268706314976555  0.2727774653238555  0.846128254414779  1.0000
  C   C3        1.0  0.32702180946574794  0.5732948913417673  0.8459401535318914  1.0000
  C   C4        1.0  0.1731206655858415  0.7272275774138988  0.15386616496020603  1.0000
  C   C5        1.0  0.618946420242736  0.34802412288413365  0.22397974020430667  1.0000
  C   C6        1.0  0.8809044742834969  0.12432030276356441  0.7764110675317892  1.0000
  C   C7        1.0  0.381060374594675  0.6519656968217619  0.7760133773581541  1.0000
  C   C8        1.0  0.11909540508985832  0.8756803633537446  0.22358880484210172  1.0000
  C   C9        1.0  0.5262419730087373  0.2153407189436578  0.1663778837957395  1.0000
  C   C10       1.0  0.9734731897995558  0.0492777332673242  0.8341408261433115  1.0000
  C   C11       1.0  0.4737641229234839  0.7846349319007542  0.8336132091582653  1.0000
  C   C12       1.0  0.02653523769153311  0.9507425061096485  0.16587179421092194  1.0000
  C   C13       1.0  0.4694143577037266  0.1363392518126574  0.22530830916967653  1.0000
  C   C14       1.0  0.0302638182927168  0.9115423205945417  0.7752844519402654  1.0000
  C   C15       1.0  0.5306023219088943  0.863646153698994  0.7746965672020635  1.0000
  C   C16       1.0  0.9697160884800126  0.08845714882902199  0.22472389756590158  1.0000
  C   C17       1.0  0.5021704185822244  0.1921568782568386  0.3438196466996217  1.0000
  C   C18       1.0  0.9975391761292656  0.849029291871105  0.6567810897786257  1.0000
  C   C19       1.0  0.4978477417424613  0.8078340088787428  0.6561815411448746  1.0000
  C   C20       1.0  0.0024615882630172  0.1509865312747252  0.3432367035413079  1.0000
  C   C21       1.0  0.5923449132792484  0.3247450949120391  0.4016486177256765  1.0000
  C   C22       1.0  0.9074704277116795  0.9237468621283755  0.5988485332732623  1.0000
  C   C23       1.0  0.4076624211905013  0.6752556223706206  0.5983462966286479  1.0000
  C   C24       1.0  0.09254542723416391  0.0762483948112518  0.4011507207379097  1.0000
  C   C25       1.0  0.6539226035885477  0.4047020500202266  0.34391934228604965  1.0000
  C   C26       1.0  0.8458828817708195  0.061214218527801685  0.6564781373477827  1.0000
  C   C27       1.0  0.34607431368822006  0.5952899158499464  0.6560753508309317  1.0000
  C   C28       1.0  0.15414020211591867  0.938801793318767  0.34351933554667363  1.0000
  C   C29       1.0  0.7474852089148526  0.5481431306882315  0.4113914002892115  1.0000
  C   C30       1.0  0.7523237094822832  0.1371839867501095  0.5889353168229547  1.0000
  C   C31       1.0  0.252513023259013  0.45185105055038854  0.5885985984315312  1.0000
  C   C32       1.0  0.24770537856448271  0.8628254405059437  0.41107066597065495  1.0000
  C   C33       1.0  0.1917000913738036  0.4373361443343883  0.2836094501523617  1.0000
  C   C34       1.0  0.30797433751769177  0.15445346875123528  0.7164312696555724  1.0000
  C   C35       1.0  0.808296985175822  0.5626590928205103  0.716385470781226  1.0000
  C   C36       1.0  0.69202674620945  0.8455472352308604  0.2835632377427543  1.0000
  O   O1        1.0  0.5767500560346193  0.4148157326663409  0.06432503023913935  1.0000
  O   O2        1.0  0.9229198878846034  0.35068900398425024  0.9358648147929713  1.0000
  O   O3        1.0  0.42321723803713945  0.5851837956531655  0.9356692784642957  1.0000
  O   O4        1.0  0.0770564161044334  0.6493387925218315  0.06414725836531686  1.0000
  O   O5        1.0  0.8109532675183431  0.5019333956781508  0.18283521120761745  1.0000
  O   O6        1.0  0.6891159553331078  0.31915576256947276  0.8169789870474273  1.0000
  O   O7        1.0  0.18901836536085878  0.4980781319795185  0.817160695698547  1.0000
  O   O8        1.0  0.3108797830858165  0.6808384083196799  0.1830116269433119  1.0000
  O   O9        1.0  0.1077048188978367  0.3811022279265472  0.17011935658240412  1.0000
  O   O10       1.0  0.3917245074545619  0.2117652425811443  0.8299682777318151  1.0000
  O   O11       1.0  0.8922726748875648  0.6189005627831463  0.829880499381609  1.0000
  O   O12       1.0  0.6082541812076981  0.7882364620368346  0.1700313243337347  1.0000
