data_image0
_chemical_formula_structural       Cu12Si3H72C132N24
_chemical_formula_sum              "Cu12 Si3 H72 C132 N24"
_cell_length_a       31.921686573569936
_cell_length_b       31.9571084677886
_cell_length_c       32.87913589597212
_cell_angle_alpha    89.97139155089967
_cell_angle_beta     90.00178722449756
_cell_angle_gamma    89.94018584090568

_space_group_name_H-M_alt    "P 1"
_space_group_IT_number       1

loop_
  _space_group_symop_operation_xyz
  'x, y, z'

loop_
  _atom_site_type_symbol
  _atom_site_label
  _atom_site_symmetry_multiplicity
  _atom_site_fract_x
  _atom_site_fract_y
  _atom_site_fract_z
  _atom_site_occupancy
  Cu  Cu1       1.0  0.7678454776177759  0.7677037901529147  0.8338753032952508  1.0000
  Cu  Cu2       1.0  0.8408008077605018  0.7714475575319426  0.7688202475713479  1.0000
  Cu  Cu3       1.0  0.7697629027876263  0.8421506153381628  0.7704380165471105  1.0000
  Cu  Cu4       1.0  0.7678470741212209  0.2324906508624096  0.16446212312121836  1.0000
  Cu  Cu5       1.0  0.8414832320966212  0.2303916343821939  0.22884615299143715  1.0000
  Cu  Cu6       1.0  0.7704590856180147  0.1596374212613441  0.22971683899812934  1.0000
  Cu  Cu7       1.0  0.23284870133069555  0.7667454725463329  0.16809276742396403  1.0000
  Cu  Cu8       1.0  0.15811455251574816  0.7699369916443645  0.23146913466600688  1.0000
  Cu  Cu9       1.0  0.22902487032594374  0.84043905340846  0.23239160442390977  1.0000
  Cu  Cu10      1.0  0.23354397865327312  0.2314167028027896  0.8331427429988094  1.0000
  Cu  Cu11      1.0  0.15959587682888818  0.229040578749121  0.7688064034004468  1.0000
  Cu  Cu12      1.0  0.2300578969038654  0.157633818381953  0.7693052107041183  1.0000
  Si  Si1       1.0  0.9987685043556952  0.0009475645125576  0.4999890555085855  1.0000
  Si  Si2       1.0  0.0012053580182538003  0.5003903790323037  0.9986100820042408  1.0000
  Si  Si3       1.0  0.49953975588262994  0.9989039797208363  0.0015881718204227  1.0000
  H   H1        1.0  0.7963809368535095  0.689984888959927  0.8866794527798303  1.0000
  H   H2        1.0  0.9003597204174485  0.6985982413447404  0.8022978157606601  1.0000
  H   H3        1.0  0.6964169321470949  0.8998691872869031  0.8059424532606769  1.0000
  H   H4        1.0  0.6915281913301854  0.794937361728536  0.8893700405599742  1.0000
  H   H5        1.0  0.894499622568482  0.8019309715138688  0.6932399061352894  1.0000
  H   H6        1.0  0.7989238761282708  0.8983376437400209  0.6961386663345335  1.0000
  H   H7        1.0  0.7956984659047137  0.3088064158016762  0.10943091096712719  1.0000
  H   H8        1.0  0.8997538966681449  0.30363796912550367  0.1939847536511152  1.0000
  H   H9        1.0  0.6970417441437677  0.10093695666321878  0.1960218851138649  1.0000
  H   H10       1.0  0.6908348923699279  0.2040938506699561  0.11060163344337329  1.0000
  H   H11       1.0  0.8966506663993813  0.2009400156304935  0.30391373324991366  1.0000
  H   H12       1.0  0.8001904227575027  0.1056001287972066  0.30532157396437026  1.0000
  H   H13       1.0  0.20537878461771447  0.6897893463248082  0.11370404697814958  1.0000
  H   H14       1.0  0.0995869220709267  0.6974871285561407  0.19601322556214731  1.0000
  H   H15       1.0  0.301878905979315  0.8994021801272609  0.198407269933476  1.0000
  H   H16       1.0  0.3107565726978623  0.7948053322096128  0.11498382477755337  1.0000
  H   H17       1.0  0.1021443738806269  0.7998402899236724  0.30579809502791017  1.0000
  H   H18       1.0  0.19860583947467356  0.8951844966989527  0.30734714109875927  1.0000
  H   H19       1.0  0.20585539802691247  0.3084088325139901  0.887326784265184  1.0000
  H   H20       1.0  0.10155086683329272  0.3026921166768162  0.8031236305548788  1.0000
  H   H21       1.0  0.30249375138122764  0.09830292550525141  0.8040400870460329  1.0000
  H   H22       1.0  0.3110775528640062  0.20334099847723056  0.8869575027519188  1.0000
  H   H23       1.0  0.10474991213423121  0.19926152440211106  0.6936100288310596  1.0000
  H   H24       1.0  0.1999606797297346  0.10247402751789278  0.694865623189301  1.0000
  H   H25       1.0  0.9813219031414988  0.6158407522989506  0.8979150642891225  1.0000
  H   H26       1.0  0.0223177557745018  0.5661665110135914  0.9395840448141397  1.0000
  H   H27       1.0  0.907581683198252  0.513758470857347  0.9868342160944434  1.0000
  H   H28       1.0  0.8667245406759536  0.5640934538086028  0.9455317189208896  1.0000
  H   H29       1.0  0.8966592261105291  0.3854449610575655  0.018400976808123897  1.0000
  H   H30       1.0  0.9390954056781524  0.43505536648763143  0.97817877713112  1.0000
  H   H31       1.0  0.9891780682009569  0.48731013136077916  0.08901395846430657  1.0000
  H   H32       1.0  0.9470982985587784  0.4370296836813097  0.12914202917821163  1.0000
  H   H33       1.0  0.1354083569252609  0.5640488251330353  0.05229885347440438  1.0000
  H   H34       1.0  0.0948309162202037  0.5137553752981532  0.0108225022050163  1.0000
  H   H35       1.0  0.9797811134079383  0.5662523981329672  0.057382403044549286  1.0000
  H   H36       1.0  0.0204545071063791  0.6159210951690568  0.09920780040435058  1.0000
  H   H37       1.0  0.10517206166365163  0.3849094190086221  0.9779555621064516  1.0000
  H   H38       1.0  0.0632316154032182  0.43470141953310554  0.01853602869393  1.0000
  H   H39       1.0  0.012781612721866502  0.48769447525025805  0.9081018572576196  1.0000
  H   H40       1.0  0.0543605089143426  0.43727014551478766  0.8676215137826233  1.0000
  H   H41       1.0  0.5629664864938491  0.9458837670663556  0.870888800236834  1.0000
  H   H42       1.0  0.5123335093425752  0.9874844624306649  0.9112912658375121  1.0000
  H   H43       1.0  0.565394085335349  0.9374396358658217  0.021867193092653288  1.0000
  H   H44       1.0  0.6153693570888024  0.8954546029681725  0.9813682844362859  1.0000
  H   H45       1.0  0.38420350042765966  0.0183357728698184  0.9007321529536652  1.0000
  H   H46       1.0  0.43368340326303223  0.9775137390862342  0.9428560453618642  1.0000
  H   H47       1.0  0.4864140442310332  0.09225671785959831  0.9893749854680537  1.0000
  H   H48       1.0  0.4362895684661155  0.13298117376427848  0.9476257694754008  1.0000
  H   H49       1.0  0.5632386070977163  0.05253131243470221  0.1319340637518849  1.0000
  H   H50       1.0  0.5126602530050379  0.010633579040593599  0.09185590033981578  1.0000
  H   H51       1.0  0.5651735517184449  0.060280489178523994  0.9809268068460635  1.0000
  H   H52       1.0  0.6150945377444758  0.10254745866503609  0.021098465689234996  1.0000
  H   H53       1.0  0.43665977016522817  0.864765659473626  0.055474786746763996  1.0000
  H   H54       1.0  0.4867871184988886  0.9055661302374532  0.013860776677404396  1.0000
  H   H55       1.0  0.4337305019180704  0.020250263397443305  0.06036466870833829  1.0000
  H   H56       1.0  0.38421505848571513  0.9793773066064875  0.10234261127417447  1.0000
  H   H57       1.0  0.8947151300909014  0.982239160498743  0.6123094601703298  1.0000
  H   H58       1.0  0.9366903811813644  0.022714836022942105  0.5630304288571891  1.0000
  H   H59       1.0  0.986249867283455  0.9076905520764741  0.5136644401547485  1.0000
  H   H60       1.0  0.944603453288899  0.8673568815317907  0.5635618070195249  1.0000
  H   H61       1.0  0.0179181913448758  0.8969208971294619  0.38787071562641967  1.0000
  H   H62       1.0  0.9772911952761375  0.9390797541449132  0.4368988699701361  1.0000
  H   H63       1.0  0.09234550991144633  0.988285380135345  0.4865919633409134  1.0000
  H   H64       1.0  0.13281119210056863  0.9464179011330245  0.43697721471868783  1.0000
  H   H65       1.0  0.1028063088098605  0.0191795027844321  0.6124095903937955  1.0000
  H   H66       1.0  0.06057683047770011  0.978918509332921  0.5632089697383831  1.0000
  H   H67       1.0  0.0116693366748066  0.09417102514883881  0.5136566630622423  1.0000
  H   H68       1.0  0.0536255158556997  0.1343095981701339  0.5634308691978588  1.0000
  H   H69       1.0  0.9800661240364337  0.1046646432403548  0.3874570574872535  1.0000
  H   H70       1.0  0.020438968134278906  0.06271148046192111  0.4368191081147471  1.0000
  H   H71       1.0  0.9051901483247279  0.013670239988904598  0.48624102761309007  1.0000
  H   H72       1.0  0.8649322146645914  0.05527426023910921  0.4362575630792945  1.0000
  C   C1        1.0  0.8180929131035699  0.6974772758657721  0.8623771971097225  1.0000
  C   C2        1.0  0.8576151725635625  0.6799161297465729  0.8538124972887713  1.0000
  C   C3        1.0  0.8714089857238605  0.7020670007948129  0.8192331680942215  1.0000
  C   C4        1.0  0.7006789639211279  0.8707429910642405  0.8223814655262129  1.0000
  C   C5        1.0  0.6797367728172007  0.8562717142217693  0.857394377645768  1.0000
  C   C6        1.0  0.6982591727350355  0.8170881409027261  0.8652467126909968  1.0000
  C   C7        1.0  0.8677911799575571  0.8219201486649511  0.6995014740191363  1.0000
  C   C8        1.0  0.8554596398440425  0.8592693833296893  0.6800511968829426  1.0000
  C   C9        1.0  0.8189498422220043  0.871378198548868  0.7011088999880426  1.0000
  C   C10       1.0  0.8176414369694528  0.30202645902640757  0.1337520720177992  1.0000
  C   C11       1.0  0.8567873540938253  0.3204793432243918  0.14200580883004216  1.0000
  C   C12       1.0  0.8708299051186332  0.29945102325287815  0.17717462595096825  1.0000
  C   C13       1.0  0.7010083591356492  0.1297336747957303  0.17898105549580376  1.0000
  C   C14       1.0  0.6796226786416142  0.1434315699009332  0.14390967052820255  1.0000
  C   C15       1.0  0.6979151633479576  0.18247180075354658  0.13509258257062834  1.0000
  C   C16       1.0  0.869739778278401  0.1810015135102887  0.2985480770974859  1.0000
  C   C17       1.0  0.8573877803554952  0.14445183896648223  0.31934623253368943  1.0000
  C   C18       1.0  0.820263814808982  0.1322782777819711  0.299389242467022  1.0000
  C   C19       1.0  0.18311628836548274  0.6970282740807221  0.1376073196198888  1.0000
  C   C20       1.0  0.14342101781728903  0.67939892553828  0.14513494977265395  1.0000
  C   C21       1.0  0.12886361919919415  0.7011604712371239  0.17966262227247395  1.0000
  C   C22       1.0  0.29843848405837287  0.8703310716353272  0.18173421652750923  1.0000
  C   C23       1.0  0.32063147358600474  0.8562427599856549  0.1472943251363503  1.0000
  C   C24       1.0  0.3031371686647476  0.8166855389693028  0.13908003665157048  1.0000
  C   C25       1.0  0.1291357710753971  0.8197097711936863  0.300555862116333  1.0000
  C   C26       1.0  0.1412860774819364  0.856422179269643  0.3211415766667614  1.0000
  C   C27       1.0  0.1786084383745887  0.868447473915019  0.301452260643252  1.0000
  C   C28       1.0  0.18385321529235912  0.30145476980516156  0.8631288338526912  1.0000
  C   C29       1.0  0.14468365902001074  0.3199157516656612  0.8548063389303306  1.0000
  C   C30       1.0  0.1305339236530827  0.2985938828008655  0.819886485681607  1.0000
  C   C31       1.0  0.2990073837503716  0.1274742246216576  0.820554107411631  1.0000
  C   C32       1.0  0.3210052327710501  0.1416599460842747  0.8550623709603966  1.0000
  C   C33       1.0  0.3035738407180304  0.18135773134447666  0.8629334784044428  1.0000
  C   C34       1.0  0.13147786764032787  0.17914892342670194  0.6994392137985057  1.0000
  C   C35       1.0  0.1434620734472745  0.14192332375813516  0.6795842328253128  1.0000
  C   C36       1.0  0.18012297561222823  0.12948962405330627  0.7002049077096897  1.0000
  C   C37       1.0  0.9211475952593489  0.5932348572211412  0.9186377807132613  1.0000
  C   C38       1.0  0.9653704679513666  0.593165523983366  0.9172351494238169  1.0000
  C   C39       1.0  0.9881162350962568  0.5649642010447735  0.9406468625179655  1.0000
  C   C40       1.0  0.8789708281984832  0.6486784179647033  0.875607052095688  1.0000
  C   C41       1.0  0.9240802220305255  0.5358416967226275  0.9672119863436988  1.0000
  C   C42       1.0  0.9008482240650437  0.5640955676810648  0.9441053143138232  1.0000
  C   C43       1.0  0.8980439067140296  0.6225041181682299  0.8953492558923981  1.0000
  C   C44       1.0  0.9681060368700257  0.5355624091735863  0.965992643771912  1.0000
  C   C45       1.0  0.9189981254931328  0.4077117895196522  0.07663368822918669  1.0000
  C   C46       1.0  0.9168050623997746  0.4080117863761927  0.033724585296397394  1.0000
  C   C47       1.0  0.9406988953902912  0.43618178690912396  0.011369066049645899  1.0000
  C   C48       1.0  0.8775281220439909  0.3517021707544146  0.11961225531958056  1.0000
  C   C49       1.0  0.9688514861076102  0.4651705225838825  0.07324837373062817  1.0000
  C   C50       1.0  0.9452998010895969  0.43698671738876277  0.0960372895070591  1.0000
  C   C51       1.0  0.8961627506920634  0.37801314553134097  0.09968330655652118  1.0000
  C   C52       1.0  0.9672773124961369  0.4653449892654535  0.0305346020980224  1.0000
  C   C53       1.0  0.08081534254955612  0.5932583526850338  0.0788998819332889  1.0000
  C   C54       1.0  0.1012742546402876  0.5640942006836555  0.05354820564172509  1.0000
  C   C55       1.0  0.0781902819693769  0.5358375741412472  0.030350846151726788  1.0000
  C   C56       1.0  0.12249100272715203  0.6484436587451513  0.1226216858293725  1.0000
  C   C57       1.0  0.013989400745849402  0.565000566452696  0.0565346105829505  1.0000
  C   C58       1.0  0.036560952308825306  0.5932161630898422  0.0800194533924667  1.0000
  C   C59       1.0  0.10369915850248652  0.622456634686074  0.10244377123358817  1.0000
  C   C60       1.0  0.0341680404282485  0.5355397473264889  0.03134349236945869  1.0000
  C   C61       1.0  0.08266748560880191  0.4075913590413762  0.9199084050243014  1.0000
  C   C62       1.0  0.08508522423228733  0.4077091713999295  0.9628028376640427  1.0000
  C   C63       1.0  0.06147014539324401  0.4359756783766003  0.9853594865940917  1.0000
  C   C64       1.0  0.1239685689987979  0.3513572291337468  0.8769780558758808  1.0000
  C   C65       1.0  0.0331143893258528  0.4653746828898236  0.9237027638745726  1.0000
  C   C66       1.0  0.0563798360840266  0.43709663269842036  0.9007148698291372  1.0000
  C   C67       1.0  0.1053584990102649  0.37783076949003913  0.8967554628377881  1.0000
  C   C68       1.0  0.0349745841713656  0.46542622727184835  0.9664102393917486  1.0000
  C   C69       1.0  0.5925356780163257  0.9177991163359991  0.9233193106772573  1.0000
  C   C70       1.0  0.5630380845512093  0.9439582607611784  0.9039844009451483  1.0000
  C   C71       1.0  0.534676009441462  0.9671735883198664  0.926887572544288  1.0000
  C   C72       1.0  0.6485354645841355  0.8767423944270263  0.8800050798009804  1.0000
  C   C73       1.0  0.5641284267498393  0.9390128772914536  0.9886806290903039  1.0000
  C   C74       1.0  0.5924838127348127  0.9154450609519884  0.9662093437885273  1.0000
  C   C75       1.0  0.622239275729811  0.8951764302625805  0.9001263024304363  1.0000
  C   C76       1.0  0.5346081317668664  0.9652969595291837  0.9695682461935886  1.0000
  C   C77       1.0  0.4070049502557964  0.0785064930211377  0.9210943444649897  1.0000
  C   C78       1.0  0.4068888172539503  0.0343273727078213  0.9200063533447389  1.0000
  C   C79       1.0  0.434964575779297  0.0116808116936795  0.9436507709790687  1.0000
  C   C80       1.0  0.3519703764032586  0.12045282610724677  0.8773634804738746  1.0000
  C   C81       1.0  0.4642578585949337  0.07576199287017718  0.9698320204888587  1.0000
  C   C82       1.0  0.43614138283009407  0.09889055808164932  0.9464852494457145  1.0000
  C   C83       1.0  0.37793378059596716  0.10150981254538749  0.8974858722530853  1.0000
  C   C84       1.0  0.4643685721786356  0.031796729900641196  0.9689062433345013  1.0000
  C   C85       1.0  0.5925211255829268  0.08046699526018132  0.0792975087648529  1.0000
  C   C86       1.0  0.563218903255283  0.05430349966569992  0.09882885997633648  1.0000
  C   C87       1.0  0.53487682930561  0.030914524929819703  0.07610511567342827  1.0000
  C   C88       1.0  0.6483534899504378  0.12239017197785532  0.1219340933087807  1.0000
  C   C89       1.0  0.5640256189497848  0.0588454666403422  0.014122827849966796  1.0000
  C   C90       1.0  0.5923515355602902  0.0825697079697392  0.03640284054177559  1.0000
  C   C91       1.0  0.6221309498889127  0.1034349308303817  0.10223231172270178  1.0000
  C   C92       1.0  0.5346771471937333  0.03257984915622811  0.0334152129161183  1.0000
  C   C93       1.0  0.4072075307334303  0.9192271621142255  0.08199401404315407  1.0000
  C   C94       1.0  0.4364640014198927  0.8988518180645217  0.056681331060353585  1.0000
  C   C95       1.0  0.4645791607166885  0.9220200640514307  0.033414712776917085  1.0000
  C   C96       1.0  0.3518367250115019  0.8773853533685314  0.1253158010945654  1.0000
  C   C97       1.0  0.4350926777065355  0.9860805410461069  0.059575865971851286  1.0000
  C   C98       1.0  0.40701038456538197  0.9634190377408272  0.08312976400603127  1.0000
  C   C99       1.0  0.37799035155180866  0.8962642373858575  0.10541533166676939  1.0000
  C   C100      1.0  0.46459032731252853  0.9659734870641331  0.034376685866604396  1.0000
  C   C101      1.0  0.9167642010347024  0.9219339424895948  0.591441272558981  1.0000
  C   C102      1.0  0.9146011626017766  0.9660749114152479  0.5903964728765343  1.0000
  C   C103      1.0  0.9382442800244492  0.9885546273690906  0.56241253519282  1.0000
  C   C104      1.0  0.8757432494796904  0.8803236518708459  0.6481005292469744  1.0000
  C   C105      1.0  0.9660833367221218  0.9243739456398642  0.5350344018434965  1.0000
  C   C106      1.0  0.9427525583160447  0.901420884544912  0.5630412368235795  1.0000
  C   C107      1.0  0.8942156230146169  0.8991282713685749  0.6212110562478229  1.0000
  C   C108      1.0  0.9645821667072954  0.9683408788822235  0.5341457382049909  1.0000
  C   C109      1.0  0.07826865441404608  0.9187507228028835  0.4089207468457658  1.0000
  C   C110      1.0  0.034066015735980705  0.9167796079199776  0.4097846790375569  1.0000
  C   C111      1.0  0.011491001620527203  0.9405215406952294  0.4376226926359052  1.0000
  C   C112      1.0  0.1201850573427095  0.8771264019279388  0.35283624585391477  1.0000
  C   C113      1.0  0.075661435704049  0.9681848321373464  0.4651998496493589  1.0000
  C   C114      1.0  0.0987003375568634  0.9447193388784073  0.4373436237298803  1.0000
  C   C115      1.0  0.10122662708795362  0.895943863579184  0.3794154937366655  1.0000
  C   C116      1.0  0.031628366545106694  0.9668336039822095  0.465919374524013  1.0000
  C   C117      1.0  0.08116304917608372  0.07961662371031511  0.5914094427258192  1.0000
  C   C118      1.0  0.08300796524940068  0.0354484756514211  0.5904700482484911  1.0000
  C   C119      1.0  0.059222965199339214  0.013092025608798998  0.5625336181606072  1.0000
  C   C120      1.0  0.12276155477578503  0.12110484958592588  0.6477410694176058  1.0000
  C   C121      1.0  0.031751818461700096  0.07739216885539689  0.5350449114851655  1.0000
  C   C122      1.0  0.0552561050803817  0.1002348153203059  0.5629885414917482  1.0000
  C   C123      1.0  0.10399069880207183  0.10233395122527612  0.6210348364448277  1.0000
  C   C124      1.0  0.032990932569099116  0.0334238417472932  0.5342203477431723  1.0000
  C   C125      1.0  0.9195808898999758  0.0828888755936887  0.40828917454680175  1.0000
  C   C126      1.0  0.9637905596682471  0.08489833159229218  0.40938420197751657  1.0000
  C   C127      1.0  0.9862346064721736  0.061259276410439205  0.4374268383649777  1.0000
  C   C128      1.0  0.8781528754927735  0.1240188439988472  0.3514553425652948  1.0000
  C   C129      1.0  0.9219801026630139  0.0337038418649129  0.4648501306274823  1.0000
  C   C130      1.0  0.8990352537974361  0.0570238640715104  0.436762787838802  1.0000
  C   C131      1.0  0.8968382399929171  0.10551044161170611  0.37844964059797787  1.0000
  C   C132      1.0  0.9659995444490195  0.0350576039173589  0.46577115859228246  1.0000
  N   N1        1.0  0.8423790520623415  0.7305055598723271  0.8083660659017651  1.0000
  N   N2        1.0  0.8093843622971165  0.7276955267277644  0.8351595518886723  1.0000
  N   N3        1.0  0.7278457917269991  0.8091187360885075  0.8371573810224076  1.0000
  N   N4        1.0  0.7294205652285939  0.8423913050758003  0.8106265634970595  1.0000
  N   N5        1.0  0.8105360708954876  0.8435061200222335  0.730682987549734  1.0000
  N   N6        1.0  0.8408512342844718  0.812890899561907  0.7297361944959915  1.0000
  N   N7        1.0  0.8423162728829326  0.27076519053784415  0.18862000385986016  1.0000
  N   N8        1.0  0.8093253655212609  0.2724364594007013  0.161720846685121  1.0000
  N   N9        1.0  0.7277963083305823  0.1910758583846643  0.16269108270061847  1.0000
  N   N10       1.0  0.7297773478792919  0.15837318707682613  0.18986688680197256  1.0000
  N   N11       1.0  0.8115965121930203  0.15932481711100624  0.2691408056596742  1.0000
  N   N12       1.0  0.8422352461019502  0.18957685136165744  0.268648305535926  1.0000
  N   N13       1.0  0.15761878524531883  0.7294285952670235  0.1914542134500152  1.0000
  N   N14       1.0  0.1912143540854885  0.7269028521835069  0.16532165334354687  1.0000
  N   N15       1.0  0.27289497169945076  0.8082208099087679  0.16635666811785643  1.0000
  N   N16       1.0  0.27002409025090657  0.8414382959129086  0.1928500751142579  1.0000
  N   N17       1.0  0.18758629728048254  0.8411552554762737  0.2715268595423267  1.0000
  N   N18       1.0  0.15695153287936145  0.8109065704518273  0.2710083809667623  1.0000
  N   N19       1.0  0.15899214443334128  0.2697210007978299  0.8086609591629565  1.0000
  N   N20       1.0  0.19207043189112488  0.27155222454010186  0.8354478909035661  1.0000
  N   N21       1.0  0.2735538473663653  0.1898196824311071  0.8354056764771938  1.0000
  N   N22       1.0  0.2707811208452284  0.15646226625710113  0.8090787999082776  1.0000
  N   N23       1.0  0.18895047252811278  0.15706869755467784  0.7298966010140973  1.0000
  N   N24       1.0  0.1587621791587211  0.1878204664718766  0.7294813100171496  1.0000
