data_image0
_chemical_formula_structural       Zr6H28C96Br24O32
_chemical_formula_sum              "Zr6 H28 C96 Br24 O32"
_cell_length_a       21.681092550001075
_cell_length_b       21.680788646478902
_cell_length_c       21.680893438157735
_cell_angle_alpha    119.99938383208851
_cell_angle_beta     90.00111126580256
_cell_angle_gamma    119.99938146477763

_space_group_name_H-M_alt    "P 1"
_space_group_IT_number       1

loop_
  _space_group_symop_operation_xyz
  'x, y, z'

loop_
  _atom_site_type_symbol
  _atom_site_label
  _atom_site_symmetry_multiplicity
  _atom_site_fract_x
  _atom_site_fract_y
  _atom_site_fract_z
  _atom_site_occupancy
  Zr  Zr1       1.0  0.08153359931660023  0.1631065351807663  0.08154352627954609  1.0000
  Zr  Zr2       1.0  0.9183746385985145  0.8367875096926837  0.9183669334231934  1.0000
  Zr  Zr3       1.0  0.9183751625521238  0.999937104192824  0.08152440037330405  1.0000
  Zr  Zr4       1.0  0.0815468774696199  0.9999583812538757  0.9183901265562324  1.0000
  Zr  Zr5       1.0  0.08152331507396576  0.9999283188180285  0.08152955339105712  1.0000
  Zr  Zr6       1.0  0.9183757092851649  0.9999390318863987  0.918370722575652  1.0000
  H   H1        1.0  0.06412560185831498  0.12829299969413904  0.19250202469900293  1.0000
  H   H2        1.0  0.06414616411426995  0.8715882179285118  0.9357794717159819  1.0000
  H   H3        1.0  0.807415658173042  0.8715780226557683  0.9357744424408736  1.0000
  H   H4        1.0  0.06415597408749087  0.12831518174827736  0.935780537773084  1.0000
  H   H5        1.0  0.2839955470272598  0.381885345557599  0.281413544684014  1.0000
  H   H6        1.0  0.28399140064494327  0.183417002469298  0.28134585994516204  1.0000
  H   H7        1.0  0.7184269613670081  0.8163660643714862  0.7158508490912892  1.0000
  H   H8        1.0  0.7184399424026323  0.6179512287398835  0.715886078028305  1.0000
  H   H9        1.0  0.09785862263110805  0.38196055998405853  0.10050572893862145  1.0000
  H   H10       1.0  0.8994111369230354  0.1834709555391854  0.9020892405631428  1.0000
  H   H11       1.0  0.09781892209940686  0.8163721834633649  0.1005352715739321  1.0000
  H   H12       1.0  0.8994168299806589  0.6179798952079524  0.9020806891132765  1.0000
  H   H13       1.0  0.2840779549948849  0.002642819547908513  0.10053856554280571  1.0000
  H   H14       1.0  0.2840932642820275  0.0027057228510471896  0.9021440618028933  1.0000
  H   H15       1.0  0.7185592086009932  0.0026755629410361026  0.10053208862729683  1.0000
  H   H16       1.0  0.7185132738349082  0.00262869295423231  0.9020818809744495  1.0000
  H   H17       1.0  0.8994400850017213  0.9973153269524031  0.7158590791848097  1.0000
  H   H18       1.0  0.09783561745948799  0.9972537464468232  0.7158462062945005  1.0000
  H   H19       1.0  0.8993771119420587  0.9972097899700215  0.2813652745325469  1.0000
  H   H20       1.0  0.09784546927306081  0.9972875002715469  0.2813901660946954  1.0000
  H   H21       1.0  0.8994260603028293  0.18353050747976588  0.28141804558904937  1.0000
  H   H22       1.0  0.09782425444496572  0.38191512429686714  0.2813413067426821  1.0000
  H   H23       1.0  0.899413490239638  0.6179936999848505  0.7158312946588409  1.0000
  H   H24       1.0  0.09786810871231204  0.8164106044154593  0.7158432650965949  1.0000
  H   H25       1.0  0.28410615005422807  0.3819418477172931  0.10060346639860272  1.0000
  H   H26       1.0  0.2840889315129402  0.18351842175160013  0.9021484119817628  1.0000
  H   H27       1.0  0.7185516720489459  0.8163866713664659  0.10054148344183016  1.0000
  H   H28       1.0  0.7185853837211339  0.6179484861033089  0.9021511974374192  1.0000
  C   C1        1.0  0.20914194176469186  0.20716523350085939  0.20524218837195454  1.0000
  C   C2        1.0  0.9979965062356868  0.7926726948596753  0.0019088582983428865  1.0000
  C   C3        1.0  0.7946016978041538  0.7926758114788439  0.790743958492939  1.0000
  C   C4        1.0  0.998006337129418  0.20720822690761762  0.0019212544821059529  1.0000
  C   C5        1.0  0.9979915547711897  0.20720357453271282  0.2052540541230741  1.0000
  C   C6        1.0  0.20919550790943478  0.20722062233714666  0.0019656969163292888  1.0000
  C   C7        1.0  0.9980161727128944  0.7927151294484104  0.790732002196023  1.0000
  C   C8        1.0  0.7946733456536351  0.7926762667298705  0.0019258772221420089  1.0000
  C   C9        1.0  0.9979810293733635  0.9960001132411236  0.20524658515056857  1.0000
  C   C10       1.0  0.7946594994824281  0.003880189904578012  0.0019177377683518735  1.0000
  C   C11       1.0  0.9980119888170548  0.9960324409218302  0.7907380530920278  1.0000
  C   C12       1.0  0.2091924140544918  0.0038931636039620594  0.0019496013639894887  1.0000
  C   C13       1.0  0.2775495197885293  0.2759755121151742  0.27447412667653026  1.0000
  C   C14       1.0  0.3092216526982057  0.36412480840891703  0.3071260564966707  1.0000
  C   C15       1.0  0.3723530305752263  0.42781499754737945  0.3719311492631405  1.0000
  C   C16       1.0  0.40663414172278317  0.406727039246796  0.4069387696311608  1.0000
  C   C17       1.0  0.3723507816126456  0.31634631864277196  0.3719035573337307  1.0000
  C   C18       1.0  0.3092225637869248  0.2521234018039351  0.30709289003033285  1.0000
  C   C19       1.0  0.471066608607643  0.4716745128665849  0.4723862573875904  1.0000
  C   C20       1.0  0.527431583574611  0.5281094431085692  0.5288137353990408  1.0000
  C   C21       1.0  0.5928441276318278  0.5930563492913874  0.5932760035025595  1.0000
  C   C22       1.0  0.6278612063678325  0.6834240739084051  0.6275357935996836  1.0000
  C   C23       1.0  0.692686335534077  0.7476680243888578  0.6906542603279744  1.0000
  C   C24       1.0  0.7253406709815877  0.7238467131338026  0.7223388295849346  1.0000
  C   C25       1.0  0.6926936228288127  0.6356924490369166  0.6906699019952284  1.0000
  C   C26       1.0  0.6278646812756037  0.5719803037452565  0.6275554350497571  1.0000
  C   C27       1.0  0.9984081649323785  0.2760379265494351  0.0015218996401600304  1.0000
  C   C28       1.0  0.05488298147098192  0.36419687621758356  0.05701868598529097  1.0000
  C   C29       1.0  0.05544245698862242  0.42788559737026344  0.05589261667324051  1.0000
  C   C30       1.0  6.0325184328625134e-05  0.4067682559718762  0.9997881992472272  1.0000
  C   C31       1.0  0.9439625221084356  0.31638890348449406  0.9444499262013437  1.0000
  C   C32       1.0  0.9428808391818176  0.25217760642941983  0.9450459706049086  1.0000
  C   C33       1.0  0.0005408602748884743  0.47168343740563756  0.9992643609214653  1.0000
  C   C34       1.0  0.0005646363975414031  0.5281022492756191  0.9992772489773143  1.0000
  C   C35       1.0  7.72297638035283e-05  0.5930567444075051  0.9998024216580673  1.0000
  C   C36       1.0  0.05543689037367024  0.6834249385286597  0.055911990945858726  1.0000
  C   C37       1.0  0.05486397069355332  0.7476719327635025  0.05703431008590326  1.0000
  C   C38       1.0  0.9983967979911625  0.7238484440296773  0.0015200148251322885  1.0000
  C   C39       1.0  0.9428852564298892  0.6356997065209667  0.9450388972919367  1.0000
  C   C40       1.0  0.9439815205218807  0.5719840518174735  0.9444509682182839  1.0000
  C   C41       1.0  0.27763998058335904  0.003134566156859432  0.0015720054030551737  1.0000
  C   C42       1.0  0.3093247546308149  0.0021779497124327905  0.0570843224544149  1.0000
  C   C43       1.0  0.3724792703496859  0.000546045815255482  0.05600015662552947  1.0000
  C   C44       1.0  0.40677257003030587  0.9998567295321764  0.9999236526967508  1.0000
  C   C45       1.0  0.37248193939989704  0.0005731440585135586  0.9445558384237457  1.0000
  C   C46       1.0  0.3093277088143649  0.0022050217273699405  0.9451126409739457  1.0000
  C   C47       1.0  0.47121666158659525  0.9988829631808753  0.9994330412216782  1.0000
  C   C48       1.0  0.5276131745601232  0.9988635266439231  0.9994339588999067  1.0000
  C   C49       1.0  0.5930240553926823  0.9998209456641902  0.9999077351155207  1.0000
  C   C50       1.0  0.6280384011117307  0.0005440363499645537  0.055991618988137815  1.0000
  C   C51       1.0  0.6928233804135643  0.002173080745237136  0.05706171415014431  1.0000
  C   C52       1.0  0.7254459806184669  0.003111642893891432  0.0015354528499072434  1.0000
  C   C53       1.0  0.6927932038125134  0.002142498883259289  0.9450629006995681  1.0000
  C   C54       1.0  0.6279993666757662  0.0004968763972143959  0.9445134418573247  1.0000
  C   C55       1.0  0.9984089088278623  0.9968283379163764  0.7223058730242825  1.0000
  C   C56       1.0  0.9429122226494258  0.9978128976781805  0.6906316732068731  1.0000
  C   C57       1.0  0.944020995896729  0.9994932054519695  0.6275010161475548  1.0000
  C   C58       1.0  9.890647040581832e-05  0.00018860503264057178  0.5932103091841441  1.0000
  C   C59       1.0  0.055449671063598674  0.9994422382150103  0.6274865392255363  1.0000
  C   C60       1.0  0.05487270508635328  0.9977688180595052  0.6906199759577802  1.0000
  C   C61       1.0  0.0005988360402468444  0.001176568531249601  0.5287711526225038  1.0000
  C   C62       1.0  0.0005782428357717723  0.001153932595592269  0.4723562910600023  1.0000
  C   C63       1.0  7.504687101092465e-05  0.00015167318940008037  0.4069228706402654  1.0000
  C   C64       1.0  0.9439714971098356  0.9994085520067275  0.3719128695175867  1.0000
  C   C65       1.0  0.9428631655244146  0.9977334161095753  0.3071044476950249  1.0000
  C   C66       1.0  0.9983878612842715  0.9968023906741124  0.27447644219493833  1.0000
  C   C67       1.0  0.05487228335303494  0.997778353435578  0.30711878115071295  1.0000
  C   C68       1.0  0.05545000037693628  0.9994498303310735  0.37192515461432424  1.0000
  C   C69       1.0  0.9983966411931603  0.27604365291214333  0.27447572334192927  1.0000
  C   C70       1.0  0.9428954910567667  0.2522298440099034  0.3071309173830413  1.0000
  C   C71       1.0  0.9440022338497159  0.3164794438316323  0.37192929701421223  1.0000
  C   C72       1.0  8.628629529268654e-05  0.4068476378155663  0.40690430232157127  1.0000
  C   C73       1.0  0.055441782665830885  0.42791098914840114  0.37188369629487983  1.0000
  C   C74       1.0  0.05486529412417701  0.3641894733949158  0.3070883600766976  1.0000
  C   C75       1.0  0.0005910949957908406  0.47178685161537  0.4723354208264964  1.0000
  C   C76       1.0  0.0005882043134448244  0.5281701861047096  0.5287555790176198  1.0000
  C   C77       1.0  9.354364376431706e-05  0.5931011069914547  0.5932001338924238  1.0000
  C   C78       1.0  0.9439977615534401  0.5720273344377061  0.6274778087985665  1.0000
  C   C79       1.0  0.9428956516469001  0.6357359509618449  0.6906102137067834  1.0000
  C   C80       1.0  0.9984165477511054  0.7238884190548304  0.7222987355611038  1.0000
  C   C81       1.0  0.054893783833946955  0.747710340835198  0.690619969001922  1.0000
  C   C82       1.0  0.05546920392265515  0.683471795406568  0.6274908526333502  1.0000
  C   C83       1.0  0.2776508483246758  0.2760514233933193  0.0016041081822634972  1.0000
  C   C84       1.0  0.30934134630023646  0.3641990884444439  0.057136708121859656  1.0000
  C   C85       1.0  0.3724906732636057  0.42790629604245106  0.0560535101745003  1.0000
  C   C86       1.0  0.4067918660867206  0.4068293813897838  0.9999805149598443  1.0000
  C   C87       1.0  0.37249907530302534  0.3164564137109594  0.944602496988509  1.0000
  C   C88       1.0  0.30933629034080196  0.2522192199746413  0.9451404659433534  1.0000
  C   C89       1.0  0.47124851304285176  0.47176296807818824  0.9994947480581259  1.0000
  C   C90       1.0  0.5276499176692084  0.5281402034821666  0.999473988486258  1.0000
  C   C91       1.0  0.5930594939948008  0.5930687079508061  0.9999342415136425  1.0000
  C   C92       1.0  0.628054310893134  0.6834431628589641  0.05600292958418146  1.0000
  C   C93       1.0  0.6928409219339714  0.747683570969926  0.05708557283034557  1.0000
  C   C94       1.0  0.7254811268445213  0.7238542365888565  0.0015713357217563904  1.0000
  C   C95       1.0  0.69285729895428  0.6356986293859066  0.9451241398053015  1.0000
  C   C96       1.0  0.62806354310365  0.5719905137937784  0.9445665836603395  1.0000
  Br  Br1       1.0  0.4130911551871605  0.2808876122958067  0.41395288812098835  1.0000
  Br  Br2       1.0  0.4131371423525181  0.5460713895910841  0.41398362984391907  1.0000
  Br  Br3       1.0  0.5857544399857486  0.4536903796812765  0.586725116597229  1.0000
  Br  Br4       1.0  0.5857334326572499  0.7187307125903359  0.58667549525601  1.0000
  Br  Br5       1.0  0.8677583181701607  0.28094261513925284  0.8669499549881649  1.0000
  Br  Br6       1.0  0.13292075487749616  0.5461696766996625  0.13204150391425162  1.0000
  Br  Br7       1.0  0.8678101704741721  0.4537081328829658  0.8669837127726652  1.0000
  Br  Br8       1.0  0.1329046440475281  0.7187737660683736  0.13207833625429527  1.0000
  Br  Br9       1.0  0.4132785919177736  0.9992902681318654  0.8670839987490948  1.0000
  Br  Br10      1.0  0.41327536506160834  0.999208999745349  0.13214817058427278  1.0000
  Br  Br11      1.0  0.5858596516690681  0.999146890057169  0.8670255320974718  1.0000
  Br  Br12      1.0  0.5859438298871993  0.9992547273200216  0.13217248728420108  1.0000
  Br  Br13      1.0  0.13293299313453838  0.0007658323354817999  0.5866952061813606  1.0000
  Br  Br14      1.0  0.8678991950930024  0.0008788125965180209  0.5867295506240139  1.0000
  Br  Br15      1.0  0.1329643700255616  0.000841195835128876  0.4140794640759821  1.0000
  Br  Br16      1.0  0.8678146131932606  0.0007267899426678822  0.41403891051552216  1.0000
  Br  Br17      1.0  0.1329303301800592  0.546176309472706  0.4139767640219531  1.0000
  Br  Br18      1.0  0.8678953708545977  0.2811493334524683  0.4141059061161697  1.0000
  Br  Br19      1.0  0.13297846670056393  0.7188194208733022  0.5867231124842717  1.0000
  Br  Br20      1.0  0.8678377924191594  0.4537555442105942  0.5866921153710435  1.0000
  Br  Br21      1.0  0.4132854882012749  0.28108585536186564  0.8671144669279157  1.0000
  Br  Br22      1.0  0.41325045892261153  0.5461768377450794  0.13220584901869603  1.0000
  Br  Br23      1.0  0.5859216089403816  0.4537121449093107  0.8670685212998775  1.0000
  Br  Br24      1.0  0.5859090433138833  0.7187998960861036  0.13213486061696494  1.0000
  O   O1        1.0  0.1820574350250297  0.23273408951307317  0.17854579212970376  1.0000
  O   O2        1.0  0.9457491956504641  0.7671187152270776  0.9492462492230515  1.0000
  O   O3        1.0  0.8213233286690024  0.7671254454620917  0.8178302037377917  1.0000
  O   O4        1.0  0.050651271218924876  0.23276002735789086  0.05418280312250088  1.0000
  O   O5        1.0  0.9457294906692792  0.1278520027419886  0.17855768666645128  1.0000
  O   O6        1.0  0.18209957294391182  0.12787079247654282  0.9493025153853124  1.0000
  O   O7        1.0  0.05068068248142757  0.872070668646998  0.8178445275129532  1.0000
  O   O8        1.0  0.8213576820047097  0.8720310628527131  0.054162989529558656  1.0000
  O   O9        1.0  0.05062552025156467  0.9963861971827439  0.17853659404395456  1.0000
  O   O10       1.0  0.8213561900279769  0.0034727834985020327  0.9492606331607475  1.0000
  O   O11       1.0  0.9457372330623885  0.9963919909497679  0.8178166917594538  1.0000
  O   O12       1.0  0.1820768042263268  0.003464704405260523  0.054188582055921586  1.0000
  O   O13       1.0  0.8213520658628538  0.0034624259396735697  0.05416369909630693  1.0000
  O   O14       1.0  0.05067703357747873  0.9964534852578878  0.8178493808991759  1.0000
  O   O15       1.0  0.18209428096497507  0.0034879759892234227  0.9492896434963355  1.0000
  O   O16       1.0  0.9457256113117157  0.9963971165562171  0.17854425416570036  1.0000
  O   O17       1.0  0.0506468276117289  0.23275421714122757  0.17855394709269484  1.0000
  O   O18       1.0  0.8213656791128371  0.7671227509833398  0.9492643900145337  1.0000
  O   O19       1.0  0.945744777831564  0.7671569227142144  0.8178135567419673  1.0000
  O   O20       1.0  0.18207841460604607  0.23277080295124358  0.05420271339435347  1.0000
  O   O21       1.0  0.9457525460747219  0.1278557150331137  0.9492578380910783  1.0000
  O   O22       1.0  0.1820456629455478  0.1278117307020352  0.17854199328146336  1.0000
  O   O23       1.0  0.05064376020389014  0.8720267175194961  0.05416797588845413  1.0000
  O   O24       1.0  0.8213300598460408  0.8720358124179057  0.8178335745963279  1.0000
  O   O25       1.0  0.04589046242943323  0.09180204712167479  0.9540288094891451  1.0000
  O   O26       1.0  0.8621764446705812  0.9080857665300072  0.9540231647378616  1.0000
  O   O27       1.0  0.04588367165448655  0.908087311198514  0.9540226679597976  1.0000
  O   O28       1.0  0.04587228185983607  0.0917873051808797  0.1377403748201758  1.0000
  O   O29       1.0  0.9660640578503036  0.9321644315716071  0.033828338756464425  1.0000
  O   O30       1.0  0.10161319131025692  0.0677171422098795  0.033850078757339495  1.0000
  O   O31       1.0  0.9660764806862118  0.9321811076134022  0.8983027504579864  1.0000
  O   O32       1.0  0.9660661864621645  0.06771647445646069  0.03383841550181897  1.0000
