data_image0
_chemical_formula_structural       Cd4H16C24I4N4O8
_chemical_formula_sum              "Cd4 H16 C24 I4 N4 O8"
_cell_length_a       4.147819942961835
_cell_length_b       13.30585448223967
_cell_length_c       14.880824146757508
_cell_angle_alpha    90.00062335489538
_cell_angle_beta     96.6756140877217
_cell_angle_gamma    90.00021644131884

_space_group_name_H-M_alt    "P 1"
_space_group_IT_number       1

loop_
  _space_group_symop_operation_xyz
  'x, y, z'

loop_
  _atom_site_type_symbol
  _atom_site_label
  _atom_site_symmetry_multiplicity
  _atom_site_fract_x
  _atom_site_fract_y
  _atom_site_fract_z
  _atom_site_occupancy
  Cd  Cd1       1.0  0.1329740393153287  0.9205731049664294  0.2541989282603794  1.0000
  Cd  Cd2       1.0  0.36702229113413415  0.42056921659960983  0.245800290874527  1.0000
  Cd  Cd3       1.0  0.8670235786493096  0.07942799671070587  0.745798298631122  1.0000
  Cd  Cd4       1.0  0.6329826081276336  0.5794348912991509  0.7542005321279246  1.0000
  H   H1        1.0  0.9167834732624129  0.7931730020244744  0.7068789401091279  1.0000
  H   H2        1.0  0.583211824415052  0.2931678812944797  0.7931189058524806  1.0000
  H   H3        1.0  0.083231135421606  0.20682809968603524  0.2931221976688363  1.0000
  H   H4        1.0  0.41678579321074943  0.7068317172931701  0.20687966503238897  1.0000
  H   H5        1.0  0.0014787387545567002  0.8967102948229523  0.5704238920606669  1.0000
  H   H6        1.0  0.49853927305401413  0.3966990413313027  0.9295748519995396  1.0000
  H   H7        1.0  0.9985285891535015  0.1032915583979275  0.4295716336239365  1.0000
  H   H8        1.0  0.5014583444088315  0.6033005572604824  0.07042439088583309  1.0000
  H   H9        1.0  0.39478329983277394  0.6852725157692349  0.4092497271899872  1.0000
  H   H10       1.0  0.10522597636475689  0.18526342660429415  0.09075033596421626  1.0000
  H   H11       1.0  0.6052118902809696  0.31472858591848774  0.5907494370053356  1.0000
  H   H12       1.0  0.8947643578519546  0.8147339173643431  0.9092533748201388  1.0000
  H   H13       1.0  0.33032038432920524  0.5902896034253261  0.5517265749570297  1.0000
  H   H14       1.0  0.16969721502929497  0.09028573462370561  0.9482671918489202  1.0000
  H   H15       1.0  0.6696942251437504  0.40970849206901516  0.4482712028030915  1.0000
  H   H16       1.0  0.8303004017881932  0.9097146155334883  0.051734739042316784  1.0000
  C   C1        1.0  0.8012173692674408  0.7729235450724232  0.6398714553109527  1.0000
  C   C2        1.0  0.6987872897482177  0.27291862389100163  0.8601264993477428  1.0000
  C   C3        1.0  0.1987996677498671  0.22707680506622555  0.3601257291578363  1.0000
  C   C4        1.0  0.30120790020257715  0.7270824778008489  0.13987333684808329  1.0000
  C   C5        1.0  0.8494149143899605  0.8296943555319775  0.5640058375412023  1.0000
  C   C6        1.0  0.6506052845144268  0.32968054462867974  0.9359938390604225  1.0000
  C   C7        1.0  0.15059483974588517  0.1703082492685297  0.4359944708484986  1.0000
  C   C8        1.0  0.3493899050781549  0.6703167993270468  0.06400734111731048  1.0000
  C   C9        1.0  0.707178547162833  0.7975064201909631  0.4791406060570792  1.0000
  C   C10       1.0  0.7928190066139392  0.2974966770706899  0.020859647130201598  1.0000
  C   C11       1.0  0.2928239253564299  0.20249392994506368  0.5208574502265078  1.0000
  C   C12       1.0  0.2071494818140565  0.7024984122225676  0.9791413393618309  1.0000
  C   C13       1.0  0.5120248416264558  0.7115178180726859  0.47422296633256866  1.0000
  C   C14       1.0  0.9879955075292769  0.21150834956475964  0.02577719865912799  1.0000
  C   C15       1.0  0.4879873396826183  0.2884817805382554  0.5257780927400403  1.0000
  C   C16       1.0  0.011982689694988799  0.7884867397522939  0.9742267906257563  1.0000
  C   C17       1.0  0.47654856373244314  0.6586866508276116  0.5528557485950925  1.0000
  C   C18       1.0  0.023467783109232695  0.15868260773465437  0.9471426676461687  1.0000
  C   C19       1.0  0.5234684729525013  0.34131294777042603  0.44714277987088724  1.0000
  C   C20       1.0  0.9765152693537826  0.8413154877691439  0.05285946304788778  1.0000
  C   C21       1.0  0.7835142208066371  0.8469180181605722  0.3933061036637965  1.0000
  C   C22       1.0  0.7164769004721234  0.34690624099629724  0.10669374432043095  1.0000
  C   C23       1.0  0.21647854212096715  0.1530845866189523  0.6066923098409658  1.0000
  C   C24       1.0  0.2835134342205378  0.6530895998621845  0.8933079504547548  1.0000
  I   I1        1.0  0.5951297209165889  0.0580398967515876  0.19643306741538413  1.0000
  I   I2        1.0  0.9048564316704243  0.5580356721729914  0.3035745924743124  1.0000
  I   I3        1.0  0.4048703227869765  0.9419619565175739  0.8035709581827317  1.0000
  I   I4        1.0  0.09516545978378588  0.4419691872708214  0.6964240934138387  1.0000
  N   N1        1.0  0.6221573684857661  0.6881201403588546  0.6343029464982306  1.0000
  N   N2        1.0  0.8778822432632083  0.18811623569387592  0.8656946535193554  1.0000
  N   N3        1.0  0.37787665957037575  0.31187945825602265  0.3656968048521775  1.0000
  N   N4        1.0  0.1221178009033821  0.8118826113673735  0.13430735606193875  1.0000
  O   O1        1.0  0.028223923901727198  0.906090841867254  0.39934693892836026  1.0000
  O   O2        1.0  0.47175759403327083  0.40608377973631354  0.10064897260469508  1.0000
  O   O3        1.0  0.9717664121462519  0.0939110113491779  0.6006493798733457  1.0000
  O   O4        1.0  0.5282375955851533  0.5939165704149333  0.8993522075883289  1.0000
  O   O5        1.0  0.6200431131492011  0.822846862655055  0.3187820890374765  1.0000
  O   O6        1.0  0.8799475950314457  0.32284219397803327  0.1812148259896985  1.0000
  O   O7        1.0  0.379942367522915  0.17715499057428022  0.6812167603708584  1.0000
  O   O8        1.0  0.12006458677942078  0.6771589077182654  0.818784217089039  1.0000
