data_image0
_chemical_formula_structural       Co3H38C58N10O8
_chemical_formula_sum              "Co3 H38 C58 N10 O8"
_cell_length_a       11.39500176304534
_cell_length_b       11.88664111483592
_cell_length_c       15.621489191149587
_cell_angle_alpha    73.41218570652057
_cell_angle_beta     69.12621314171263
_cell_angle_gamma    61.68501617269093

_space_group_name_H-M_alt    "P 1"
_space_group_IT_number       1

loop_
  _space_group_symop_operation_xyz
  'x, y, z'

loop_
  _atom_site_type_symbol
  _atom_site_label
  _atom_site_symmetry_multiplicity
  _atom_site_fract_x
  _atom_site_fract_y
  _atom_site_fract_z
  _atom_site_occupancy
  Co  Co1       1.0  0.4999956318567982  0.5000044432159069  0.9999985436515855  1.0000
  Co  Co2       1.0  2.0440937759647502e-06  0.4999971224828527  0.9999999091441293  1.0000
  Co  Co3       1.0  0.9999973439146711  0.999998198127784  1.0215925600387003e-06  1.0000
  H   H1        1.0  0.42692893566407975  0.5679951607411339  0.18359630151974923  1.0000
  H   H2        1.0  0.9681968439258385  0.6992114369835531  0.5443764698495098  1.0000
  H   H3        1.0  0.3875159760639305  0.4589953935419472  0.3451126845928625  1.0000
  H   H4        1.0  0.3269747595774747  0.09032450318363056  0.369601471688611  1.0000
  H   H5        1.0  0.15734040413441613  0.3154894195760676  0.13849912347886567  1.0000
  H   H6        1.0  0.30639029057174844  0.8109884710805486  0.05260273234431173  1.0000
  H   H7        1.0  0.16410463343849097  0.3044261584372521  0.2992124227661107  1.0000
  H   H8        1.0  0.14978004180139237  0.3136179101087747  0.8594063956894042  1.0000
  H   H9        1.0  0.15160531945880953  0.3059634657886575  0.7011858732554825  1.0000
  H   H10       1.0  0.9078071988742736  0.9648221524429342  0.34198228849309936  1.0000
  H   H11       1.0  0.9741848930185527  0.9958897561408615  0.8233321652737613  1.0000
  H   H12       1.0  0.4558740514794479  0.3147986727353923  0.46068552408218  1.0000
  H   H13       1.0  0.3825518997067975  0.08246384604888139  0.7476563649172192  1.0000
  H   H14       1.0  0.025805508100553695  0.0041220000432034  0.17666623386970304  1.0000
  H   H15       1.0  0.031833304075362896  0.3007525349498578  0.45561959170913696  1.0000
  H   H16       1.0  0.6127406057880407  0.7795168280398241  0.37956294857183076  1.0000
  H   H17       1.0  0.023886043049849096  0.3022789324391865  0.6153325207140127  1.0000
  H   H18       1.0  0.4796932096541724  0.2569044559902807  0.0812305600093737  1.0000
  H   H19       1.0  0.2531089125157706  0.039243685428118597  0.9089464598355261  1.0000
  H   H20       1.0  0.6730000635415859  0.9097019352504034  0.6303998115596839  1.0000
  H   H21       1.0  0.4500743426097884  0.13191057391858857  0.23677032459865893  1.0000
  H   H22       1.0  0.8426793884132736  0.68450659793438  0.8614842076100115  1.0000
  H   H23       1.0  0.6174437899504284  0.9175369791435483  0.2523518482036808  1.0000
  H   H24       1.0  0.0921853651330693  0.035193269856605994  0.658017410885584  1.0000
  H   H25       1.0  0.2575981292091354  0.9965125794877282  0.5294347884482916  1.0000
  H   H26       1.0  0.7468798900157904  0.9607602815200521  0.09106027951081333  1.0000
  H   H27       1.0  0.6124600775895956  0.5410282131776184  0.6548869319131538  1.0000
  H   H28       1.0  0.520308099069858  0.7431010571571619  0.918772770720089  1.0000
  H   H29       1.0  0.5730624233281176  0.4320165888934751  0.816401220866254  1.0000
  H   H30       1.0  0.5499205987920204  0.8680989350339485  0.7632337961215823  1.0000
  H   H31       1.0  0.8359324525827959  0.6955530950255876  0.7007718524185474  1.0000
  H   H32       1.0  0.8502104017306568  0.6863705914058824  0.14060811662679384  1.0000
  H   H33       1.0  0.6936009145857579  0.1890147679554417  0.9473945893157347  1.0000
  H   H34       1.0  0.9761359663726021  0.6976909504849259  0.38466567251887807  1.0000
  H   H35       1.0  0.5441042304781903  0.685223685409376  0.5393208306252787  1.0000
  H   H36       1.0  0.8483973949850708  0.6940046668642805  0.2988296207226567  1.0000
  H   H37       1.0  0.7423924024538735  0.0035010371300288065  0.47056449133473405  1.0000
  H   H38       1.0  0.3872558248638781  0.2204869823802156  0.620440007892334  1.0000
  C   C1        1.0  0.2826903657487634  0.490807969905134  0.9682900889870678  1.0000
  C   C2        1.0  0.22902259755023374  0.6183461401899277  0.9947780534849355  1.0000
  C   C3        1.0  0.7069901760599322  0.9368820959150238  0.23988503424143207  1.0000
  C   C4        1.0  0.750245490798498  0.9354039406058801  0.3145916160130043  1.0000
  C   C5        1.0  0.9198734755294493  0.6044780960249908  0.17776794300515764  1.0000
  C   C6        1.0  0.3104172862607085  0.10485293164440887  0.589158514094329  1.0000
  C   C7        1.0  0.8888749654032392  0.26579164286511764  0.006257161745338719  1.0000
  C   C8        1.0  0.46170475350153595  0.2965774002547191  0.1417471381218148  1.0000
  C   C9        1.0  0.8660924664102794  0.9644562613404302  0.2892668514924068  1.0000
  C   C10       1.0  0.4430071703103451  0.22846185974165675  0.2296439548605277  1.0000
  C   C11       1.0  0.9187222859996139  0.6077771647953581  0.26615164078357617  1.0000
  C   C12       1.0  0.9811546966591608  0.611839127977191  0.5252849557266116  1.0000
  C   C13       1.0  0.7780620428514523  0.961174134699746  0.14921901812504496  1.0000
  C   C14       1.0  0.005900499731104949  0.4990285810049214  0.31364796791832106  1.0000
  C   C15       1.0  0.6895771353376574  0.8951557232587815  0.41084334286058055  1.0000
  C   C16       1.0  0.4311823612297374  0.47105535425377076  0.19920788406131604  1.0000
  C   C17       1.0  0.9957189048991493  0.500868297196085  0.5914936932980125  1.0000
  C   C18       1.0  0.7173165433519911  0.5091890141734863  0.03170713423614305  1.0000
  C   C19       1.0  0.2601825645097903  0.7644858973273329  0.032371479497733384  1.0000
  C   C20       1.0  0.7398124512214538  0.23551725303134668  0.9676242738389855  1.0000
  C   C21       1.0  0.9795543542581054  0.7774299801834769  0.9706665681024872  1.0000
  C   C22       1.0  0.41093571425481906  0.24605087180191992  0.47524632124706284  1.0000
  C   C23       1.0  0.5890516362631715  0.7539654854966852  0.5247596099707222  1.0000
  C   C24       1.0  0.1339041296499062  0.0355495136458259  0.7107337544337751  1.0000
  C   C25       1.0  0.0656009794154997  0.015072524180936893  0.8027072443029651  1.0000
  C   C26       1.0  0.9854700451468543  0.6110453295162797  0.4353289518124939  1.0000
  C   C27       1.0  0.588109577154512  0.5921607890165814  0.7110281941540889  1.0000
  C   C28       1.0  0.09247808744166976  0.39135993909797395  0.26688666824851026  1.0000
  C   C29       1.0  0.014544639080284595  0.38892855576237645  0.5646709081686438  1.0000
  C   C30       1.0  0.020450501579695392  0.22256513573385206  0.029332174231605314  1.0000
  C   C31       1.0  0.29901599470856866  0.06791122188397482  0.5150797071761204  1.0000
  C   C32       1.0  0.9941247749423212  0.5009468635719116  0.6863502369608624  1.0000
  C   C33       1.0  0.9343919784520834  0.9849353248753514  0.19729193317305513  1.0000
  C   C34       1.0  0.6079918123237461  0.7852134448534257  0.5981823862327429  1.0000
  C   C35       1.0  0.08128961331492236  0.3921984756063137  0.7338556075225708  1.0000
  C   C36       1.0  0.3397873447166333  0.12027444235121007  0.42430617646880336  1.0000
  C   C37       1.0  0.9075509323896185  0.6086203314918065  0.7331045303411083  1.0000
  C   C38       1.0  0.11112760634745909  0.734204555014969  0.9937400122713879  1.0000
  C   C39       1.0  0.29300394958627146  0.06312273398825141  0.7601182926118991  1.0000
  C   C40       1.0  0.5820435724977386  0.7181150878501652  0.6923737512275919  1.0000
  C   C41       1.0  0.5688072265059249  0.5289583105664447  0.8007909800081592  1.0000
  C   C42       1.0  0.5382971168631696  0.7034290919011142  0.8582545789599221  1.0000
  C   C43       1.0  0.24975407218832393  0.06459698334777639  0.6854092126649787  1.0000
  C   C44       1.0  0.5569942829033321  0.7715455554924944  0.7703589640374771  1.0000
  C   C45       1.0  0.37338756270230533  0.19121893036835047  0.5658758942120767  1.0000
  C   C46       1.0  0.08013114977205758  0.395508280202172  0.8222377071935794  1.0000
  C   C47       1.0  0.4179454257057529  0.2818975146556467  0.307629311431647  1.0000
  C   C48       1.0  0.7009758631684448  0.9321013193204803  0.48492201768173954  1.0000
  C   C49       1.0  0.7709827754309799  0.3816549319055581  0.005211698528675876  1.0000
  C   C50       1.0  0.9095574897420914  0.6031966618230484  0.8226716533223238  1.0000
  C   C51       1.0  0.09046156878378034  0.3967963912863013  0.17731628818777515  1.0000
  C   C52       1.0  0.22192963329938206  0.038829812600070596  0.8507850909489034  1.0000
  C   C53       1.0  0.004303228094329442  0.4991034253352138  0.40850602680995235  1.0000
  C   C54       1.0  0.0188715265423127  0.38812970153827553  0.4747117598376958  1.0000
  C   C55       1.0  0.41188204292548375  0.4078546814854107  0.2889710895110368  1.0000
  C   C56       1.0  0.6601965399898971  0.8797459744101559  0.5756953295253238  1.0000
  C   C57       1.0  0.3919932541071418  0.21480399440793002  0.40182197666767633  1.0000
  C   C58       1.0  0.6266018317336017  0.8087926865796361  0.4341279053374193  1.0000
  N   N1        1.0  0.00501504608327956  0.501406174216875  0.13279462755343016  1.0000
  N   N2        1.0  0.6792870684114759  0.35999018702099755  0.9810387631051039  1.0000
  N   N3        1.0  0.8934370287019745  0.9817924594925242  0.12669606879320844  1.0000
  N   N4        1.0  0.32071287420199474  0.6400148118506194  0.018952840848342634  1.0000
  N   N5        1.0  0.9949911638600135  0.49858794959317265  0.8672039749134581  1.0000
  N   N6        1.0  0.10655427910794658  0.01821255667114491  0.8733047184484445  1.0000
  N   N7        1.0  0.13373985560599524  0.8242694209119603  0.01687431065125372  1.0000
  N   N8        1.0  0.45715878481544775  0.4163620540883457  0.1256526130378788  1.0000
  N   N9        1.0  0.8662577168737325  0.17572982231894232  0.9831222210180213  1.0000
  N   N10       1.0  0.542843912878453  0.5836425710843399  0.8743473466468357  1.0000
  O   O1        1.0  0.21331538185735596  0.44893153705520195  0.9497898748391688  1.0000
  O   O2        1.0  0.055976456418484616  0.30394013253739155  0.038647736976500396  1.0000
  O   O3        1.0  0.414270670472092  0.42126148158244087  0.9638602704697515  1.0000
  O   O4        1.0  0.9440219972327242  0.6960588750525074  0.9613550265259149  1.0000
  O   O5        1.0  0.7866892876535513  0.551061551816403  0.050213156739431504  1.0000
  O   O6        1.0  0.09346870381495617  0.10069837718558716  0.0381169315062664  1.0000
  O   O7        1.0  0.9065264915581535  0.8992950895780963  0.9618851741143498  1.0000
  O   O8        1.0  0.585735035985678  0.5787384175166748  0.03613603455369947  1.0000
