data_image0
_chemical_formula_structural       Ca2H36C28N8O20
_chemical_formula_sum              "Ca2 H36 C28 N8 O20"
_cell_length_a       9.01809331347563
_cell_length_b       9.018090430641664
_cell_length_c       11.2206707106771
_cell_angle_alpha    96.5462551575993
_cell_angle_beta     96.54622538487719
_cell_angle_gamma    94.90646804129987

_space_group_name_H-M_alt    "P 1"
_space_group_IT_number       1

loop_
  _space_group_symop_operation_xyz
  'x, y, z'

loop_
  _atom_site_type_symbol
  _atom_site_label
  _atom_site_symmetry_multiplicity
  _atom_site_fract_x
  _atom_site_fract_y
  _atom_site_fract_z
  _atom_site_occupancy
  Ca  Ca1       1.0  0.08194929165615147  0.9180506890324193  0.7499995218416018  1.0000
  Ca  Ca2       1.0  0.9180509367786414  0.0819489760792891  0.2500001942733547  1.0000
  H   H1        1.0  0.1798737350772726  0.2927923324565214  0.6887123438857827  1.0000
  H   H2        1.0  0.7072088942401108  0.8201260784422644  0.8112893292027081  1.0000
  H   H3        1.0  0.8201277247940906  0.7072084592400356  0.3112884733851971  1.0000
  H   H4        1.0  0.29279134225959774  0.1798735947348575  0.18871217079391298  1.0000
  H   H5        1.0  0.8204458841397012  0.4432782421215862  0.9153853396213661  1.0000
  H   H6        1.0  0.5567199616275358  0.1795532372922821  0.5846150164110568  1.0000
  H   H7        1.0  0.17955322806272989  0.5567214221929435  0.08461427704522613  1.0000
  H   H8        1.0  0.44327915460735307  0.8204464310549541  0.4153854921963643  1.0000
  H   H9        1.0  0.9644903222662503  0.8646590026558839  0.4907013035299599  1.0000
  H   H10       1.0  0.13534077925751825  0.03551038396278021  0.009298395620135099  1.0000
  H   H11       1.0  0.035510017340285985  0.1353417842107802  0.5092985223518269  1.0000
  H   H12       1.0  0.8646595603490181  0.964490402903891  0.9907014302616445  1.0000
  H   H13       1.0  0.1336856518493121  0.8363242450910845  0.4836407478242961  1.0000
  H   H14       1.0  0.1636755331919204  0.8663154645070675  0.01636003443338301  1.0000
  H   H15       1.0  0.8663146917896751  0.1636765458082792  0.5163599699983124  1.0000
  H   H16       1.0  0.8363236901822474  0.13368532156241034  0.9836396920000324  1.0000
  H   H17       1.0  0.39495048864240795  0.511590483286149  0.6312714987437076  1.0000
  H   H18       1.0  0.48840911493290656  0.6050492235011761  0.8687282386135351  1.0000
  H   H19       1.0  0.6050498509641286  0.48841030358051546  0.3687283271380792  1.0000
  H   H20       1.0  0.5115901084412684  0.39495156256830904  0.13127148781988043  1.0000
  H   H21       1.0  0.31485403456107264  0.6784088786826957  0.6014103514834801  1.0000
  H   H22       1.0  0.3215911719241333  0.685145030833219  0.8985894164759857  1.0000
  H   H23       1.0  0.685145188813095  0.3215919073867822  0.3985893749499354  1.0000
  H   H24       1.0  0.6784080514500344  0.31485575523625897  0.10141030995742992  1.0000
  H   H25       1.0  0.21218234730996238  0.36390374699738004  0.4622367943583114  1.0000
  H   H26       1.0  0.6360965525680554  0.7878180235892743  0.03776296982979946  1.0000
  H   H27       1.0  0.7878188861854553  0.6360947971565665  0.5377629114381861  1.0000
  H   H28       1.0  0.3639036758667443  0.21218164152244157  0.9622367462851499  1.0000
  H   H29       1.0  0.3222681283817365  0.5109710365381658  0.410174689588139  1.0000
  H   H30       1.0  0.48902894184370627  0.6777328898169086  0.08982600203188441  1.0000
  H   H31       1.0  0.6777321040855142  0.4890286326062565  0.5898259184676462  1.0000
  H   H32       1.0  0.5109712865910864  0.32226677529480713  0.9101737140830722  1.0000
  H   H33       1.0  0.1336188592244554  0.5330102473963622  0.4344332211712185  1.0000
  H   H34       1.0  0.4669900924034207  0.866381191616874  0.0655656749342697  1.0000
  H   H35       1.0  0.8663813692103373  0.4669894177153538  0.565566494943738  1.0000
  H   H36       1.0  0.5330112482312827  0.1336184702593215  0.9344332486882224  1.0000
  C   C1        1.0  0.9717715667186152  0.2781295035809848  0.8508199026134448  1.0000
  C   C2        1.0  0.7218690465967439  0.028226270515190804  0.64918119975043  1.0000
  C   C3        1.0  0.02822877692037912  0.7218712873183861  0.14918081520917073  1.0000
  C   C4        1.0  0.2781299624988591  0.9717722801097964  0.3508200910309967  1.0000
  C   C5        1.0  0.03131898256626899  0.4062242497723502  0.7934429691922914  1.0000
  C   C6        1.0  0.5937744771944863  0.9686773918912053  0.7065555523310677  1.0000
  C   C7        1.0  0.9686813570402674  0.593776537094314  0.2065568566894882  1.0000
  C   C8        1.0  0.40622452383620095  0.03132115066837569  0.29344395456869415  1.0000
  C   C9        1.0  0.004830074605649833  0.5569146189947249  0.8024801664412208  1.0000
  C   C10       1.0  0.44308657367850657  0.9951682330111634  0.697519672309454  1.0000
  C   C11       1.0  0.9951691447360597  0.44308616304205367  0.1975186680513659  1.0000
  C   C12       1.0  0.5569147790535637  0.004831440963144501  0.3024819271355241  1.0000
  C   C13       1.0  0.8926082182474885  0.635592375129235  0.86193255790495  1.0000
  C   C14       1.0  0.3644087619992717  0.10739130397615068  0.6380672270554442  1.0000
  C   C15       1.0  0.1073920101873043  0.36440728998248056  0.1380671582100064  1.0000
  C   C16       1.0  0.6355925867003477  0.8926083659654509  0.3619334804487123  1.0000
  C   C17       1.0  0.17770201903413604  0.5309566317598424  0.6837818244874114  1.0000
  C   C18       1.0  0.46904246302118924  0.8222975606030617  0.8162187933826884  1.0000
  C   C19       1.0  0.8222972043400318  0.4690441543096356  0.316217901946004  1.0000
  C   C20       1.0  0.5309567684178942  0.1777032335318296  0.18378271693238446  1.0000
  C   C21       1.0  0.2902102674304102  0.5569224735390887  0.5987493389562175  1.0000
  C   C22       1.0  0.443077083047008  0.709788956033556  0.9012512715272577  1.0000
  C   C23       1.0  0.7097899610043824  0.4430771915726268  0.401250377158739  1.0000
  C   C24       1.0  0.5569231494202425  0.2902107131108593  0.09874933652853458  1.0000
  C   C25       1.0  0.23589454473142973  0.48604216840610104  0.4685643633759042  1.0000
  C   C26       1.0  0.5139568580995898  0.7641058774624554  0.03143441991310432  1.0000
  C   C27       1.0  0.7641067959032808  0.5139574934701018  0.5314345602465878  1.0000
  C   C28       1.0  0.4860423652745779  0.23589490860702259  0.9685653065203111  1.0000
  N   N1        1.0  0.1404230782282951  0.393850544719669  0.718477715291975  1.0000
  N   N2        1.0  0.6061491054276259  0.8595751522042363  0.7815228125345897  1.0000
  N   N3        1.0  0.8595772654106992  0.6061502461797019  0.28152300253064055  1.0000
  N   N4        1.0  0.39385001080725596  0.1404245161429998  0.21847769607282425  1.0000
  N   N5        1.0  0.0975950395730649  0.6328016853407233  0.7353930372555411  1.0000
  N   N6        1.0  0.36719848075001954  0.9024052806201796  0.7646086684488367  1.0000
  N   N7        1.0  0.9024041838011031  0.36719910072875456  0.2646066891778744  1.0000
  N   N8        1.0  0.6328019780931696  0.09759663606684649  0.2353930510814379  1.0000
  O   O1        1.0  0.033028969234734994  0.15868672472814888  0.8403746161553158  1.0000
  O   O2        1.0  0.8413148817320247  0.9669681837466725  0.659625965125727  1.0000
  O   O3        1.0  0.9669701429676962  0.8413129395863804  0.1596250005112765  1.0000
  O   O4        1.0  0.15868748009313546  0.033030373302572996  0.3403765159416352  1.0000
  O   O5        1.0  0.8598517114895826  0.2981996691527441  0.9116749274324008  1.0000
  O   O6        1.0  0.7017987445239695  0.14014474576305957  0.5883260655284488  1.0000
  O   O7        1.0  0.14014739668039064  0.7017999911290858  0.08832379729335572  1.0000
  O   O8        1.0  0.2982001574323476  0.8598526871396858  0.41167600742698335  1.0000
  O   O9        1.0  0.7971803953458119  0.5601718810291415  0.9178237904390867  1.0000
  O   O10       1.0  0.43982787415158237  0.2028194169985298  0.5821759011985677  1.0000
  O   O11       1.0  0.2028188280283558  0.4398289050403363  0.0821759359943286  1.0000
  O   O12       1.0  0.5601712380508417  0.7971802473159997  0.4178237154680247  1.0000
  O   O13       1.0  0.8860699848965223  0.7730510750818951  0.8546881812580195  1.0000
  O   O14       1.0  0.22694960057456365  0.11393030146247442  0.6453116585865999  1.0000
  O   O15       1.0  0.11392923847765246  0.22694971098758288  0.1453115451753959  1.0000
  O   O16       1.0  0.7730507390319659  0.8860704854041899  0.3546881672951798  1.0000
  O   O17       1.0  0.049806426227377194  0.8240253515899453  0.5327918797994612  1.0000
  O   O18       1.0  0.17597321194914173  0.950193634702899  0.9672070328533877  1.0000
  O   O19       1.0  0.9501936910356789  0.17597319176681486  0.4672077265486649  1.0000
  O   O20       1.0  0.824027016485651  0.049806030408816995  0.03279268326156881  1.0000
