data_image0
_chemical_formula_structural       Cd4H32C24N8O28
_chemical_formula_sum              "Cd4 H32 C24 N8 O28"
_cell_length_a       5.399806951967121
_cell_length_b       10.928083323593121
_cell_length_c       16.15249676510109
_cell_angle_alpha    89.99896802373823
_cell_angle_beta     89.99925817049431
_cell_angle_gamma    94.98604474107977

_space_group_name_H-M_alt    "P 1"
_space_group_IT_number       1

loop_
  _space_group_symop_operation_xyz
  'x, y, z'

loop_
  _atom_site_type_symbol
  _atom_site_label
  _atom_site_symmetry_multiplicity
  _atom_site_fract_x
  _atom_site_fract_y
  _atom_site_fract_z
  _atom_site_occupancy
  Cd  Cd1       1.0  0.9178769912437944  0.6826776502415582  0.632261477540439  1.0000
  Cd  Cd2       1.0  0.5821330751961113  0.8173199109305072  0.13226065038952586  1.0000
  Cd  Cd3       1.0  0.08210655397012798  0.31730630867065907  0.3677385659909262  1.0000
  Cd  Cd4       1.0  0.41789772511414464  0.18269460379632824  0.8677375355577228  1.0000
  H   H1        1.0  0.5998959911228071  0.451904412574869  0.605142052254493  1.0000
  H   H2        1.0  0.9001049860783114  0.04810490400803499  0.10514748794347642  1.0000
  H   H3        1.0  0.4000812260873233  0.5480987811386839  0.39485922937188894  1.0000
  H   H4        1.0  0.09992158007062807  0.9518939856366442  0.894858746399187  1.0000
  H   H5        1.0  0.8170772935328685  0.4237967847826809  0.6641939339821266  1.0000
  H   H6        1.0  0.682916958488022  0.07619613842179261  0.16420118640660772  1.0000
  H   H7        1.0  0.18292464862972926  0.5761863626304375  0.3357949657271605  1.0000
  H   H8        1.0  0.31707932227215  0.9238227658460045  0.8357914276930742  1.0000
  H   H9        1.0  0.4015830679094564  0.8344466694824387  0.6531290102413224  1.0000
  H   H10       1.0  0.09842634821724518  0.6655621553834692  0.15312748487436784  1.0000
  H   H11       1.0  0.5983868745900766  0.165557399960278  0.3468741286931518  1.0000
  H   H12       1.0  0.9015979108669543  0.33444589783041306  0.846874415722077  1.0000
  H   H13       1.0  0.2968539362284233  0.8666431875337963  0.5634902626791674  1.0000
  H   H14       1.0  0.2031477917757414  0.6333644598660298  0.06349116171958971  1.0000
  H   H15       1.0  0.7031268482658178  0.13335910903172282  0.4365128762431141  1.0000
  H   H16       1.0  0.7968666388347714  0.36663986595755915  0.9365125962183714  1.0000
  H   H17       1.0  0.3224939079578419  0.58236817274431  0.5408254735775415  1.0000
  H   H18       1.0  0.17750826974421588  0.9176364480802234  0.0408310694474849  1.0000
  H   H19       1.0  0.6775303509194687  0.4176398803369353  0.4591857135089228  1.0000
  H   H20       1.0  0.822453591052721  0.08235105631226249  0.95918816618763  1.0000
  H   H21       1.0  0.161909794624485  0.4694557283100094  0.583940578748127  1.0000
  H   H22       1.0  0.3380772239673179  0.030539353346313188  0.08395453932872951  1.0000
  H   H23       1.0  0.8380749775809945  0.5305484268081742  0.4160477017703599  1.0000
  H   H24       1.0  0.6619389541590764  0.9694521352948369  0.9160300266042827  1.0000
  H   H25       1.0  0.4094081359794117  0.5052309838151743  0.8995981569737737  1.0000
  H   H26       1.0  0.09059501910043369  0.9947653215383738  0.3995976104896286  1.0000
  H   H27       1.0  0.5905857644292283  0.49477230614179035  0.10039631452397663  1.0000
  H   H28       1.0  0.9094303937023372  0.005238150010278303  0.6003980991389072  1.0000
  H   H29       1.0  0.3301928217016012  0.5381728461444409  0.7466892560978452  1.0000
  H   H30       1.0  0.1698151528657235  0.9618268980335215  0.24668815568494307  1.0000
  H   H31       1.0  0.6698020588899141  0.4618368732590739  0.25330273896136657  1.0000
  H   H32       1.0  0.8302246358915044  0.03818583321280039  0.7533044583600984  1.0000
  C   C1        1.0  0.9080198312229443  0.7036320608569467  0.8261478050417568  1.0000
  C   C2        1.0  0.5919905510064468  0.7963701077967328  0.3261515248311468  1.0000
  C   C3        1.0  0.0919760628895929  0.29637215827906965  0.17384604734678535  1.0000
  C   C4        1.0  0.4080203458787821  0.20362318560231782  0.6738448039894323  1.0000
  C   C5        1.0  0.9643443538465845  0.6900617928065387  0.9103130846118433  1.0000
  C   C6        1.0  0.5356602845782277  0.8099370424419516  0.4103150206974462  1.0000
  C   C7        1.0  0.035654687509122596  0.309938773728362  0.0896820059909231  1.0000
  C   C8        1.0  0.4643399103581346  0.19005894233929152  0.5896800699307647  1.0000
  C   C9        1.0  0.2676615016722437  0.563515747306006  0.8787462179690879  1.0000
  C   C10       1.0  0.2323290467018566  0.9364774049539972  0.3787470183562363  1.0000
  C   C11       1.0  0.7323258576344642  0.43648108121758605  0.1212463962838513  1.0000
  C   C12       1.0  0.7676833904254396  0.06352599183200877  0.6212474531015886  1.0000
  C   C13       1.0  0.2210112856441384  0.5794864460410806  0.7943481219375386  1.0000
  C   C14       1.0  0.27899257165368135  0.9205110075191881  0.29434891893179593  1.0000
  C   C15       1.0  0.7789846085097878  0.4205177731214675  0.2056438731530008  1.0000
  C   C16       1.0  0.7210318276418591  0.07949796430580139  0.7056443142680777  1.0000
  C   C17       1.0  0.698009159897616  0.7776756344059237  0.7960688583179945  1.0000
  C   C18       1.0  0.8020015490663822  0.7223328937662074  0.296069493668064  1.0000
  C   C19       1.0  0.3019905479629017  0.2223414541204107  0.20393304227549447  1.0000
  C   C20       1.0  0.19799612545882184  0.2776465581903693  0.7039293116621153  1.0000
  C   C21       1.0  0.8507024472199664  0.7596809431972175  0.9784633565172882  1.0000
  C   C22       1.0  0.6493111166952305  0.7403215202464537  0.4784687537706419  1.0000
  C   C23       1.0  0.14930002147057309  0.24031780774654976  0.0215304958906017  1.0000
  C   C24       1.0  0.35067099503948646  0.2596651835332223  0.5215250987537063  1.0000
  N   N1        1.0  0.04163895047369688  0.6481729046720588  0.7695116760510247  1.0000
  N   N2        1.0  0.45835716511452057  0.8518279603844763  0.2695144060933075  1.0000
  N   N3        1.0  0.9583498089878691  0.3518331087069697  0.23048217634171664  1.0000
  N   N4        1.0  0.5416663940301731  0.14817550049011877  0.7304806844398897  1.0000
  N   N5        1.0  0.1404615057610314  0.6192155338754047  0.936587980298768  1.0000
  N   N6        1.0  0.35953772737515527  0.8807769486452699  0.4365901576903824  1.0000
  N   N7        1.0  0.8595336882602923  0.38078409282405806  0.0634058721192048  1.0000
  N   N8        1.0  0.6404640412241634  0.11921720986193657  0.5634036947469383  1.0000
  O   O1        1.0  0.6584987939412629  0.7820585419380562  0.7182574154991104  1.0000
  O   O2        1.0  0.8415206630643509  0.7179504040757649  0.21825731760822015  1.0000
  O   O3        1.0  0.3414972401205604  0.2179465956410667  0.2817395323802145  1.0000
  O   O4        1.0  0.15850034231726076  0.28204845367936565  0.781737772958401  1.0000
  O   O5        1.0  0.5732124101026842  0.8277575147211708  0.8505173662912853  1.0000
  O   O6        1.0  0.9268008402764991  0.6722577458108532  0.3505193204198065  1.0000
  O   O7        1.0  0.4268203506009201  0.172269858916458  0.1494746285802009  1.0000
  O   O8        1.0  0.0731666490398766  0.32770593173281526  0.6494714367789882  1.0000
  O   O9        1.0  0.7003647321168742  0.699977163464311  0.026512137505193302  1.0000
  O   O10       1.0  0.7996279420004342  0.8000242087308602  0.5265182285200112  1.0000
  O   O11       1.0  0.2996287148850953  0.30003530073592083  0.9734786193416769  1.0000
  O   O12       1.0  0.2003382534963762  0.1999431319376654  0.4734824342485879  1.0000
  O   O13       1.0  0.9323362437646737  0.8715824701821614  0.9863498280094235  1.0000
  O   O14       1.0  0.5676852570015785  0.6284133919913373  0.4863544569521494  1.0000
  O   O15       1.0  0.06769217640094641  0.12841643036648517  0.013640928845880801  1.0000
  O   O16       1.0  0.43227233744068644  0.3715704177669678  0.5136171080657164  1.0000
  O   O17       1.0  0.6873303783526055  0.4818302545247021  0.6559833603906002  1.0000
  O   O18       1.0  0.8126665132990637  0.018165669409349102  0.15598767372457445  1.0000
  O   O19       1.0  0.3126798184276113  0.5181584464289485  0.3440135875587487  1.0000
  O   O20       1.0  0.1873116840939488  0.9818439537507614  0.8440111314632546  1.0000
  O   O21       1.0  0.2500377281572455  0.8495312850182798  0.6218201480541481  1.0000
  O   O22       1.0  0.24996710191143018  0.6504756466929746  0.12181940217466553  1.0000
  O   O23       1.0  0.749936481745209  0.1504764797306564  0.378183609948131  1.0000
  O   O24       1.0  0.7500571571727692  0.3495324065209076  0.8781824984217792  1.0000
  O   O25       1.0  0.17898505546484958  0.5589647420021889  0.5775211759127714  1.0000
  O   O26       1.0  0.3210125132777293  0.9410314719356805  0.0775308314980734  1.0000
  O   O27       1.0  0.8212057188230161  0.4410543642010936  0.42256120717701867  1.0000
  O   O28       1.0  0.6787828288673837  0.058944977256764695  0.9225626964773852  1.0000
