data_image0
_chemical_formula_structural       Al2H14C24O12F2
_chemical_formula_sum              "Al2 H14 C24 O12 F2"
_cell_length_a       6.694354559452167
_cell_length_b       11.151393111659207
_cell_length_c       15.33434147502793
_cell_angle_alpha    81.15225784735374
_cell_angle_beta     77.33041780588594
_cell_angle_gamma    73.41030743941869

_space_group_name_H-M_alt    "P 1"
_space_group_IT_number       1

loop_
  _space_group_symop_operation_xyz
  'x, y, z'

loop_
  _atom_site_type_symbol
  _atom_site_label
  _atom_site_symmetry_multiplicity
  _atom_site_fract_x
  _atom_site_fract_y
  _atom_site_fract_z
  _atom_site_occupancy
  Al  Al1       1.0  0.504162498370917  0.5008482142443498  0.49509457090692166  1.0000
  Al  Al2       1.0  0.0070675423344112595  0.4961067640483209  0.4945065010346212  1.0000
  H   H1        1.0  0.29493191725968165  0.35422346979177627  0.5601866600751535  1.0000
  H   H2        1.0  0.7288411484532772  0.6384356073289367  0.42362179605577677  1.0000
  H   H3        1.0  0.8688234293543643  0.47829368940748646  0.9333741247474593  1.0000
  H   H4        1.0  0.1817519423301731  0.45569318172135104  0.05781008176199982  1.0000
  H   H5        1.0  0.6865850242762761  0.5322849154778949  0.2223538890101864  1.0000
  H   H6        1.0  0.7683209937245081  0.5482471974479922  0.05756034160228299  1.0000
  H   H7        1.0  0.2881040269553948  0.5442688706758717  0.7645512265777157  1.0000
  H   H8        1.0  0.2009574099345741  0.5466605305270348  0.9283637358482436  1.0000
  H   H9        1.0  0.21091396749829272  0.10039836771890262  0.6439097264966875  1.0000
  H   H10       1.0  0.38658266814666575  0.11969348562180222  0.5394732552353503  1.0000
  H   H11       1.0  0.5148428931567395  0.8846184525400603  0.5381225163515566  1.0000
  H   H12       1.0  0.3375976056913215  0.865711633452051  0.6414477344562641  1.0000
  H   H13       1.0  0.994333132821204  0.49637489157026243  0.6982929695157409  1.0000
  H   H14       1.0  0.047547812629190306  0.44956701884334654  0.29213784637089185  1.0000
  C   C1        1.0  0.8564626932098915  0.27295982665343393  0.49514285557469145  1.0000
  C   C2        1.0  0.6705520820232352  0.5111860362840374  0.657205574135446  1.0000
  C   C3        1.0  0.15420733838058004  0.7243333726340139  0.48716586812533785  1.0000
  C   C4        1.0  0.33852901287988135  0.4906424133671195  0.33213685946135035  1.0000
  C   C5        1.0  0.6231011975241997  0.5169194481350489  0.7548330777776188  1.0000
  C   C6        1.0  0.3860331996198596  0.4921141231812669  0.23396127204722458  1.0000
  C   C7        1.0  0.7864397276493021  0.5018590282783819  0.8042432946865078  1.0000
  C   C8        1.0  0.7371333081025069  0.49677031795589954  0.898040709871296  1.0000
  C   C9        1.0  0.24265236840626866  0.4710435534677727  0.185649865604546  1.0000
  C   C10       1.0  0.2933729786153378  0.4760292117706654  0.091810983653474  1.0000
  C   C11       1.0  0.5758669710907115  0.5176304185119561  0.18525354741403527  1.0000
  C   C12       1.0  0.6227430524338684  0.5242544064611393  0.09257363045665563  1.0000
  C   C13       1.0  0.41365966370399565  0.5323321104213008  0.8021249887815713  1.0000
  C   C14       1.0  0.36584707222291263  0.5312350215883227  0.8945722131813199  1.0000
  C   C15       1.0  0.5285762933282354  0.5108254992227046  0.9446387751152656  1.0000
  C   C16       1.0  0.4809592768145875  0.5036252591475828  0.04389258762476093  1.0000
  C   C17       1.0  0.9323710785324905  0.13512017989544486  0.4888819099809112  1.0000
  C   C18       1.0  0.08305391318676661  0.8635576388066966  0.48398161876654205  1.0000
  C   C19       1.0  0.1069521985127295  0.06183007146380249  0.5254633321755621  1.0000
  C   C20       1.0  0.9109266411029463  0.9370182407836509  0.44423950035728405  1.0000
  C   C21       1.0  0.17872833153448636  0.9319468069056499  0.5234924334063535  1.0000
  C   C22       1.0  0.8379735334979584  0.0676350665215324  0.4467099712831484  1.0000
  C   C23       1.0  0.27283901448308967  0.06755667345724702  0.5767950379048088  1.0000
  C   C24       1.0  0.35340753333182556  0.9197495862273615  0.5752325889726322  1.0000
  O   O1        1.0  0.6634549497756765  0.32748347867116206  0.4915343973210469  1.0000
  O   O2        1.0  0.8614878196468041  0.5134518346547735  0.6165087639808674  1.0000
  O   O3        1.0  0.02004299019553451  0.6666897648746682  0.4808048872062257  1.0000
  O   O4        1.0  0.47402217776340894  0.5074750715677965  0.3724035571936568  1.0000
  O   O5        1.0  0.3442641774056199  0.6735262625342884  0.4979568234563274  1.0000
  O   O6        1.0  0.15475686648725434  0.47465041089573384  0.372841076515229  1.0000
  O   O7        1.0  0.9943740304957558  0.325284570460056  0.5059123817911768  1.0000
  O   O8        1.0  0.5284164324414746  0.5012234068020477  0.6178124249278766  1.0000
  O   O9        1.0  0.26053191093532047  0.44276054332716086  0.5384371060704325  1.0000
  O   O10       1.0  0.7525169220044885  0.5527773609258303  0.45187205711839346  1.0000
  O   O11       1.0  0.9916958949195018  0.48834669747549236  0.7644746984684332  1.0000
  O   O12       1.0  0.05712372199944585  0.4453253761468402  0.2265464984412802  1.0000
  F   F1        1.0  0.8088689595134536  0.884317265760096  0.3996240169480388  1.0000
  F   F2        1.0  0.6738845641269078  0.1271404586748162  0.4044545957747872  1.0000
