data_image0
_chemical_formula_structural       Al2H14C24S2O16
_chemical_formula_sum              "Al2 H14 C24 S2 O16"
_cell_length_a       6.640507443141865
_cell_length_b       11.324490552177869
_cell_length_c       13.580258698909462
_cell_angle_alpha    84.42274444219238
_cell_angle_beta     68.82813666259248
_cell_angle_gamma    70.37350130106748

_space_group_name_H-M_alt    "P 1"
_space_group_IT_number       1

loop_
  _space_group_symop_operation_xyz
  'x, y, z'

loop_
  _atom_site_type_symbol
  _atom_site_label
  _atom_site_symmetry_multiplicity
  _atom_site_fract_x
  _atom_site_fract_y
  _atom_site_fract_z
  _atom_site_occupancy
  Al  Al1       1.0  0.5013101036646361  0.49110477230398436  0.4990067474265985  1.0000
  Al  Al2       1.0  0.0005864334418250202  0.49736674035564477  0.4987384161563071  1.0000
  H   H1        1.0  0.27701086024307386  0.5923808702693308  0.3840673451270717  1.0000
  H   H2        1.0  0.7744045610539062  0.3606170780896819  0.5781011547373893  1.0000
  H   H3        1.0  0.2243182409250011  0.2207460194136601  0.342936268806838  1.0000
  H   H4        1.0  0.40065311892738  0.7635159671108912  0.37713284408685144  1.0000
  H   H5        1.0  0.7489089754324069  0.8744591147484687  0.5891571322331686  1.0000
  H   H6        1.0  0.6430363172791046  0.10770788034100322  0.5809410732756177  1.0000
  H   H7        1.0  0.665480064556263  0.4552762546123504  0.18085936428576585  1.0000
  H   H8        1.0  0.21410577993199092  0.577092717714102  0.1797771466917055  1.0000
  H   H9        1.0  0.32233910461626875  0.608644934113869  0.9865561571769916  1.0000
  H   H10       1.0  0.28273563041656047  0.5770964228203043  0.8160278736977632  1.0000
  H   H11       1.0  0.7568460500214229  0.4363556911668525  0.8156472236574431  1.0000
  H   H12       1.0  0.6249901889451266  0.4245169024501295  0.011989975015190203  1.0000
  H   H13       1.0  0.7748895353331234  0.3069152637548243  0.3079664779561496  1.0000
  H   H14       1.0  0.19724699147926109  0.9284656549341153  0.1086850355987536  1.0000
  C   C1        1.0  0.8800012617989452  0.4906761960227684  0.3058401783945826  1.0000
  C   C2        1.0  0.6329396862417837  0.7200463432000391  0.5026957110091956  1.0000
  C   C3        1.0  0.11249501798020134  0.508371727934346  0.6880152392754653  1.0000
  C   C4        1.0  0.3743590660764369  0.26565979740207274  0.48852501827340683  1.0000
  C   C5        1.0  0.4472104660694426  0.12557538667883963  0.482428653297859  1.0000
  C   C6        1.0  0.3710848167612469  0.060639655686429705  0.4247421427596406  1.0000
  C   C7        1.0  0.583023317907241  0.057326588905233684  0.5390686215752893  1.0000
  C   C8        1.0  0.25549258550837806  0.12096355577389772  0.3544400937172938  1.0000
  C   C9        1.0  0.18695965905998685  0.05700914533287  0.29769677996342386  1.0000
  C   C10       1.0  0.559916921996141  0.8603471115743704  0.4951925471869174  1.0000
  C   C11       1.0  0.6402205025578098  0.9261911955786958  0.5448784403331715  1.0000
  C   C12       1.0  0.42558886280758657  0.9272130823586622  0.43295820208303576  1.0000
  C   C13       1.0  0.3563673972407529  0.8642919489772397  0.37269911203652833  1.0000
  C   C14       1.0  0.2380437319655472  0.9249949058243915  0.3076718533998957  1.0000
  C   C15       1.0  0.8106305328117503  0.4872514015493864  0.13807686322416393  1.0000
  C   C16       1.0  0.12094681792983414  0.5569720842719902  0.1358257158274654  1.0000
  C   C17       1.0  0.18098198710069358  0.5733794933087213  0.028815343270728978  1.0000
  C   C18       1.0  0.06554959218482295  0.5408910976909028  0.9711783241947315  1.0000
  C   C19       1.0  0.1371362601181829  0.5457050435329265  0.8599045517231545  1.0000
  C   C20       1.0  0.8388111978294078  0.4657231030726124  0.8608616797075044  1.0000
  C   C21       1.0  0.7663129097395895  0.4596482999433606  0.9691994208795336  1.0000
  C   C22       1.0  0.8764316822256576  0.49679241057118173  0.027219667785956823  1.0000
  C   C23       1.0  0.9344129386405059  0.5134385773270651  0.19147423496603005  1.0000
  C   C24       1.0  0.02716457953263078  0.5083400200985793  0.8053810064023281  1.0000
  S   S1        1.0  0.058054679074011475  0.15261903345250974  0.2091919775582838  1.0000
  S   S2        1.0  0.16674177503116272  0.8214940513468678  0.2444352812839483  1.0000
  O   O1        1.0  0.7121347576849075  0.44617782192344196  0.352613471376813  1.0000
  O   O2        1.0  0.8150480102449149  0.6690632425520279  0.523368743901834  1.0000
  O   O3        1.0  0.9914923827241038  0.4874019052462941  0.6414373542993559  1.0000
  O   O4        1.0  0.4992340268864196  0.31703403863974705  0.5091466668405574  1.0000
  O   O5        1.0  0.3040801408575149  0.5263900284347898  0.6412384043973915  1.0000
  O   O6        1.0  0.18496165651090726  0.32406161365192093  0.4758910216784571  1.0000
  O   O7        1.0  0.9962037992672564  0.5133476093297419  0.3534684771087697  1.0000
  O   O8        1.0  0.5155597724792147  0.6601045458499541  0.486424692890523  1.0000
  O   O9        1.0  0.26190022240356103  0.5435953101618695  0.4483668446608533  1.0000
  O   O10       1.0  0.7495319314015632  0.44035843997800594  0.5434815066512684  1.0000
  O   O11       1.0  0.8032167185439294  0.21927911895430444  0.2804565735142858  1.0000
  O   O12       1.0  0.044823422085322306  0.07391663911395341  0.1351229327945802  1.0000
  O   O13       1.0  0.1749308767191167  0.24284667846111327  0.1688109520432945  1.0000
  O   O14       1.0  0.28056215140716756  0.8391164165409747  0.12242749756557461  1.0000
  O   O15       1.0  0.9225701967072195  0.8585529910672067  0.2749331836020091  1.0000
  O   O16       1.0  0.29331916439607386  0.6954595415950636  0.2633933563297077  1.0000
