data_image0
_chemical_formula_structural       CoH12C14N6O4
_chemical_formula_sum              "Co1 H12 C14 N6 O4"
_cell_length_a       5.399322635320421
_cell_length_b       8.769102866167954
_cell_length_c       9.48435908106615
_cell_angle_alpha    74.83540363419009
_cell_angle_beta     79.81877820016864
_cell_angle_gamma    83.44600403400463

_space_group_name_H-M_alt    "P 1"
_space_group_IT_number       1

loop_
  _space_group_symop_operation_xyz
  'x, y, z'

loop_
  _atom_site_type_symbol
  _atom_site_label
  _atom_site_symmetry_multiplicity
  _atom_site_fract_x
  _atom_site_fract_y
  _atom_site_fract_z
  _atom_site_occupancy
  Co  Co1       1.0  1.3176941209292412e-05  0.49999801017128226  2.253026970322576e-06  1.0000
  H   H1        1.0  0.36721004118363254  0.5823074286721946  0.6792265046020276  1.0000
  H   H2        1.0  0.6327802161438427  0.41769619022333887  0.32076789316712245  1.0000
  H   H3        1.0  0.8325252949529724  0.24200125774723344  0.8618514912222963  1.0000
  H   H4        1.0  0.16748873814081117  0.75798899010762  0.13815629989434808  1.0000
  H   H5        1.0  0.9548897767023161  0.24845013288867787  0.47628463863785003  1.0000
  H   H6        1.0  0.04510607443435787  0.75155458418201  0.5237120768214325  1.0000
  H   H7        1.0  0.8894963546121983  0.1098025547880823  0.6496997514756515  1.0000
  H   H8        1.0  0.11048599247187238  0.8902059053868073  0.35029430550903135  1.0000
  H   H9        1.0  0.2911298628752448  0.9482669198932713  0.7619092858482048  1.0000
  H   H10       1.0  0.7088491711338206  0.05173567379635809  0.23808547079874393  1.0000
  H   H11       1.0  0.3101243848625472  0.20019893487111057  0.3025976577575022  1.0000
  H   H12       1.0  0.6898549869210412  0.7998000929652351  0.6974031925040193  1.0000
  C   C1        1.0  0.24889995792565137  0.48586303498176164  0.6934191998365904  1.0000
  C   C2        1.0  0.7511107327777963  0.5141450157898362  0.3065793892389053  1.0000
  C   C3        1.0  0.9758773602798384  0.314116010740193  0.78851588821869  1.0000
  C   C4        1.0  0.02413400707148841  0.6858837450434551  0.21148673236960755  1.0000
  C   C5        1.0  0.034197615582236586  0.1836052019261061  0.5758169721765399  1.0000
  C   C6        1.0  0.9657967720704831  0.8163936304519198  0.4241770918436814  1.0000
  C   C7        1.0  0.2732173646507333  0.08645042847018661  0.5368245267349039  1.0000
  C   C8        1.0  0.7267746708677834  0.9135555145067401  0.4631765084490171  1.0000
  C   C9        1.0  0.3820870513649267  0.9732744202712241  0.6467741162978341  1.0000
  C   C10       1.0  0.6178937147002654  0.026730507983813802  0.353223062486137  1.0000
  C   C11       1.0  0.3924063413027809  0.11247448769491804  0.3898546019442506  1.0000
  C   C12       1.0  0.6075816698916723  0.8875338916477132  0.6101399399308179  1.0000
  C   C13       1.0  0.49209235213246666  0.4121355457616147  0.04240554363597943  1.0000
  C   C14       1.0  0.5079524228498044  0.5878471716070308  0.9576040236855191  1.0000
  N   N1        1.0  0.0781796968026356  0.43267222954067835  0.8177348955023332  1.0000
  N   N2        1.0  0.9218395692583742  0.567322687584621  0.1822670120509926  1.0000
  N   N3        1.0  0.08105696636080485  0.2989932190374702  0.6531493414166221  1.0000
  N   N4        1.0  0.9189275680888329  0.7010116570767267  0.3468474580813207  1.0000
  N   N5        1.0  0.2554071132613203  0.4067701902165907  0.5907102966257867  1.0000
  N   N6        1.0  0.7445695581786325  0.5932383534115502  0.4092822216490717  1.0000
  O   O1        1.0  0.2737633684182653  0.3573754167611655  0.0739754556268792  1.0000
  O   O2        1.0  0.7262578395035886  0.6426194611886944  0.926031531380616  1.0000
  O   O3        1.0  0.6925536828845225  0.33291664038245034  0.0761385292306898  1.0000
  O   O4        1.0  0.30747572692037284  0.6670698409187993  0.9238706768981046  1.0000
