data_image0
_chemical_formula_structural       Ni2H8C32S4N6O10F24
_chemical_formula_sum              "Ni2 H8 C32 S4 N6 O10 F24"
_cell_length_a       8.201462125175125
_cell_length_b       12.332971235810469
_cell_length_c       12.357073627026157
_cell_angle_alpha    70.93360740546389
_cell_angle_beta     88.93500065072517
_cell_angle_gamma    70.97536502683725

_space_group_name_H-M_alt    "P 1"
_space_group_IT_number       1

loop_
  _space_group_symop_operation_xyz
  'x, y, z'

loop_
  _atom_site_type_symbol
  _atom_site_label
  _atom_site_symmetry_multiplicity
  _atom_site_fract_x
  _atom_site_fract_y
  _atom_site_fract_z
  _atom_site_occupancy
  Ni  Ni1       1.0  1.0857675008005208e-06  1.276161647500099e-06  0.9999998971827321  1.0000
  Ni  Ni2       1.0  6.339533201612478e-07  0.49999975165145827  0.5000007358293244  1.0000
  H   H1        1.0  0.47007746781616794  0.7158084195447784  0.5045779678489879  1.0000
  H   H2        1.0  0.529920671111725  0.28418877199199954  0.4954202702227588  1.0000
  H   H3        1.0  0.5697219206534357  0.8984425910194671  0.3605468225226288  1.0000
  H   H4        1.0  0.4302769786972149  0.10155551445347301  0.6394551566122644  1.0000
  H   H5        1.0  0.24941865008558767  0.7203489291506172  0.843614857050184  1.0000
  H   H6        1.0  0.7505837978395676  0.27965192467984684  0.1563845722347352  1.0000
  H   H7        1.0  0.9017863113938064  0.35680193670312116  0.2377337379644259  1.0000
  H   H8        1.0  0.0982136919107006  0.643198910142104  0.7622681475268818  1.0000
  C   C1        1.0  0.3558704081443622  0.0088352049645906  0.13324697598697804  1.0000
  C   C2        1.0  0.6441321537828132  0.991162910690427  0.8667525328644171  1.0000
  C   C3        1.0  0.36152115375838884  0.9130455897765374  0.24070219518988967  1.0000
  C   C4        1.0  0.6384835208701816  0.0869507062163493  0.7592954547589482  1.0000
  C   C5        1.0  0.2796206762944635  0.7680835998956467  0.3566551633321565  1.0000
  C   C6        1.0  0.7203794555268743  0.23191450976007394  0.6433427549720037  1.0000
  C   C7        1.0  0.4145794352940086  0.7736682277518555  0.4176889111730515  1.0000
  C   C8        1.0  0.585416593835447  0.2263307836442365  0.582310376450529  1.0000
  C   C9        1.0  0.466956086357243  0.867733907385215  0.342676824491356  1.0000
  C   C10       1.0  0.5330435937368918  0.13226511340420188  0.6573232302516201  1.0000
  C   C11       1.0  0.17500341581028792  0.6950918376908959  0.38605711091698675  1.0000
  C   C12       1.0  0.8249948429255555  0.3049026160648154  0.6139395880197823  1.0000
  C   C13       1.0  0.14655976498367826  0.9126349913186755  0.8149017239060254  1.0000
  C   C14       1.0  0.8534455589685875  0.08736495698300221  0.18509877818875956  1.0000
  C   C15       1.0  0.1929901120041535  0.7892483165031906  0.8829139078862479  1.0000
  C   C16       1.0  0.8070127760363519  0.2107516254048178  0.1170866223627627  1.0000
  C   C17       1.0  0.15791035404292586  0.7526266023621204  0.9983167326372208  1.0000
  C   C18       1.0  0.8420925339975865  0.24737333954588792  0.0016837976117897882  1.0000
  C   C19       1.0  0.15573924483296508  0.9438068651958531  0.6836978743753618  1.0000
  C   C20       1.0  0.8442632030921897  0.056193988634611024  0.3163015549095574  1.0000
  C   C21       1.0  0.1760269596094305  0.6173463639537289  0.05763051897297799  1.0000
  C   C22       1.0  0.8239742674568828  0.3826544864827071  0.9423697337397737  1.0000
  C   C23       1.0  0.10074100823342044  0.35652154577390144  0.34758113416834385  1.0000
  C   C24       1.0  0.8992586631518334  0.6434774744239532  0.6524213486268023  1.0000
  C   C25       1.0  0.9297445945782243  0.3978158260179043  0.2972337140158101  1.0000
  C   C26       1.0  0.07025463378871431  0.6021841059052091  0.702768477165975  1.0000
  C   C27       1.0  0.7950396542901856  0.49026108604785185  0.31884963288624124  1.0000
  C   C28       1.0  0.20495913396140258  0.5097397577977176  0.6811514573314594  1.0000
  C   C29       1.0  0.2395365997500463  0.2603803496306085  0.30912089786988156  1.0000
  C   C30       1.0  0.7604635175564881  0.7396177590391703  0.6908810671879022  1.0000
  C   C31       1.0  0.6100675930668515  0.5188221143252392  0.2675605093463886  1.0000
  C   C32       1.0  0.38993120099065237  0.48117872991470984  0.7324389621698586  1.0000
  S   S1        1.0  0.27418065095073985  0.1388249294686759  0.9226800545981388  1.0000
  S   S2        1.0  0.7258193581596896  0.861175917770922  0.07732021219172212  1.0000
  S   S3        1.0  0.4622017393370824  0.17296657832316237  0.009364245086992197  1.0000
  S   S4        1.0  0.5377999307475462  0.8270333603880078  0.9906362992391277  1.0000
  N   N1        1.0  0.2496339469199782  0.0331855330067583  0.039174759563678684  1.0000
  N   N2        1.0  0.7503665052087667  0.9668144025075734  0.9608257988395434  1.0000
  N   N3        1.0  0.4706315671510806  0.06576542036618349  0.12991695557257538  1.0000
  N   N4        1.0  0.5293705459518634  0.9342336066197207  0.8700838803668983  1.0000
  N   N5        1.0  0.09056649163871106  0.6326751765381928  0.41491476109433  1.0000
  N   N6        1.0  0.9094338551968875  0.36732749774315465  0.5850832896902458  1.0000
  O   O1        1.0  0.24763527414835101  0.8524216828207399  0.24786165138529262  1.0000
  O   O2        1.0  0.7523653064972322  0.1475755155040943  0.7521349398307816  1.0000
  O   O3        1.0  0.0834566809486503  0.0052010261647766  0.8455085579218743  1.0000
  O   O4        1.0  0.9165469849323886  0.9947998308625187  0.15449085728592848  1.0000
  O   O5        1.0  0.10032194709808095  0.8183708599953975  0.05999675512191522  1.0000
  O   O6        1.0  0.8996776247999559  0.1816308993638458  0.940001601353138  1.0000
  O   O7        1.0  0.16029945603552428  0.3866316241283271  0.42259993751937935  1.0000
  O   O8        1.0  0.8396989973938531  0.6133673928726894  0.5774025593528831  1.0000
  O   O9        1.0  0.7995181013126073  0.5547072597995707  0.37952276038477345  1.0000
  O   O10       1.0  0.20048112995729647  0.44529267232073977  0.6204786214462883  1.0000
  F   F1        1.0  0.27702110414011827  0.8546333013208243  0.6553533476018739  1.0000
  F   F2        1.0  0.7229796886167607  0.1453684614324473  0.34464418544533965  1.0000
  F   F3        1.0  0.9984543602478411  0.9596411842721508  0.6332557661926259  1.0000
  F   F4        1.0  0.001547192931795402  0.04036149241728279  0.36674550791774146  1.0000
  F   F5        1.0  0.18897984553656497  0.0492592025639809  0.6351875118306012  1.0000
  F   F6        1.0  0.8110254813186654  0.9507407459348942  0.3648121809134605  1.0000
  F   F7        1.0  0.026318132626613536  0.6005822259311486  0.031175070251407495  1.0000
  F   F8        1.0  0.9736850844301869  0.3994195424270401  0.968825672044481  1.0000
  F   F9        1.0  0.30828586414454406  0.5403993141486224  0.02261435681155894  1.0000
  F   F10       1.0  0.6917177959305716  0.45960154248430035  0.9773866770976977  1.0000
  F   F11       1.0  0.19998568516821544  0.5834635333497928  0.17349294257527237  1.0000
  F   F12       1.0  0.8000167569510167  0.41653732008629135  0.8265081054110934  1.0000
  F   F13       1.0  0.3193238336110085  0.15842820410414052  0.4009820542834247  1.0000
  F   F14       1.0  0.6806770615360522  0.8415708196849323  0.5990187957331584  1.0000
  F   F15       1.0  0.1728829726568506  0.2249433259389164  0.23149184156727634  1.0000
  F   F16       1.0  0.8271142599136853  0.7750556876680718  0.7685114787328187  1.0000
  F   F17       1.0  0.36381128392248746  0.30561120402655456  0.259300259882245  1.0000
  F   F18       1.0  0.6361867293915326  0.6943887248969176  0.7407011360259259  1.0000
  F   F19       1.0  0.6015694578836274  0.458506014809096  0.19490171392940425  1.0000
  F   F20       1.0  0.39843010820848695  0.5414957441557745  0.8050982612470958  1.0000
  F   F21       1.0  0.5097469165820031  0.48894252321648674  0.3539215245388688  1.0000
  F   F22       1.0  0.49025065951962415  0.5110583178266311  0.6460779610544873  1.0000
  F   F23       1.0  0.5342831111089551  0.6408765518878496  0.20795601168444464  1.0000
  F   F24       1.0  0.46571690090443957  0.35912429554893777  0.7920434457546929  1.0000
