data_image0
_chemical_formula_structural       Cu4H32C44S4N12
_chemical_formula_sum              "Cu4 H32 C44 S4 N12"
_cell_length_a       7.679385013002798
_cell_length_b       11.560189855014691
_cell_length_c       12.249876224019811
_cell_angle_alpha    90.00018211295838
_cell_angle_beta     90.00009615271935
_cell_angle_gamma    90.00001719928672

_space_group_name_H-M_alt    "P 1"
_space_group_IT_number       1

loop_
  _space_group_symop_operation_xyz
  'x, y, z'

loop_
  _atom_site_type_symbol
  _atom_site_label
  _atom_site_symmetry_multiplicity
  _atom_site_fract_x
  _atom_site_fract_y
  _atom_site_fract_z
  _atom_site_occupancy
  Cu  Cu1       1.0  0.7570911352532191  0.9413691141370111  0.250000253134651  1.0000
  Cu  Cu2       1.0  0.7429069508019026  0.44136951775477945  0.7500004677298122  1.0000
  Cu  Cu3       1.0  0.2429045797689753  0.05863008284928381  0.7500004471954895  1.0000
  Cu  Cu4       1.0  0.2570965773435887  0.5586244890046786  0.24999941626191458  1.0000
  H   H1        1.0  0.7375169966566305  0.9810894732621521  0.501881214643646  1.0000
  H   H2        1.0  0.7624811087145889  0.48108643531526957  0.4981220741228967  1.0000
  H   H3        1.0  0.2624819632220934  0.018914941616955606  0.0018785532292753  1.0000
  H   H4        1.0  0.2375217789532442  0.5189084088182413  0.9981203750060459  1.0000
  H   H5        1.0  0.2624787183700973  0.018914913954446902  0.4981219346986022  1.0000
  H   H6        1.0  0.2375237216211161  0.5189093015224558  0.5018794425416644  1.0000
  H   H7        1.0  0.7375163561728896  0.9810877155162318  0.998119698103089  1.0000
  H   H8        1.0  0.7624817491915792  0.48108732801522813  0.0018786926534844  1.0000
  H   H9        1.0  0.5048039710159101  0.3348861142749798  0.3344033303114741  1.0000
  H   H10       1.0  0.9951940632573298  0.8348862920646314  0.665592990121901  1.0000
  H   H11       1.0  0.4951997822269689  0.6651194228250931  0.8344039736410663  1.0000
  H   H12       1.0  0.0048001244758638  0.16511175502501632  0.1655953922535929  1.0000
  H   H13       1.0  0.4951995571312295  0.6651191379731501  0.6655957373622953  1.0000
  H   H14       1.0  0.0047990473855037  0.1651137699536065  0.33440444486904397  1.0000
  H   H15       1.0  0.5048037459197516  0.3348840993476472  0.1655950940301167  1.0000
  H   H16       1.0  0.9951968927335246  0.8348857118860026  0.8344053080746504  1.0000
  H   H17       1.0  0.6286150038301984  0.13921854592090452  0.6229921412187096  1.0000
  H   H18       1.0  0.8713803309278207  0.6392116716907453  0.37700604247623903  1.0000
  H   H19       1.0  0.3713829768543775  0.8607880077715183  0.12299293128377539  1.0000
  H   H20       1.0  0.1286209315522058  0.3607801685832541  0.8770062040117921  1.0000
  H   H21       1.0  0.37138201338083127  0.8607901664787933  0.3770077427915838  1.0000
  H   H22       1.0  0.12861929065397254  0.3607832001046774  0.6229930251799374  1.0000
  H   H23       1.0  0.628615342543  0.1392155144021174  0.8770069527194337  1.0000
  H   H24       1.0  0.8713799922182802  0.6392147032136608  0.12299367997984229  1.0000
  H   H25       1.0  0.5132346004948617  0.3207439558683164  0.5371449539669939  1.0000
  H   H26       1.0  0.9867647290873977  0.8207399877282812  0.4628505077915435  1.0000
  H   H27       1.0  0.4867709643716509  0.6792623081033967  0.03714613881709989  1.0000
  H   H28       1.0  0.013235460146091801  0.17925473737597744  0.9628532694178631  1.0000
  H   H29       1.0  0.48677153202724094  0.679264756529463  0.4628532973785582  1.0000
  H   H30       1.0  0.013232288117635002  0.179257479177231  0.5371469271975825  1.0000
  H   H31       1.0  0.5132325637761569  0.32074121407071493  0.962853745188859  1.0000
  H   H32       1.0  0.9867641614393818  0.8207418644989632  0.0371482472452342  1.0000
  C   C1        1.0  0.6839069655471092  0.06058636224344842  0.4676166052305391  1.0000
  C   C2        1.0  0.816089633169021  0.5605808672388833  0.5323846084208341  1.0000
  C   C3        1.0  0.3160932363968668  0.9394204894695762  0.9676170642069764  1.0000
  C   C4        1.0  0.18391071024464617  0.43941067502152015  0.0323831228067419  1.0000
  C   C5        1.0  0.31608874947568216  0.9394197550430408  0.5323832787751783  1.0000
  C   C6        1.0  0.18391259278995156  0.43941313952183236  0.46761609190497916  1.0000
  C   C7        1.0  0.6839089895635413  0.06058389774211291  0.03238281979959369  1.0000
  C   C8        1.0  0.8160928178997581  0.5605833317365595  0.9676159448501949  1.0000
  C   C9        1.0  0.1113388715213546  0.8041394745173209  0.24999970677557568  1.0000
  C   C10       1.0  0.38865459184607687  0.3041450952191554  0.7500017079616015  1.0000
  C   C11       1.0  0.8886581456903856  0.19586318262125252  0.7500018098952096  1.0000
  C   C12       1.0  0.6113372166169101  0.6958644822205147  0.24999980871679384  1.0000
  C   C13       1.0  0.6142019805708899  0.16386813132607617  0.3104110529484956  1.0000
  C   C14       1.0  0.8857998771164688  0.6638666398630878  0.6895904698855873  1.0000
  C   C15       1.0  0.3858017086831964  0.8361355947232244  0.8104088273530293  1.0000
  C   C16       1.0  0.11420218773447031  0.33612889309508637  0.18958860147769488  1.0000
  C   C17       1.0  0.3858002453923675  0.8361345258143588  0.6895912800598225  1.0000
  C   C18       1.0  0.11420104665553053  0.33612996201060247  0.3104102304434234  1.0000
  C   C19       1.0  0.6142018194609237  0.16386619737136954  0.18958860764600868  1.0000
  C   C20       1.0  0.8858000382233725  0.6638694388513574  0.8104104661850329  1.0000
  C   C21       1.0  0.5543952145790669  0.2569817545526406  0.3732746530638522  1.0000
  C   C22       1.0  0.9456053861890794  0.7569817920196018  0.6267214341640042  1.0000
  C   C23       1.0  0.44561254889362095  0.7430213186229653  0.873277109899213  1.0000
  C   C24       1.0  0.05439260444280339  0.24301698892396936  0.1267249382068414  1.0000
  C   C25       1.0  0.4456096157532983  0.743022632655155  0.6267227819397547  1.0000
  C   C26       1.0  0.0543929332037649  0.24301653992372244  0.3732760008271043  1.0000
  C   C27       1.0  0.5543935836300663  0.25698047347737685  0.1267235904403137  1.0000
  C   C28       1.0  0.9456057149552778  0.7569804779885491  0.8732765784568669  1.0000
  C   C29       1.0  0.6243958008370711  0.14904782013939413  0.5348492222760157  1.0000
  C   C30       1.0  0.8756008408884457  0.6490429742320388  0.4651489908465862  1.0000
  C   C31       1.0  0.37560454915600877  0.8509584360833597  0.0348499873734838  1.0000
  C   C32       1.0  0.12439935447349632  0.3509517586275878  0.9651507511685651  1.0000
  C   C33       1.0  0.37560121637375227  0.8509600272226053  0.46515066173298436  1.0000
  C   C34       1.0  0.1243987806935607  0.3509527626010753  0.5348500768108835  1.0000
  C   C35       1.0  0.6243963746157064  0.14904595112683694  0.9651490802976213  1.0000
  C   C36       1.0  0.8756002671117713  0.6490439782096618  0.0348507654932391  1.0000
  C   C37       1.0  0.5593098199288138  0.2494517931335595  0.4866268101252729  1.0000
  C   C38       1.0  0.9406881728048619  0.7494471219629232  0.5133717035575529  1.0000
  C   C39       1.0  0.440690432712124  0.7505533926600878  0.9866268353065591  1.0000
  C   C40       1.0  0.059310817718795796  0.2505460862098445  0.013371970001131198  1.0000
  C   C41       1.0  0.4406898016565961  0.7505534591155866  0.513373073881219  1.0000
  C   C42       1.0  0.0593101465897377  0.25054947990776816  0.4866273641005208  1.0000
  C   C43       1.0  0.5593091888700528  0.24944753439782374  0.013371416023900901  1.0000
  C   C44       1.0  0.9406901060518963  0.7494496506247615  0.9866279139918035  1.0000
  S   S1        1.0  0.055389111985185514  0.9407946644607322  0.2499998817724318  1.0000
  S   S2        1.0  0.4446096265826044  0.4408020255502125  0.7500035747169492  1.0000
  S   S3        1.0  0.9446079052255314  0.05919934230225722  0.7500024512201833  1.0000
  S   S4        1.0  0.5553925993791397  0.5591989015134545  0.24999794195399969  1.0000
  N   N1        1.0  0.6787853171035536  0.06678503703162161  0.35805877011995335  1.0000
  N   N2        1.0  0.8212164933784152  0.5667851029395693  0.6419424620982284  1.0000
  N   N3        1.0  0.32121849922250323  0.9332179847860262  0.8580575832757873  1.0000
  N   N4        1.0  0.17878804877815918  0.43321199929093984  0.1419417688430613  1.0000
  N   N5        1.0  0.32121430448339783  0.9332176201071932  0.6419427465522105  1.0000
  N   N6        1.0  0.17878833695532137  0.43321149893309757  0.35805742189806017  1.0000
  N   N7        1.0  0.6787850289242171  0.06678553738671411  0.1419414843953959  1.0000
  N   N8        1.0  0.82121678155427  0.5667837375426573  0.8580572988171582  1.0000
  N   N9        1.0  0.1577709513345695  0.7065718770384282  0.249999585257676  1.0000
  N   N10       1.0  0.3422172558419164  0.20658094933522625  0.7500015374133255  1.0000
  N   N11       1.0  0.8422273680614083  0.293416939497128  0.7500019313930792  1.0000
  N   N12       1.0  0.6577654373052937  0.7934182476512462  0.24999997924471973  1.0000
