data_image0
_chemical_formula_structural       Al4H12C32N8O36
_chemical_formula_sum              "Al4 H12 C32 N8 O36"
_cell_length_a       7.006071336685529
_cell_length_b       10.82939740077284
_cell_length_c       17.988970866835302
_cell_angle_alpha    89.9984381368198
_cell_angle_beta     89.09277852958613
_cell_angle_gamma    89.21519214124626

_space_group_name_H-M_alt    "P 1"
_space_group_IT_number       1

loop_
  _space_group_symop_operation_xyz
  'x, y, z'

loop_
  _atom_site_type_symbol
  _atom_site_label
  _atom_site_symmetry_multiplicity
  _atom_site_fract_x
  _atom_site_fract_y
  _atom_site_fract_z
  _atom_site_occupancy
  Al  Al1       1.0  0.008090454532890604  0.9970980598116909  0.5010504765006517  1.0000
  Al  Al2       1.0  0.5079759538002763  0.002470864374807  0.4998719488068631  1.0000
  Al  Al3       1.0  0.9919260513438107  0.49746150839626296  0.0008222925595049008  1.0000
  Al  Al4       1.0  0.49175956294660494  0.5027226469212919  0.9998574008369874  1.0000
  H   H1        1.0  0.26458466641921774  0.8378859243644496  0.48566684164435975  1.0000
  H   H2        1.0  0.7601474245511926  0.16279966069237867  0.48932491581165044  1.0000
  H   H3        1.0  0.2361764162937234  0.6598284597115693  0.9808173461570321  1.0000
  H   H4        1.0  0.7401127927326528  0.335619889210335  0.0012195936047732006  1.0000
  H   H5        1.0  0.4477850251558167  0.7229646417415124  0.821523453392132  1.0000
  H   H6        1.0  0.052282337011718014  0.7763481618616552  0.6783319725222441  1.0000
  H   H7        1.0  0.9438521040274709  0.3140563596206079  0.1934090448922703  1.0000
  H   H8        1.0  0.5549848883851212  0.19030153768820665  0.3087369528484629  1.0000
  H   H9        1.0  0.5517794118443221  0.3135387829905127  0.8083200773214827  1.0000
  H   H10       1.0  0.9488365689402304  0.18166388690848112  0.6937511573129669  1.0000
  H   H11       1.0  0.4430136960074337  0.689584166381202  0.19486549578522275  1.0000
  H   H12       1.0  0.0570492231207353  0.8123155322828094  0.30455085621864003  1.0000
  C   C1        1.0  0.7642400055284784  0.8672853051833227  0.3958116225450325  1.0000
  C   C2        1.0  0.7534504741370898  0.8656143757771699  0.6036578892877316  1.0000
  C   C3        1.0  0.24741192036120208  0.1300531701525216  0.6053108904710954  1.0000
  C   C4        1.0  0.2599948839089379  0.13411319382039713  0.3967412338379149  1.0000
  C   C5        1.0  0.7361558796462052  0.633751828226124  0.10394330787576683  1.0000
  C   C6        1.0  0.7460302142780509  0.6334095333394245  0.8962322593420639  1.0000
  C   C7        1.0  0.252887503618723  0.3652854262150598  0.8968365033982412  1.0000
  C   C8        1.0  0.23931377609911664  0.37012203787569575  0.1054505236046666  1.0000
  C   C9        1.0  0.7494541459171985  0.8020291775922598  0.6776524458499154  1.0000
  C   C10       1.0  0.7505079032790579  0.6974239912857454  0.8223983714336073  1.0000
  C   C11       1.0  0.5813614257697568  0.7850308341166181  0.7190882322871561  1.0000
  C   C12       1.0  0.918712737232653  0.7145033220454095  0.7809299583348592  1.0000
  C   C13       1.0  0.5798485910271085  0.7349783331418465  0.7900043176867728  1.0000
  C   C14       1.0  0.9203178589523947  0.7645094279942484  0.7100024516791805  1.0000
  C   C15       1.0  0.25238982162304074  0.19621945838463964  0.3224220418654938  1.0000
  C   C16       1.0  0.2465646235116169  0.30813111442573415  0.1797619912933541  1.0000
  C   C17       1.0  0.08198900320136462  0.23056993892646452  0.2882491317310212  1.0000
  C   C18       1.0  0.4169601088141377  0.27379171645136313  0.21390545470681843  1.0000
  C   C19       1.0  0.07701256985351533  0.285542791649263  0.21876339945566775  1.0000
  C   C20       1.0  0.4218511243097041  0.21880798243532243  0.2833881381492276  1.0000
  C   C21       1.0  0.2510398322246772  0.19184941850896556  0.6796753575981072  1.0000
  C   C22       1.0  0.24958882357385903  0.3033600333633331  0.8224531618830541  1.0000
  C   C23       1.0  0.4191499402515932  0.22851547605976208  0.7136020963562545  1.0000
  C   C24       1.0  0.08149526570323933  0.26682596053680646  0.7884474134160586  1.0000
  C   C25       1.0  0.42039344273948853  0.2833424292458062  0.7831650297942687  1.0000
  C   C26       1.0  0.08021459152654133  0.2118421294039264  0.7189418809069252  1.0000
  C   C27       1.0  0.7555709203615211  0.8059247808174135  0.3213694438352306  1.0000
  C   C28       1.0  0.7447735566918895  0.6951854336620045  0.1784023273214075  1.0000
  C   C29       1.0  0.5841479265031708  0.7720207651047131  0.2886581169755402  1.0000
  C   C30       1.0  0.9161234648099212  0.7292364098264628  0.211006590791591  1.0000
  C   C31       1.0  0.5767980644001443  0.7176976282102672  0.21905604544493681  1.0000
  C   C32       1.0  0.923284044700566  0.7837197473456425  0.2805981582154615  1.0000
  N   N1        1.0  0.3940826612693941  0.8154124557549377  0.6874815477530947  1.0000
  N   N2        1.0  0.10530085448772304  0.6830146877274714  0.8128126541196183  1.0000
  N   N3        1.0  0.8967165695093939  0.20435469440793946  0.3241180392965788  1.0000
  N   N4        1.0  0.6024434755240621  0.2992904373033055  0.17798471129260215  1.0000
  N   N5        1.0  0.6065665061503938  0.20511435501248337  0.6777527482143952  1.0000
  N   N6        1.0  0.8941704982442505  0.2911287046535946  0.8241567490864484  1.0000
  N   N7        1.0  0.39920400983762516  0.7979431574876229  0.3258308780853767  1.0000
  N   N8        1.0  0.10198886208037553  0.7047621316186009  0.17416864844427957  1.0000
  O   O1        1.0  0.928090414344915  0.8922011983179556  0.4204035155826774  1.0000
  O   O2        1.0  0.5924571431143024  0.8988408462446171  0.5785683900720429  1.0000
  O   O3        1.0  0.4083412417167197  0.11390302679679107  0.5726345154513552  1.0000
  O   O4        1.0  0.10007447599016221  0.11322709894993468  0.4284467365457375  1.0000
  O   O5        1.0  0.08522926703975743  0.09989762055013776  0.5814578325146229  1.0000
  O   O6        1.0  0.4250949767172472  0.10850263539890646  0.4209878348859561  1.0000
  O   O7        1.0  0.603357055491152  0.8883634469532353  0.427482192941426  1.0000
  O   O8        1.0  0.916262699286307  0.8819683600775504  0.5734380866518906  1.0000
  O   O9        1.0  0.26053010872399085  0.9246875225847971  0.4993547736496781  1.0000
  O   O10       1.0  0.7581136230874749  0.07487127500069589  0.4998934983405619  1.0000
  O   O11       1.0  0.8968741303270779  0.6131846824262083  0.0721059002268376  1.0000
  O   O12       1.0  0.5828791204400263  0.6168438837879434  0.926276438707497  1.0000
  O   O13       1.0  0.41541837342619214  0.39471345138633745  0.9208402446906521  1.0000
  O   O14       1.0  0.0747121762023326  0.3955521119953289  0.08080035413892263  1.0000
  O   O15       1.0  0.09133085343656693  0.38234461718602114  0.9290223335538386  1.0000
  O   O16       1.0  0.39911014676145856  0.3911645256119272  0.07383658682658023  1.0000
  O   O17       1.0  0.5724542535989415  0.6084339437520611  0.07951551326367931  1.0000
  O   O18       1.0  0.9069523694602852  0.5999265287456479  0.9213720576407951  1.0000
  O   O19       1.0  0.2394986136357105  0.5752720886331273  0.9988941252070945  1.0000
  O   O20       1.0  0.7418018888308  0.4252374950655876  0.0009246458614171994  1.0000
  O   O21       1.0  0.3116768160355505  0.9102341253798086  0.7100397334513034  1.0000
  O   O22       1.0  0.3290607056735624  0.739239546954451  0.6437399507412992  1.0000
  O   O23       1.0  0.16946593726476075  0.7575445878320081  0.8580243503609568  1.0000
  O   O24       1.0  0.18790569399958207  0.5886799941187703  0.7898935177236268  1.0000
  O   O25       1.0  0.8237120018105274  0.10519178080515698  0.3065524486361113  1.0000
  O   O26       1.0  0.8238002931053149  0.2837090341178126  0.36530710073080297  1.0000
  O   O27       1.0  0.6750302221666689  0.21919739066360217  0.1373243945997871  1.0000
  O   O28       1.0  0.6758611323765679  0.39850858797667843  0.19524372043343874  1.0000
  O   O29       1.0  0.683995267575888  0.10500020072401378  0.6933028054080381  1.0000
  O   O30       1.0  0.6766000802438087  0.28736112034074063  0.6390525656629791  1.0000
  O   O31       1.0  0.8239595972732161  0.2099696100966497  0.8637296239355622  1.0000
  O   O32       1.0  0.8169515465489499  0.3909179169686324  0.8078060723464731  1.0000
  O   O33       1.0  0.33173699278191293  0.7187962439094518  0.36768637582303404  1.0000
  O   O34       1.0  0.3201688421368446  0.896468238382603  0.3081900298613576  1.0000
  O   O35       1.0  0.18054476215220214  0.6054805847501753  0.1908900401280462  1.0000
  O   O36       1.0  0.17101189289191862  0.7862204855030157  0.1346675293155641  1.0000
