data_image0
_chemical_formula_structural       K2Fe4H48C24S2N8O20
_chemical_formula_sum              "K2 Fe4 H48 C24 S2 N8 O20"
_cell_length_a       9.385107016908586
_cell_length_b       11.08641451055036
_cell_length_c       12.966
_cell_angle_alpha    99.61096827932076
_cell_angle_beta     109.23288409661487
_cell_angle_gamma    112.7875439226398

_space_group_name_H-M_alt    "P 1"
_space_group_IT_number       1

loop_
  _space_group_symop_operation_xyz
  'x, y, z'

loop_
  _atom_site_type_symbol
  _atom_site_label
  _atom_site_symmetry_multiplicity
  _atom_site_fract_x
  _atom_site_fract_y
  _atom_site_fract_z
  _atom_site_occupancy
  K   K1        1.0  0.4998991099510377  0.9245779576019899  0.3366059240540978  1.0000
  K   K2        1.0  0.5001031611589256  0.0754236395775862  0.6633921460933222  1.0000
  Fe  Fe1       1.0  0.6241431016083467  0.6289333849376106  0.08734465384967646  1.0000
  Fe  Fe2       1.0  0.375850999360253  0.3710619740715089  0.9126428652502413  1.0000
  Fe  Fe3       1.0  0.5759834145114553  0.47015531174436387  0.20943016822520386  1.0000
  Fe  Fe4       1.0  0.4240112056044866  0.5298390075696773  0.7905573262355077  1.0000
  H   H1        1.0  0.07469621718721703  0.23674792601142508  0.5413903216822433  1.0000
  H   H2        1.0  0.9253033679782021  0.7632567902533722  0.45861526578820394  1.0000
  H   H3        1.0  0.9008247077186124  0.2713396208777965  0.53210935503909  1.0000
  H   H4        1.0  0.09917079237612826  0.7286619763017796  0.4678909569076097  1.0000
  H   H5        1.0  0.9805830980620626  0.2990516534277106  0.3691500552595883  1.0000
  H   H6        1.0  0.01941917304790056  0.7009499437518656  0.6308541848708629  1.0000
  H   H7        1.0  0.9341999101095765  0.120508976843837  0.3256986746012274  1.0000
  H   H8        1.0  0.06580010399531504  0.8794926203357393  0.674306569878283  1.0000
  H   H9        1.0  0.7146129921746578  0.0758946214469205  0.1420475848585596  1.0000
  H   H10       1.0  0.28539458271638557  0.9241121742080338  0.8579548057419544  1.0000
  H   H11       1.0  0.7535239365016935  0.2524764331178702  0.1836741787503159  1.0000
  H   H12       1.0  0.24647521972426034  0.7475314022321626  0.8163309804631994  1.0000
  H   H13       1.0  0.4577276001963853  0.1668273924699548  0.17483045864872082  1.0000
  H   H14       1.0  0.5422722334927669  0.8331700459293145  0.8251756916230447  1.0000
  H   H15       1.0  0.46331692721676626  0.1158771352812238  0.039026256278205634  1.0000
  H   H16       1.0  0.5366808298830463  0.8841244618983524  0.9609792213024734  1.0000
  H   H17       1.0  0.1662387816061682  0.927193830412655  0.9841509875083646  1.0000
  H   H18       1.0  0.8337678230982063  0.0728036079866143  0.015851378468361984  1.0000
  H   H19       1.0  0.1922657630864678  0.9768215954649975  0.12971803456929365  1.0000
  H   H20       1.0  0.8077362373998938  0.023173763544122  0.8702852505059154  1.0000
  H   H21       1.0  0.986109601807243  0.7259338164229234  0.017453093064119636  1.0000
  H   H22       1.0  0.01389743183659679  0.2740605028911247  0.9825450736822674  1.0000
  H   H23       1.0  0.15490485669495516  0.7004800015776098  0.9980405869090349  1.0000
  H   H24       1.0  0.8451045241618331  0.2995163971265882  0.0019615213273241083  1.0000
  H   H25       1.0  0.9868972787035162  0.6297755379490013  0.2060895270892119  1.0000
  H   H26       1.0  0.013101336275234146  0.3702198210601253  0.7939090945265405  1.0000
  H   H27       1.0  0.0024964171040196253  0.5381784017725337  0.08776912350737125  1.0000
  H   H28       1.0  0.9975067118848742  0.4618169572365857  0.912232116897549  1.0000
  H   H29       1.0  0.10804861101626528  0.4723251553675282  0.256968304198459  1.0000
  H   H30       1.0  0.891951222672887  0.5276722830317482  0.7430370748254234  1.0000
  H   H31       1.0  0.2775486453656129  0.5588600162200024  0.21839957480895583  1.0000
  H   H32       1.0  0.7224522266182162  0.4411353427891171  0.781604983688652  1.0000
  H   H33       1.0  0.49307108840079655  0.6344001016460794  0.41356283660512366  1.0000
  H   H34       1.0  0.506935448195577  0.3656087733990248  0.5864434595131839  1.0000
  H   H35       1.0  0.3259659251191138  0.5404948424013796  0.4519442696131719  1.0000
  H   H36       1.0  0.6740439067770083  0.4595119532535747  0.5480602016298093  1.0000
  H   H37       1.0  0.3907322494474458  0.7622025394465339  0.5884327346297624  1.0000
  H   H38       1.0  0.6092679450731779  0.237803216513349  0.41156620532233035  1.0000
  H   H39       1.0  0.5609503466713264  0.7197195589549708  0.6283040062347567  1.0000
  H   H40       1.0  0.43904829040729243  0.2802893160901334  0.3717011776179646  1.0000
  H   H41       1.0  0.773874818988162  0.8341847883232775  0.5350835850929697  1.0000
  H   H42       1.0  0.2261298895426052  0.1658209676365985  0.4649264573749576  1.0000
  H   H43       1.0  0.8238723354399085  0.9009685618211093  0.6855658591495128  1.0000
  H   H44       1.0  0.17612639184657303  0.0990423926141446  0.314444270542225  1.0000
  H   H45       1.0  0.8676945758372838  0.1333107423119486  0.6595681784745367  1.0000
  H   H46       1.0  0.13230744674894618  0.8666981327331555  0.34043704135036273  1.0000
  H   H47       1.0  0.019962367129750205  0.080023250592852  0.6465590153155817  1.0000
  H   H48       1.0  0.9800367890962035  0.9199845847571808  0.3534469151458168  1.0000
  C   C1        1.0  0.9360911490364713  0.1988967870824823  0.49095854908642883  1.0000
  C   C2        1.0  0.06390669827121101  0.8011068894872508  0.5090449331023592  1.0000
  C   C3        1.0  0.9008292009613186  0.1940798797963765  0.36762911446103896  1.0000
  C   C4        1.0  0.09917255100130974  0.805922757078271  0.6323751503086115  1.0000
  C   C5        1.0  0.6810226640233239  0.1478758306285926  0.1858821262595711  1.0000
  C   C6        1.0  0.318981435152246  0.852128885636212  0.8141214525127723  1.0000
  C   C7        1.0  0.4920890716525221  0.1015532562221608  0.12443017146909342  1.0000
  C   C8        1.0  0.5079125901022367  0.8984473012623369  0.8755737749488122  1.0000
  C   C9        1.0  0.21673695873946738  0.9138347883839231  0.0689095737809424  1.0000
  C   C10       1.0  0.7832708646753161  0.0861647294055032  0.9310933796208829  1.0000
  C   C11       1.0  0.12535021679526895  0.7625799487590399  0.05572108317408462  1.0000
  C   C12       1.0  0.8746547402592313  0.2374185293353079  0.9442779533769752  1.0000
  C   C13       1.0  0.07833450935149243  0.618895128980931  0.17429847333846035  1.0000
  C   C14       1.0  0.9216675813427386  0.3811023094183383  0.8257028163448582  1.0000
  C   C15       1.0  0.19006053603298773  0.57319741131505  0.2529148758069155  1.0000
  C   C16       1.0  0.8099432925189801  0.4268010667792979  0.7470900616538216  1.0000
  C   C17       1.0  0.4000188811650176  0.6420647337447534  0.44529295938259145  1.0000
  C   C18       1.0  0.5999846988632171  0.3579410222151296  0.5547083302853153  1.0000
  C   C19       1.0  0.48774568121555006  0.7519407490485577  0.5637324613169525  1.0000
  C   C20       1.0  0.5122506086501274  0.24806604660639658  0.4362695522936733  1.0000
  C   C21       1.0  0.7725526767796751  0.9117148501244046  0.5997926391018282  1.0000
  C   C22       1.0  0.2274487364513503  0.0882929852256282  0.4002153720020303  1.0000
  C   C23       1.0  0.8842525076388199  0.05607699360741951  0.6056797661800671  1.0000
  C   C24       1.0  0.11574655837926438  0.9439287623524564  0.39432584592957914  1.0000
  S   S1        1.0  0.6290780892550814  0.4290748799100328  0.05369484578000083  1.0000
  S   S2        1.0  0.3709120168507098  0.5709194394040082  0.9462923436351857  1.0000
  N   N1        1.0  0.7744433247414407  0.7754669692233662  0.09662170178221886  1.0000
  N   N2        1.0  0.2255483388063553  0.22452423100544652  0.9033715836984086  1.0000
  N   N3        1.0  0.602128179183829  0.6537217949344267  0.21600672790258804  1.0000
  N   N4        1.0  0.3978662605163734  0.3462683655993146  0.7839862998376644  1.0000
  N   N5        1.0  0.3776803801327802  0.3694639627400278  0.188173309460673  1.0000
  N   N6        1.0  0.6223214399378492  0.630527237488792  0.8118038877310242  1.0000
  N   N7        1.0  0.7343962277783334  0.4827158679549015  0.32210854581170173  1.0000
  N   N8        1.0  0.2655914630065155  0.5172878086148316  0.6778732335199393  1.0000
  O   O1        1.0  0.8760969572897608  0.8929774654686469  0.11560697025594642  1.0000
  O   O2        1.0  0.12389818197350878  0.1070158141503228  0.8843843558049612  1.0000
  O   O3        1.0  0.6343008928665981  0.7494818701943302  0.2979125692799017  1.0000
  O   O4        1.0  0.3656800950110295  0.2505103697295681  0.7020713779488331  1.0000
  O   O5        1.0  0.2504969917573234  0.2871055570069672  0.1902584543583288  1.0000
  O   O6        1.0  0.749488556138587  0.7128617302351046  0.8097060505628448  1.0000
  O   O7        1.0  0.8325493946652499  0.4739616354168064  0.40353151484864463  1.0000
  O   O8        1.0  0.16744470630334973  0.5260337235923132  0.5964598604906685  1.0000
  O   O9        1.0  0.8400515137209795  0.0621945594333297  0.49072869799476143  1.0000
  O   O10       1.0  0.1599485905917746  0.9378091171363963  0.5092760935886105  1.0000
  O   O11       1.0  0.7232057209760683  0.1513141022441999  0.3032764267536407  1.0000
  O   O12       1.0  0.27679828799163897  0.8486885346304477  0.6967260624190814  1.0000
  O   O13       1.0  0.39691515810809364  0.9587548141331226  0.1116376611205894  1.0000
  O   O14       1.0  0.6030915368041504  0.0412447036563037  0.888367336951525  1.0000
  O   O15       1.0  0.18334371068847602  0.7490472776526502  0.16805800151683314  1.0000
  O   O16       1.0  0.8166594183004251  0.2509480813564693  0.8319409251444514  1.0000
  O   O17       1.0  0.2868865712058266  0.676403782707709  0.3661696916206624  1.0000
  O   O18       1.0  0.7131145714015972  0.3235978144718672  0.6338311944449231  1.0000
  O   O19       1.0  0.5996504714089853  0.8883071551882297  0.5685833280961391  1.0000
  O   O20       1.0  0.40034963290376874  0.1116965213814964  0.43141992099147325  1.0000
