data_image0
_chemical_formula_structural       Zn2H16C20O8
_chemical_formula_sum              "Zn2 H16 C20 O8"
_cell_length_a       4.761749741840133
_cell_length_b       10.093877394545377
_cell_length_c       10.093950858414953
_cell_angle_alpha    83.24446811220706
_cell_angle_beta     91.9029964187658
_cell_angle_gamma    91.90151317001401

_space_group_name_H-M_alt    "P 1"
_space_group_IT_number       1

loop_
  _space_group_symop_operation_xyz
  'x, y, z'

loop_
  _atom_site_type_symbol
  _atom_site_label
  _atom_site_symmetry_multiplicity
  _atom_site_fract_x
  _atom_site_fract_y
  _atom_site_fract_z
  _atom_site_occupancy
  Zn  Zn1       1.0  0.24999972674108056  0.0652291470845157  0.9347759195507307  1.0000
  Zn  Zn2       1.0  0.7500125496396635  0.934765978545535  0.06522791186611701  1.0000
  H   H1        1.0  0.11167206825276571  0.3018224004597415  0.15687113901123687  1.0000
  H   H2        1.0  0.3883190372420131  0.8431323501474354  0.6981686592081572  1.0000
  H   H3        1.0  0.888302963338127  0.6981797147898378  0.8431265977655896  1.0000
  H   H4        1.0  0.6116912295116491  0.15687320329514162  0.30182864958291583  1.0000
  H   H5        1.0  0.632023661461645  0.5702099935861826  0.7003732341193397  1.0000
  H   H6        1.0  0.8679794263742339  0.29962897985740977  0.42980053522094147  1.0000
  H   H7        1.0  0.3679626673737674  0.42979224559299234  0.2996212164726941  1.0000
  H   H8        1.0  0.13200868358090653  0.7003806692868013  0.5701965719602383  1.0000
  H   H9        1.0  0.37917874343596486  0.48315000687096443  0.8069491207947121  1.0000
  H   H10       1.0  0.12083316139383272  0.1930491647364505  0.5168609570364282  1.0000
  H   H11       1.0  0.6208215901335521  0.5168462342946825  0.19305195152060145  1.0000
  H   H12       1.0  0.87916450283754  0.8069624918184747  0.4831338896446481  1.0000
  H   H13       1.0  0.616226335001045  0.39209638193703716  0.7263906781610601  1.0000
  H   H14       1.0  0.883759435695801  0.2736001233556423  0.6079131728959196  1.0000
  H   H15       1.0  0.3837568409967319  0.6079028770960164  0.2736043698289308  1.0000
  H   H16       1.0  0.11624123214338064  0.7264026358700522  0.39208532507272037  1.0000
  C   C1        1.0  0.869438492941903  0.3767096648481569  0.9833069939302418  1.0000
  C   C2        1.0  0.630544616865855  0.01670191454037005  0.6232842018675127  1.0000
  C   C3        1.0  0.13053125627759954  0.6232792903417775  0.01669760027993312  1.0000
  C   C4        1.0  0.3694847877634545  0.9832989234729581  0.37671711989900547  1.0000
  C   C5        1.0  0.8007058751912981  0.48824834137381157  0.8912743620143287  1.0000
  C   C6        1.0  0.6992828001345829  0.10871924346852072  0.511749381418383  1.0000
  C   C7        1.0  0.19926414199398587  0.5117598338491123  0.10871432122441858  1.0000
  C   C8        1.0  0.3007334010439919  0.8912897239285229  0.4882445042743555  1.0000
  C   C9        1.0  0.0646589344601267  0.39054811669618056  0.08832867633790899  1.0000
  C   C10       1.0  0.4353168318038669  0.9116743525471946  0.6094582119553847  1.0000
  C   C11       1.0  0.9353435525139349  0.6094568467447062  0.9116984994003444  1.0000
  C   C12       1.0  0.5646838936471995  0.08831218020469579  0.3905361354331873  1.0000
  C   C13       1.0  0.7369956506039801  0.24145249118860335  0.9770937247245682  1.0000
  C   C14       1.0  0.763013845980282  0.022912457967983444  0.7585521831303764  1.0000
  C   C15       1.0  0.26301469011111334  0.7585451188094582  0.022913189364693713  1.0000
  C   C16       1.0  0.2370031183302146  0.9770893473530864  0.24143720593802698  1.0000
  C   C17       1.0  0.5973547313820192  0.48307742423531164  0.774636103541013  1.0000
  C   C18       1.0  0.9026429517978087  0.2253623044512381  0.5169311781635314  1.0000
  C   C19       1.0  0.40264549110909814  0.5169162329011247  0.2253728997336566  1.0000
  C   C20       1.0  0.0973438745451958  0.7746400829557913  0.4830724460250835  1.0000
  O   O1        1.0  0.49106937004007994  0.23326283534112247  0.9253265638610413  1.0000
  O   O2        1.0  0.00893183579128025  0.07466909048161346  0.7667326809942735  1.0000
  O   O3        1.0  0.5089453754601649  0.7667272164540934  0.07466694259769467  1.0000
  O   O4        1.0  0.9910718879514919  0.9253303167494382  0.23326680825789478  1.0000
  O   O5        1.0  0.881075753673933  0.141330720190318  0.0283337937661088  1.0000
  O   O6        1.0  0.6189244018634101  0.9716548055685907  0.8586794765569649  1.0000
  O   O7        1.0  0.11893864458301114  0.858669826824823  0.9716675089419055  1.0000
  O   O8        1.0  0.3810764433580545  0.028337835713358624  0.1413244270770733  1.0000
