data_image0
_chemical_formula_structural       Cu2H34C26N10O4
_chemical_formula_sum              "Cu2 H34 C26 N10 O4"
_cell_length_a       7.11342243608251
_cell_length_b       10.012736337561238
_cell_length_c       10.7572668748644
_cell_angle_alpha    115.34013979539856
_cell_angle_beta     90.00041820003482
_cell_angle_gamma    89.99948905600142

_space_group_name_H-M_alt    "P 1"
_space_group_IT_number       1

loop_
  _space_group_symop_operation_xyz
  'x, y, z'

loop_
  _atom_site_type_symbol
  _atom_site_label
  _atom_site_symmetry_multiplicity
  _atom_site_fract_x
  _atom_site_fract_y
  _atom_site_fract_z
  _atom_site_occupancy
  Cu  Cu1       1.0  0.15447367272476953  0.247513644289711  0.4514425301968713  1.0000
  Cu  Cu2       1.0  0.6544736358429476  0.7524796418027151  0.5485575617927337  1.0000
  H   H1        1.0  0.6838285996618437  0.3952010414041781  0.7550546173853119  1.0000
  H   H2        1.0  0.18383727980683057  0.6047954093938088  0.24494036800054889  1.0000
  H   H3        1.0  0.6933750326094668  0.4319190367751987  0.9967809010425839  1.0000
  H   H4        1.0  0.19338854581614837  0.56807073746198  0.003212404528490362  1.0000
  H   H5        1.0  0.9746402078639846  0.3535408712533439  0.08981655318104488  1.0000
  H   H6        1.0  0.47464725211973763  0.6464541461641746  0.910179267469907  1.0000
  H   H7        1.0  0.2486448202616813  0.2438194023884463  0.9359910316216046  1.0000
  H   H8        1.0  0.7486464270614519  0.7561833625511414  0.06401049681349504  1.0000
  H   H9        1.0  0.4039548094299619  0.16571202704592036  0.7325183340307858  1.0000
  H   H10       1.0  0.9039534467478206  0.8342988128129677  0.2674871567094073  1.0000
  H   H11       1.0  0.46641144238301985  0.9892813945046657  0.41812059999543283  1.0000
  H   H12       1.0  0.9664099633057931  0.010720297090259104  0.5818815539032798  1.0000
  H   H13       1.0  0.6055757770870329  0.11838744723583262  0.5531967390080793  1.0000
  H   H14       1.0  0.1055719129932697  0.8816171295853011  0.4468066778871603  1.0000
  H   H15       1.0  0.5904730754154102  0.29824945845093964  0.45728618609521016  1.0000
  H   H16       1.0  0.09048239678752168  0.7017551919571335  0.5427162575103353  1.0000
  H   H17       1.0  0.6633947226378254  0.12815375445143223  0.32418572099870596  1.0000
  H   H18       1.0  0.16339912898504141  0.8718472230274232  0.6758174733205493  1.0000
  H   H19       1.0  0.18461764228766236  0.06855510857188561  0.16284323052190788  1.0000
  H   H20       1.0  0.6846171022527302  0.931441338359697  0.8371517571169916  1.0000
  H   H21       1.0  0.32901956143908256  0.9649440931167564  0.2244269058439628  1.0000
  H   H22       1.0  0.8290156892390215  0.035058273215092604  0.7755720636429257  1.0000
  H   H23       1.0  0.6036108114347911  0.9952672099363015  0.09505189981688755  1.0000
  H   H24       1.0  0.1036062812225964  0.004736273159849702  0.9049529317664877  1.0000
  H   H25       1.0  0.4092947979836481  0.9213596574849563  0.9822999051359034  1.0000
  H   H26       1.0  0.9092848334629764  0.07864120978066322  0.017700715241176106  1.0000
  H   H27       1.0  0.5349827128941911  0.356849840912318  0.10668203794021032  1.0000
  H   H28       1.0  0.03498820765107521  0.6431517703156403  0.8933217174871045  1.0000
  H   H29       1.0  0.6782115446660626  0.2512668093549024  0.1681299741370168  1.0000
  H   H30       1.0  0.1782178307872044  0.7487352034229033  0.8318774219932903  1.0000
  H   H31       1.0  0.4524397292338024  0.4151588666743394  0.349806252226756  1.0000
  H   H32       1.0  0.952459814397905  0.5848406819866342  0.6501931226547483  1.0000
  H   H33       1.0  0.2615399258621309  0.3359888173875519  0.23428010004723626  1.0000
  H   H34       1.0  0.7615518417643373  0.6640083546024516  0.7657146181431714  1.0000
  C   C1        1.0  0.1244644283391736  0.2584254220259155  0.759258425086692  1.0000
  C   C2        1.0  0.624463950611883  0.7415790584046533  0.24074132634233789  1.0000
  C   C3        1.0  0.9610161759536949  0.29973447322262814  0.7041234396203109  1.0000
  C   C4        1.0  0.46101436204722296  0.7002716610742682  0.2958758072424318  1.0000
  C   C5        1.0  0.8067417424425757  0.3612610549840413  0.7951666874046665  1.0000
  C   C6        1.0  0.30675095468161834  0.6387358966782133  0.20483095040246732  1.0000
  C   C7        1.0  0.8130881136975602  0.3807551294082572  0.9304713851789543  1.0000
  C   C8        1.0  0.3130932716967009  0.61924289275418  0.06952299065604009  1.0000
  C   C9        1.0  0.9716016829955977  0.33858220323054417  0.9833483292172926  1.0000
  C   C10       1.0  0.47160853353043564  0.6614139358575812  0.016649782096223576  1.0000
  C   C11       1.0  0.12418250078906111  0.27814979789052796  0.8976508229994167  1.0000
  C   C12       1.0  0.6241765319707042  0.7218524730174707  0.10234711862401726  1.0000
  C   C13       1.0  0.29044778142660027  0.19590250665386585  0.6796007257043541  1.0000
  C   C14       1.0  0.7904501974621639  0.8040989488288944  0.3204023431309865  1.0000
  C   C15       1.0  0.4904859791974517  0.10794584416834853  0.4811534308119219  1.0000
  C   C16       1.0  0.9904880566998175  0.89205462452437  0.5188492826407725  1.0000
  C   C17       1.0  0.5446192739929218  0.1852053659226698  0.3915690606579999  1.0000
  C   C18       1.0  0.04462085223678971  0.8147961986376232  0.6084356523724991  1.0000
  C   C19       1.0  0.3284487958416022  0.05588875773129591  0.19299671128026566  1.0000
  C   C20       1.0  0.8284491682531437  0.9441114021185161  0.8070023074468864  1.0000
  C   C21       1.0  0.4602217733561815  0.019596236352072104  0.07081607930734889  1.0000
  C   C22       1.0  0.9602160011439763  0.9804032756564921  0.9291851777500496  1.0000
  C   C23       1.0  0.5332121656471287  0.2691506679674377  0.14192859690643903  1.0000
  C   C24       1.0  0.033221779520872  0.7308498461041709  0.8580737839820854  1.0000
  C   C25       1.0  0.40170342137997755  0.3144165784983599  0.26433269945423626  1.0000
  C   C26       1.0  0.901713325949224  0.6855843244946345  0.7356660392859949  1.0000
  N   N1        1.0  0.3166132533405488  0.1734477878781817  0.5529899957289571  1.0000
  N   N2        1.0  0.8166125611142618  0.8265557397254428  0.44700379807336793  1.0000
  N   N3        1.0  0.37856648690300443  0.19681569112792371  0.3125603190942101  1.0000
  N   N4        1.0  0.8785701466341039  0.8031853308429646  0.6874439327676996  1.0000
  N   N5        1.0  0.9898329144359295  0.287622876101544  0.3235089561786068  1.0000
  N   N6        1.0  0.4898323281243862  0.7123676462407504  0.6764851499833424  1.0000
  N   N7        1.0  0.89330508266481  0.3965235325195452  0.3664738292567478  1.0000
  N   N8        1.0  0.3933152490096603  0.6034785185609695  0.6335271847522819  1.0000
  N   N9        1.0  0.7946151288122537  0.49996403037958015  0.40089451080324784  1.0000
  N   N10       1.0  0.29461920308715867  0.5000241472087339  0.5991070153835167  1.0000
  O   O1        1.0  0.9444103559013683  0.28300956253968224  0.5772928293124905  1.0000
  O   O2        1.0  0.444412538066544  0.7169977570077394  0.4227049495279899  1.0000
  O   O3        1.0  0.4675843376960103  0.13740164939024171  0.0289892213096792  1.0000
  O   O4        1.0  0.967584742413756  0.8626022457037764  0.9710128850870063  1.0000
