data_image0
_chemical_formula_structural       Li4H6C16N2O8
_chemical_formula_sum              "Li4 H6 C16 N2 O8"
_cell_length_a       5.19923480908802
_cell_length_b       9.41313246723466
_cell_length_c       9.254811481245394
_cell_angle_alpha    104.87063856837622
_cell_angle_beta     96.07043765565605
_cell_angle_gamma    106.09014175328537

_space_group_name_H-M_alt    "P 1"
_space_group_IT_number       1

loop_
  _space_group_symop_operation_xyz
  'x, y, z'

loop_
  _atom_site_type_symbol
  _atom_site_label
  _atom_site_symmetry_multiplicity
  _atom_site_fract_x
  _atom_site_fract_y
  _atom_site_fract_z
  _atom_site_occupancy
  Li  Li1       1.0  0.2911646853453505  0.8634617588134575  0.11210149135228421  1.0000
  Li  Li2       1.0  0.7088363526377963  0.13653821918001802  0.8878985026375901  1.0000
  Li  Li3       1.0  0.8600939175344068  0.03430785141192421  0.12346307833134769  1.0000
  Li  Li4       1.0  0.1399071204487326  0.9656921265815511  0.8765369156585265  1.0000
  H   H1        1.0  0.6243564781442501  0.23916193050924758  0.6171172382871717  1.0000
  H   H2        1.0  0.37564003020867187  0.7608368702108096  0.3828811223660226  1.0000
  H   H3        1.0  0.24947642608900375  0.5387409933564486  0.890286306239112  1.0000
  H   H4        1.0  0.750522656198264  0.46125897119655695  0.10971249548857295  1.0000
  H   H5        1.0  0.8713280432599009  0.7226330815924272  0.6518468416466804  1.0000
  H   H6        1.0  0.1286729760061576  0.27736688806422904  0.3481520685926042  1.0000
  C   C1        1.0  0.7615573488181155  0.4782790408799045  0.6226083556812085  1.0000
  C   C2        1.0  0.23844115266486196  0.521719789954261  0.3773933647353545  1.0000
  C   C3        1.0  0.604464376877857  0.35338826974945914  0.663919426109544  1.0000
  C   C4        1.0  0.39553408717094385  0.6466105444110611  0.33608012680583954  1.0000
  C   C5        1.0  0.42236936152553994  0.37530556713818447  0.7620591606462241  1.0000
  C   C6        1.0  0.5776342691090408  0.6246955830250658  0.23794235816873072  1.0000
  C   C7        1.0  0.3981821445222877  0.522749474200971  0.8182931991979246  1.0000
  C   C8        1.0  0.6018188934608589  0.4772505037925042  0.1817067947919497  1.0000
  C   C9        1.0  0.5654411558308468  0.6495396961869346  0.7832340265231394  1.0000
  C   C10       1.0  0.43455794517350915  0.35046027670288993  0.2167658589551351  1.0000
  C   C11       1.0  0.7460736815549612  0.6273781720063527  0.6851397867161566  1.0000
  C   C12       1.0  0.2539247637767589  0.3726206338173484  0.31485868244863724  1.0000
  C   C13       1.0  0.25307611510048394  0.2429487623770826  0.8081931765874089  1.0000
  C   C14       1.0  0.7469242785320703  0.7570535363081704  0.19180845776724456  1.0000
  C   C15       1.0  0.5452041768202138  0.8071329449061297  0.8505486013361718  1.0000
  C   C16       1.0  0.454796861162933  0.1928670330873531  0.1494513926537024  1.0000
  N   N1        1.0  0.9281826942107473  0.44228315550261504  0.5166179200859844  1.0000
  N   N2        1.0  0.07181319590370798  0.5577144948249568  0.4833811917549085  1.0000
  O   O1        1.0  0.03448803231286495  0.2518592889310726  0.8508577050915137  1.0000
  O   O2        1.0  0.9655110686914913  0.7481406839587593  0.14914218038676819  1.0000
  O   O3        1.0  0.34473833860908343  0.12812647930711313  0.8040590509041863  1.0000
  O   O4        1.0  0.6552594623720368  0.8718746472083653  0.1959410586253797  1.0000
  O   O5        1.0  0.7554765304199976  0.9259859320297396  0.8698676231758141  1.0000
  O   O6        1.0  0.2445238706075942  0.07401288723443862  0.130132038251169  1.0000
  O   O7        1.0  0.32223109393203947  0.8177905806365973  0.8888857063978577  1.0000
  O   O8        1.0  0.6777712627914242  0.18220825206805816  0.11111514729130793  1.0000
