data_image0
_chemical_formula_structural       Cd2H20C20N2Cl4O6
_chemical_formula_sum              "Cd2 H20 C20 N2 Cl4 O6"
_cell_length_a       8.384938456370456
_cell_length_b       8.516089210171979
_cell_length_c       8.575390712225325
_cell_angle_alpha    93.47220664737624
_cell_angle_beta     100.1727470517797
_cell_angle_gamma    92.05300626181689

_space_group_name_H-M_alt    "P 1"
_space_group_IT_number       1

loop_
  _space_group_symop_operation_xyz
  'x, y, z'

loop_
  _atom_site_type_symbol
  _atom_site_label
  _atom_site_symmetry_multiplicity
  _atom_site_fract_x
  _atom_site_fract_y
  _atom_site_fract_z
  _atom_site_occupancy
  Cd  Cd1       1.0  0.5000012559155352  1.095416550399437e-06  8.194926551140874e-07  1.0000
  Cd  Cd2       1.0  1.5963283956940622e-06  1.0414859872034315e-06  0.9999996554408738  1.0000
  H   H1        1.0  0.35016273078751686  0.11826927496664297  0.5135038406515235  1.0000
  H   H2        1.0  0.6498352986574432  0.8817307659392098  0.4864974753438105  1.0000
  H   H3        1.0  0.3741474179720044  0.2023497591883441  0.7134246084228977  1.0000
  H   H4        1.0  0.6258531734157486  0.7976526110259669  0.28657495630311297  1.0000
  H   H5        1.0  0.115887864612084  0.0999086288484179  0.3580020859598108  1.0000
  H   H6        1.0  0.8841136886828663  0.9000901628114235  0.6419985283497738  1.0000
  H   H7        1.0  0.7021741251222339  0.32115534542991486  0.4940955072910143  1.0000
  H   H8        1.0  0.2978261302331831  0.6788422987230263  0.5059048148761747  1.0000
  H   H9        1.0  0.525757061510518  0.442758251075034  0.7846936494711372  1.0000
  H   H10       1.0  0.4742409170300236  0.5572418412728269  0.21530416319300372  1.0000
  H   H11       1.0  0.1844187811521323  0.39050657992467563  0.7746285252062322  1.0000
  H   H12       1.0  0.8155806175143426  0.609495802863911  0.22537201773841534  1.0000
  H   H13       1.0  0.3342174741598214  0.31633621351086566  0.2920389071597  1.0000
  H   H14       1.0  0.6657791894730494  0.6836627484774384  0.7079574455849738  1.0000
  H   H15       1.0  0.8900751365086137  0.44395348285583947  0.7400936446690309  1.0000
  H   H16       1.0  0.1099240686894873  0.5560465626230737  0.259905525330602  1.0000
  H   H17       1.0  0.3036367707339453  0.2735140507009248  0.014902071341637716  1.0000
  H   H18       1.0  0.6963649251249677  0.7264871297105981  0.9850964125817611  1.0000
  H   H19       1.0  0.49218672139292613  0.30173044685193423  0.07870951649433522  1.0000
  H   H20       1.0  0.5078149914341239  0.6982707164122531  0.9212901352061281  1.0000
  C   C1        1.0  0.7890530616136502  0.11608223196416388  0.2653192275154197  1.0000
  C   C2        1.0  0.21094847471316308  0.8839165768430064  0.7346802190171005  1.0000
  C   C3        1.0  0.33371140316787523  0.22347149710222416  0.588430017367152  1.0000
  C   C4        1.0  0.6662877307482447  0.7765273540008407  0.41157021782557723  1.0000
  C   C5        1.0  0.8940190570612215  0.2022420224753603  0.4080130776248154  1.0000
  C   C6        1.0  0.1059814969808315  0.7977591190684307  0.5919898878484133  1.0000
  C   C7        1.0  0.058993822202509705  0.1764549822754233  0.4364934409510823  1.0000
  C   C8        1.0  0.9410078363107034  0.8235449694655868  0.5635084437195418  1.0000
  C   C9        1.0  0.42136120488702744  0.36623373623351796  0.542952411195941  1.0000
  C   C10       1.0  0.5786380003110665  0.6337663092453879  0.45704675880369194  1.0000
  C   C11       1.0  0.8313094612633377  0.3011540323196797  0.5157565990628683  1.0000
  C   C12       1.0  0.1686896556846449  0.6988448359307214  0.48424246835279666  1.0000
  C   C13       1.0  0.5142163230197098  0.4695161646169267  0.6604437502390611  1.0000
  C   C14       1.0  0.4857829534603654  0.5304850752378272  0.3395543545674826  1.0000
  C   C15       1.0  0.0974882890158639  0.3418852338874032  0.6722978590967089  1.0000
  C   C16       1.0  0.9025109331503743  0.6581147944441739  0.3277024786799885  1.0000
  C   C17       1.0  0.40755123545326205  0.3970127213300287  0.38270108596567814  1.0000
  C   C18       1.0  0.5924467261191426  0.6029873881651683  0.6172955589214055  1.0000
  C   C19       1.0  0.9340805065589349  0.36963544522107117  0.6505284434491259  1.0000
  C   C20       1.0  0.065920030514981  0.6303657134700629  0.34947335424703857  1.0000
  N   N1        1.0  0.1565173194260296  0.2474248034280038  0.5648994758083532  1.0000
  N   N2        1.0  0.8434820249266083  0.7525763678374061  0.43510330010644793  1.0000
  Cl  Cl1       1.0  0.7044051912759671  0.05935984214740131  0.8114984876559249  1.0000
  Cl  Cl2       1.0  0.2955967150194568  0.9406436584264667  0.18850253698954586  1.0000
  Cl  Cl3       1.0  0.9303371775537246  0.7081664997226724  0.9384022323663573  1.0000
  Cl  Cl4       1.0  0.06966448436889999  0.2918347149835228  0.061593916002912905  1.0000
  O   O1        1.0  0.8467505806735145  0.9952976783418491  0.205712707585505  1.0000
  O   O2        1.0  0.1532522705609765  0.004702260824878103  0.7942881988664823  1.0000
  O   O3        1.0  0.6488398033221685  0.1656112280115991  0.21908871876760116  1.0000
  O   O4        1.0  0.3511606998154662  0.8343899649741998  0.7809107433744346  1.0000
  O   O5        1.0  0.41258950485894985  0.27076527403315254  0.9827862632544822  1.0000
  O   O6        1.0  0.5874110152468219  0.7292359018053105  0.017214366664617797  1.0000
