data_image0
_chemical_formula_structural       Cd2H34C42N6O8
_chemical_formula_sum              "Cd2 H34 C42 N6 O8"
_cell_length_a       8.84021482509527
_cell_length_b       10.52858225346111
_cell_length_c       10.839958522684357
_cell_angle_alpha    72.87301785757444
_cell_angle_beta     84.93322025001272
_cell_angle_gamma    79.21999798376814

_space_group_name_H-M_alt    "P 1"
_space_group_IT_number       1

loop_
  _space_group_symop_operation_xyz
  'x, y, z'

loop_
  _atom_site_type_symbol
  _atom_site_label
  _atom_site_symmetry_multiplicity
  _atom_site_fract_x
  _atom_site_fract_y
  _atom_site_fract_z
  _atom_site_occupancy
  Cd  Cd1       1.0  0.5682638249229228  0.6062178874310645  0.12628690389557573  1.0000
  Cd  Cd2       1.0  0.43173635291741885  0.39378423249861777  0.8737126375064151  1.0000
  H   H1        1.0  0.4504667900265746  0.4329538884544774  0.36936320794868055  1.0000
  H   H2        1.0  0.5495349130882944  0.5670462148062041  0.6306367739123574  1.0000
  H   H3        1.0  0.3485187486322658  0.43074025813696437  0.5166458356162951  1.0000
  H   H4        1.0  0.6514806835632428  0.5692598449291493  0.48335434017565887  1.0000
  H   H5        1.0  0.2815948511812324  0.8136337408331327  0.06876830816007386  1.0000
  H   H6        1.0  0.7184047560630235  0.1863653600565272  0.9312312136283726  1.0000
  H   H7        1.0  0.04433424163172372  0.9313137268833312  0.16094343275074877  1.0000
  H   H8        1.0  0.9556665209308903  0.06868536789692568  0.8390569147879959  1.0000
  H   H9        1.0  0.9693857720696432  0.8308925270127075  0.39352099285562064  1.0000
  H   H10       1.0  0.030613679984547604  0.16910756984670164  0.6064801056520823  1.0000
  H   H11       1.0  0.123900151657928  0.49727864419214973  0.5972872721712009  1.0000
  H   H12       1.0  0.876100610904693  0.5027204505881003  0.4027130753675437  1.0000
  H   H13       1.0  0.05792291247639985  0.7946304608760426  0.5970755605018785  1.0000
  H   H14       1.0  0.9420755990255429  0.20536862750293483  0.40292590368353864  1.0000
  H   H15       1.0  0.9510775780742764  0.446410737562978  0.7683239532246591  1.0000
  H   H16       1.0  0.04892584522254142  0.553586340645559  0.23167673780768194  1.0000
  H   H17       1.0  0.7789878926411049  0.4182524480158277  0.9646913384519568  1.0000
  H   H18       1.0  0.22101516069954394  0.5817466407522999  0.03530973787162851  1.0000
  H   H19       1.0  0.8054736200758089  0.796782524708966  0.9929295756534704  1.0000
  H   H20       1.0  0.19452847285391078  0.20321556178542718  0.007070943632065496  1.0000
  H   H21       1.0  0.9843186819200727  0.840192744299095  0.7991162191547975  1.0000
  H   H22       1.0  0.015683235960899822  0.15980634437173788  0.20088495413424579  1.0000
  H   H23       1.0  0.6618178221698939  0.20872163587053902  0.4284676557424377  1.0000
  H   H24       1.0  0.3381840361350399  0.7912774714203933  0.5715307493993438  1.0000
  H   H25       1.0  0.704806931188223  0.7831751922003318  0.47657513291655834  1.0000
  H   H26       1.0  0.2951934018421839  0.21682593175960818  0.5234228317661761  1.0000
  H   H27       1.0  0.5794661728314098  0.0669511875650244  0.10988072858039294  1.0000
  H   H28       1.0  0.4205305787712278  0.933050938279507  0.8901181810022227  1.0000
  H   H29       1.0  0.8582005997064073  0.9703674047101883  0.6087918299745143  1.0000
  H   H30       1.0  0.14180110340846142  0.029632698550493303  0.3912081518865237  1.0000
  H   H31       1.0  0.7180643101164395  0.8638836864847403  0.663898830789009  1.0000
  H   H32       1.0  0.2819373334223911  0.13611643539603338  0.33609838292476724  1.0000
  H   H33       1.0  0.6703952617967772  0.038825196545857886  0.6512942038200722  1.0000
  H   H34       1.0  0.3296054610484803  0.9611739106477866  0.3487042982871673  1.0000
  C   C1        1.0  0.24134657314323973  0.7739029847247351  0.16832706736290975  1.0000
  C   C2        1.0  0.7586528590522762  0.22609711834137863  0.8316731084290442  1.0000
  C   C3        1.0  0.11173992843205127  0.8396373090768848  0.2200194229457608  1.0000
  C   C4        1.0  0.8882593287147172  0.16036379616566873  0.7799814068496931  1.0000
  C   C5        1.0  0.0714751378554156  0.7835894562102721  0.3494002399945658  1.0000
  C   C6        1.0  0.9285256247071983  0.2164096385699779  0.650600107544179  1.0000
  C   C7        1.0  0.15575050888463698  0.6635462961228524  0.4234381645169451  1.0000
  C   C8        1.0  0.844248157807364  0.3364517962863827  0.576561722949215  1.0000
  C   C9        1.0  0.2830833411467637  0.5978676823323636  0.36001915215074143  1.0000
  C   C10       1.0  0.7169172066497467  0.4021324270377278  0.6399800039600054  1.0000
  C   C11       1.0  0.11048929992260534  0.6070380794676637  0.55833693069593  1.0000
  C   C12       1.0  0.889510347039014  0.3929610090086085  0.441664436524029  1.0000
  C   C13       1.0  0.053464236322675295  0.6870132588621798  0.6351608590956065  1.0000
  C   C14       1.0  0.946535410638944  0.31298582961408516  0.3648405081243526  1.0000
  C   C15       1.0  0.9788291016188779  0.6492594934881947  0.7622492610183688  1.0000
  C   C16       1.0  0.02117395172177083  0.3507395952799327  0.23775181530521658  1.0000
  C   C17       1.0  0.924679108282007  0.5264459917807824  0.8155451439845084  1.0000
  C   C18       1.0  0.07532375015121323  0.4735541053704819  0.1844556636268281  1.0000
  C   C19       1.0  0.8285534603261696  0.5097185522287829  0.9252864847801593  1.0000
  C   C20       1.0  0.17144957315580467  0.4902805427460422  0.07471366882766975  1.0000
  C   C21       1.0  0.8439808520502087  0.7211162804296122  0.9414019790246758  1.0000
  C   C22       1.0  0.1560203003272562  0.2788807975843496  0.058598905938573954  1.0000
  C   C23       1.0  0.9421282323867004  0.7444957530440699  0.8331347993186502  1.0000
  C   C24       1.0  0.05787392011905723  0.25550231483022395  0.16686848811414737  1.0000
  C   C25       1.0  0.620448907154156  0.1529792063400208  0.2605335710406608  1.0000
  C   C26       1.0  0.37954711866233043  0.8470208964342305  0.7394668956476667  1.0000
  C   C27       1.0  0.6582465829121703  0.12485854103233857  0.3897451342825138  1.0000
  C   C28       1.0  0.34174944290430903  0.8751415617419124  0.6102553324058136  1.0000
  C   C29       1.0  0.6909834805167209  0.992385841788085  0.46873792101754963  1.0000
  C   C30       1.0  0.3090186124129986  0.007612244706301397  0.5312625982679935  1.0000
  C   C31       1.0  0.6823935645216825  0.887501669884301  0.4163929372699474  1.0000
  C   C32       1.0  0.3176079039684083  0.11249945417291939  0.5836049304473365  1.0000
  C   C33       1.0  0.6437077406316192  0.9136423489605218  0.2875803721406956  1.0000
  C   C34       1.0  0.3562914767977858  0.08635876869543319  0.7124186122232461  1.0000
  C   C35       1.0  0.613064280318966  0.046943856281657786  0.2091145109921443  1.0000
  C   C36       1.0  0.3869334118359192  0.9530592780432982  0.7908840329127503  1.0000
  C   C37       1.0  0.5906552356016236  0.29675111244807073  0.17880730890295385  1.0000
  C   C38       1.0  0.40934286622678684  0.7032499989038924  0.8211926951422017  1.0000
  C   C39       1.0  0.6317016040216715  0.7993245810058622  0.23485839524916946  1.0000
  C   C40       1.0  0.3682962631819607  0.20067755114265395  0.7651394946522319  1.0000
  C   C41       1.0  0.7357493675046455  0.9645484196246912  0.6054731434349492  1.0000
  C   C42       1.0  0.26425118029187183  0.035451689745407584  0.39452601267579035  1.0000
  N   N1        1.0  0.32502375105700315  0.6572762888394121  0.2351466161507433  1.0000
  N   N2        1.0  0.674974720727576  0.34272281195296705  0.764853002603168  1.0000
  N   N3        1.0  0.7838435504909924  0.6066752430472134  0.9856117016780748  1.0000
  N   N4        1.0  0.2161589123948958  0.393320832887582  0.014388432316224003  1.0000
  N   N5        1.0  0.36443611810449283  0.4773613544822196  0.42035978862275425  1.0000
  N   N6        1.0  0.6355633140910228  0.522638748583887  0.5796403871691922  1.0000
  O   O1        1.0  0.5811558492860627  0.38744097741744804  0.23799213868163355  1.0000
  O   O2        1.0  0.4188447183691225  0.6125591257459462  0.7620079401448622  1.0000
  O   O3        1.0  0.582453192521676  0.32165201692131257  0.05793933240246224  1.0000
  O   O4        1.0  0.41754602490773624  0.6783491007346355  0.9420596519614864  1.0000
  O   O5        1.0  0.5882592841853977  0.8284999886809812  0.11910265202494953  1.0000
  O   O6        1.0  0.4117387977843308  0.17150112887767927  0.8808964293044571  1.0000
  O   O7        1.0  0.6633833010320345  0.6778216245321074  0.30633153992160106  1.0000
  O   O8        1.0  0.3366166620422036  0.32218150998742345  0.6936668100523847  1.0000
