data_image0
_chemical_formula_structural       Cu2H20C26N12Cl4
_chemical_formula_sum              "Cu2 H20 C26 N12 Cl4"
_cell_length_a       8.497668892928711
_cell_length_b       9.250780313398934
_cell_length_c       10.349485057668112
_cell_angle_alpha    88.65202505916909
_cell_angle_beta     72.8393763566205
_cell_angle_gamma    65.52896843382688

_space_group_name_H-M_alt    "P 1"
_space_group_IT_number       1

loop_
  _space_group_symop_operation_xyz
  'x, y, z'

loop_
  _atom_site_type_symbol
  _atom_site_label
  _atom_site_symmetry_multiplicity
  _atom_site_fract_x
  _atom_site_fract_y
  _atom_site_fract_z
  _atom_site_occupancy
  Cu  Cu1       1.0  0.2810941080583262  0.34078613399528024  0.3049967691389881  1.0000
  Cu  Cu2       1.0  0.7189048330248153  0.6592137195858285  0.6950038664481754  1.0000
  H   H1        1.0  0.037391437692505726  0.25815542160128757  0.5928720619126224  1.0000
  H   H2        1.0  0.9626112085022597  0.741844415761996  0.4071286369803104  1.0000
  H   H3        1.0  0.94274677587741  0.07494830113537888  0.748662592842642  1.0000
  H   H4        1.0  0.057253495765863145  0.9250539235830147  0.2513415359461603  1.0000
  H   H5        1.0  0.1114344921509201  0.7826349116638482  0.6992638437298666  1.0000
  H   H6        1.0  0.888565117896924  0.21736612483683612  0.3007395038486251  1.0000
  H   H7        1.0  0.38840530320887023  0.6555298147008203  0.4998327081238683  1.0000
  H   H8        1.0  0.6115929799634755  0.34446884801351274  0.5001681116434894  1.0000
  H   H9        1.0  0.6992098998917271  0.6265373713556457  0.2801222278796515  1.0000
  H   H10       1.0  0.3007908472139675  0.3734612849619126  0.7198770251073796  1.0000
  H   H11       1.0  0.7021324707840577  0.7396328705483484  0.13361795221550912  1.0000
  H   H12       1.0  0.2978701680414275  0.2603669721130544  0.8663808158964057  1.0000
  H   H13       1.0  0.08417201299138098  0.5740376248605871  0.07835235167988228  1.0000
  H   H14       1.0  0.9158257762953496  0.4259646194999148  0.9216485169367058  1.0000
  H   H15       1.0  0.03499992883088509  0.7930883836744657  0.9283396885943842  1.0000
  H   H16       1.0  0.9649942410414383  0.20691626051127093  0.07166201444145766  1.0000
  H   H17       1.0  0.2131824877173046  0.9537390951629446  0.8947862808277589  1.0000
  H   H18       1.0  0.7868140677604173  0.0462631537204743  0.10521488848374357  1.0000
  H   H19       1.0  0.44072895620413993  0.9077298890691949  0.014690563740870678  1.0000
  H   H20       1.0  0.5592736789367052  0.09226995624127451  0.9853072389805319  1.0000
  C   C1        1.0  0.2687540267755395  0.056375443316284204  0.46104181799513805  1.0000
  C   C2        1.0  0.7312472215850576  0.9436196260569716  0.5389593169236804  1.0000
  C   C3        1.0  0.11363044112736992  0.1287507986135878  0.5752943786990841  1.0000
  C   C4        1.0  0.8863715434719666  0.8712478505319794  0.424705538983538  1.0000
  C   C5        1.0  0.0631435085464531  0.025918577304310002  0.6593493956732459  1.0000
  C   C6        1.0  0.936856101501391  0.9740824591963744  0.34065395190525277  1.0000
  C   C7        1.0  0.16118193190185087  0.8576360895385235  0.6323266682437918  1.0000
  C   C8        1.0  0.8388194841685603  0.14236374969861026  0.3676752967345677  1.0000
  C   C9        1.0  0.3154535647229648  0.7847837819714982  0.5206170597663088  1.0000
  C   C10       1.0  0.6845459559430153  0.21521487357084373  0.47938442469665427  1.0000
  C   C11       1.0  0.3661090478460877  0.8882805989222933  0.43542838998694566  1.0000
  C   C12       1.0  0.6338898075398234  0.11171687105141359  0.5645713478751944  1.0000
  C   C13       1.0  0.6171748068410707  0.7140846217134041  0.22532770262773733  1.0000
  C   C14       1.0  0.3828271703889853  0.2859140327302967  0.774670284273867  1.0000
  C   C15       1.0  0.29245629461073  0.617291862536348  0.12903969527780385  1.0000
  C   C16       1.0  0.7075440406219258  0.38271276168384116  0.8709595388929543  1.0000
  C   C17       1.0  0.16011620657179296  0.6464102581759406  0.06427772805722749  1.0000
  C   C18       1.0  0.8398815863995778  0.3535919835354946  0.9357241059498732  1.0000
  C   C19       1.0  0.13519907184652188  0.7686325075581378  0.9813415149523335  1.0000
  C   C20       1.0  0.8647986391122585  0.2313673478968283  0.01866038672024933  1.0000
  C   C21       1.0  0.23575569218234455  0.8611112527165474  0.9630168609243269  1.0000
  C   C22       1.0  0.7642438994422988  0.1388897970294636  0.03698165970160974  1.0000
  C   C23       1.0  0.3641623730307444  0.8361890062330488  0.02841138536510361  1.0000
  C   C24       1.0  0.6358384450336201  0.16381204428817142  0.9715849037849009  1.0000
  C   C25       1.0  0.390963599668197  0.711485826231467  0.11069725138720801  1.0000
  C   C26       1.0  0.6090403476095858  0.288516403461621  0.889299217583286  1.0000
  N   N1        1.0  0.4999722885963464  0.8633059884727458  0.3132479000388883  1.0000
  N   N2        1.0  0.5000271463724104  0.13669028346219386  0.6867526866990445  1.0000
  N   N3        1.0  0.4869052060021559  0.0030619897538173005  0.26453912229764837  1.0000
  N   N4        1.0  0.5130929131450229  0.996931900447578  0.735461832800688  1.0000
  N   N5        1.0  0.35163991007485856  0.11838974435612928  0.3532797540896908  1.0000
  N   N6        1.0  0.6483600934228232  0.8816053374872439  0.6467187853525118  1.0000
  N   N7        1.0  0.5052683128360443  0.6494521604146327  0.1880820868201312  1.0000
  N   N8        1.0  0.4947355524291552  0.3505476830219862  0.8119144498158448  1.0000
  N   N9        1.0  0.479801145657099  0.5284556381928951  0.2516654217304008  1.0000
  N   N10       1.0  0.5202022220378382  0.4715477895389526  0.748330198364293  1.0000
  N   N11       1.0  0.35436265299636477  0.5074013224606445  0.21636500666716776  1.0000
  N   N12       1.0  0.6456382618191372  0.49260210372078456  0.78363507637939  1.0000
  Cl  Cl1       1.0  0.17918267705987026  0.286669075149412  0.1413431385015755  1.0000
  Cl  Cl2       1.0  0.8208132131377825  0.713331988165372  0.8586562842091038  1.0000
  Cl  Cl3       1.0  0.22034341453504422  0.45243821015468205  0.5145020091726309  1.0000
  Cl  Cl4       1.0  0.7796531556812453  0.5475640281324772  0.48550302170091447  1.0000
