data_image0
_chemical_formula_structural       Dy6H80C136N14O38
_chemical_formula_sum              "Dy6 H80 C136 N14 O38"
_cell_length_a       10.310327656746942
_cell_length_b       19.04528862045274
_cell_length_c       19.709026480823937
_cell_angle_alpha    78.2092270988121
_cell_angle_beta     76.606843528718
_cell_angle_gamma    81.42108740747484

_space_group_name_H-M_alt    "P 1"
_space_group_IT_number       1

loop_
  _space_group_symop_operation_xyz
  'x, y, z'

loop_
  _atom_site_type_symbol
  _atom_site_label
  _atom_site_symmetry_multiplicity
  _atom_site_fract_x
  _atom_site_fract_y
  _atom_site_fract_z
  _atom_site_occupancy
  Dy  Dy1       1.0  0.3662569943476796  0.9415663222457553  0.5720215245927988  1.0000
  Dy  Dy2       1.0  0.8148818544777754  0.4807258221165611  0.5691291013036803  1.0000
  Dy  Dy3       1.0  0.8495969785014311  0.5812098837675279  0.9609880135760777  1.0000
  Dy  Dy4       1.0  0.6337426551080013  0.058432414279003815  0.42797894246292867  1.0000
  Dy  Dy5       1.0  0.1851212411631948  0.5192756039313694  0.4308683747128725  1.0000
  Dy  Dy6       1.0  0.15040644005678416  0.41878993436143475  0.0390112727696206  1.0000
  H   H1        1.0  0.8890301505467094  0.004831961847450801  0.5618370811151436  1.0000
  H   H2        1.0  0.5724144931587317  0.0019209642211918997  0.7483146177230253  1.0000
  H   H3        1.0  0.7420560946167213  0.9933093633031971  0.8226535569514938  1.0000
  H   H4        1.0  0.9867530041528314  0.9875491705088209  0.7654701946130443  1.0000
  H   H5        1.0  0.6989816744230879  0.7293765777559499  0.5358234240400607  1.0000
  H   H6        1.0  0.01970444675614403  0.7103573830901552  0.35558356028394655  1.0000
  H   H7        1.0  0.9628770969344773  0.8396732083871327  0.3035053364130391  1.0000
  H   H8        1.0  0.7743625798370959  0.9130472569750551  0.36918741077837325  1.0000
  H   H9        1.0  0.9976072579391084  0.4810414224258394  0.2505285967901969  1.0000
  H   H10       1.0  0.6523715297911394  0.5870466646712343  0.17052433133379447  1.0000
  H   H11       1.0  0.5338696887815929  0.6045856993543095  0.2931219140416985  1.0000
  H   H12       1.0  0.6507711818592697  0.5605318745703514  0.3941641907469489  1.0000
  H   H13       1.0  0.6075808336130563  0.42424333577697837  0.005397110975614796  1.0000
  H   H14       1.0  0.5125181877209853  0.21553251480990807  0.9950769485689079  1.0000
  H   H15       1.0  0.7511098666433115  0.16495716179728254  0.9976711988622426  1.0000
  H   H16       1.0  0.9169640784567861  0.24632928614361296  0.00240263733291362  1.0000
  H   H17       1.0  0.16098630527368835  0.8781732042747097  0.4956236120704602  1.0000
  H   H18       1.0  0.028016221056240884  0.7755111245601682  0.5044182032016593  1.0000
  H   H19       1.0  0.03027794504551911  0.6724511881865709  0.6070832251895908  1.0000
  H   H20       1.0  0.1045491229980016  0.620462655833002  0.7209286518732014  1.0000
  H   H21       1.0  0.21747868331584644  0.6326364552579165  0.8143491612835304  1.0000
  H   H22       1.0  0.3529550069181582  0.7038647239600168  0.8607490628680949  1.0000
  H   H23       1.0  0.47537003550382206  0.8129175070841441  0.8415741197451682  1.0000
  H   H24       1.0  0.4821610052424814  0.9014461383909592  0.727048329587511  1.0000
  H   H25       1.0  0.6485253991866031  0.40979311865935847  0.4738829713267875  1.0000
  H   H26       1.0  0.5500288521363146  0.2992669982194514  0.470111255279349  1.0000
  H   H27       1.0  0.5502474438046009  0.1949011922655544  0.5710875401505433  1.0000
  H   H28       1.0  0.605254284499793  0.1446011773358649  0.6905325867222061  1.0000
  H   H29       1.0  0.684765346655098  0.16215049387026434  0.7945828315541162  1.0000
  H   H30       1.0  0.7679651127718686  0.24468004684784717  0.8566886613182589  1.0000
  H   H31       1.0  0.841232284442121  0.3654851703375215  0.8523507484745068  1.0000
  H   H32       1.0  0.8492715307582586  0.4568313839216105  0.7401370456563255  1.0000
  H   H33       1.0  0.0008819238761504042  0.7401662040005305  0.8911145279174733  1.0000
  H   H34       1.0  0.013228731260632271  0.8476462130999423  0.7923002793777911  1.0000
  H   H35       1.0  0.8883190664496537  0.8530123038428103  0.695959436978427  1.0000
  H   H36       1.0  0.7385067451563502  0.7946539737367856  0.6454183109771562  1.0000
  H   H37       1.0  0.5904742888092187  0.6988310865914258  0.6601202512513993  1.0000
  H   H38       1.0  0.47782572774669774  0.5953146162583208  0.7377787477148487  1.0000
  H   H39       1.0  0.46680499107527856  0.4986514860582644  0.8474893850138726  1.0000
  H   H40       1.0  0.6271833404931898  0.4942100925128655  0.9250285535683318  1.0000
  H   H41       1.0  0.11096817441314494  0.9951683880322194  0.4381627097649882  1.0000
  H   H42       1.0  0.427584274542781  0.9980772243209867  0.2516850520457937  1.0000
  H   H43       1.0  0.25794167881741703  0.006688820207592999  0.1773457260407767  1.0000
  H   H44       1.0  0.013247531931142502  0.012450107020313801  0.23453005577617603  1.0000
  H   H45       1.0  0.3010199660044108  0.2706221653424733  0.4641773095920527  1.0000
  H   H46       1.0  0.9802963070430549  0.2896408190038997  0.6444173900146665  1.0000
  H   H47       1.0  0.037125547508658506  0.1603255257862486  0.6964937560888131  1.0000
  H   H48       1.0  0.22563884043810842  0.08695256504756803  0.6308131299210444  1.0000
  H   H49       1.0  0.002392291188684181  0.5189578396045961  0.7494697458923695  1.0000
  H   H50       1.0  0.34762790682344047  0.4129531403103996  0.8294744218591248  1.0000
  H   H51       1.0  0.4661316311657231  0.39541464817398264  0.7068765022845652  1.0000
  H   H52       1.0  0.34922726048793606  0.4394679253799013  0.6058341756694218  1.0000
  H   H53       1.0  0.39242159311484665  0.5757564738314969  0.9946012816168377  1.0000
  H   H54       1.0  0.48748266153197056  0.7844651687566753  0.004927140056267336  1.0000
  H   H55       1.0  0.24889365224279195  0.8350421308260111  0.0023302118566163924  1.0000
  H   H56       1.0  0.08303812811882239  0.7536716023890478  0.9975955623268434  1.0000
  H   H57       1.0  0.8390122422755368  0.12182606319165497  0.5043758647656703  1.0000
  H   H58       1.0  0.9719801104947337  0.22448922223494341  0.4955818280787909  1.0000
  H   H59       1.0  0.9697215943340114  0.32754808780028105  0.39291714539977807  1.0000
  H   H60       1.0  0.895452304588396  0.3795371557222964  0.2790703678961107  1.0000
  H   H61       1.0  0.7825226341944074  0.36736389575947487  0.1856497620194304  1.0000
  H   H62       1.0  0.6470464206682393  0.2961350875952888  0.1392499569012173  1.0000
  H   H63       1.0  0.5246317223110211  0.18708068608486167  0.15842518942318412  1.0000
  H   H64       1.0  0.5178406376220792  0.09855260121836551  0.2729518970678981  1.0000
  H   H65       1.0  0.3514683752444441  0.5902050761278376  0.526119327349619  1.0000
  H   H66       1.0  0.4499681301232883  0.7007301257594988  0.5298913827059906  1.0000
  H   H67       1.0  0.4497545268513363  0.8050959324465835  0.4289134828806099  1.0000
  H   H68       1.0  0.3947494545386049  0.855397036363229  0.3094690169293415  1.0000
  H   H69       1.0  0.3152341854132318  0.8378487925839125  0.20541905996536505  1.0000
  H   H70       1.0  0.2320282213545822  0.7553203057877412  0.14331325149276344  1.0000
  H   H71       1.0  0.15876404223472207  0.634515183435795  0.14765029675934474  1.0000
  H   H72       1.0  0.15072712199297914  0.5431673510608662  0.25986354159955727  1.0000
  H   H73       1.0  0.9991184996946104  0.2598336164798098  0.10888613298209998  1.0000
  H   H74       1.0  0.9867735756428645  0.15235414992704926  0.2077000446551267  1.0000
  H   H75       1.0  0.11168302517567949  0.1469891311301623  0.3040396801683869  1.0000
  H   H76       1.0  0.2614964556866397  0.20534691982726372  0.35458027545914206  1.0000
  H   H77       1.0  0.4095213774107407  0.3011725039544686  0.3398802151843725  1.0000
  H   H78       1.0  0.5221688292556053  0.40468951569648953  0.2622222494314386  1.0000
  H   H79       1.0  0.5331907852208319  0.501351565025537  0.1525111778882504  1.0000
  H   H80       1.0  0.3728179794541262  0.5057902550154196  0.07496986275793198  1.0000
  C   C1        1.0  0.9522216814395392  0.9946722857796928  0.6607777798427891  1.0000
  C   C2        1.0  0.8564644270267509  0.002761161322851502  0.618927953341455  1.0000
  C   C3        1.0  0.7197426287495007  0.005723800833138202  0.6503822298262136  1.0000
  C   C4        1.0  0.6790392391154824  0.0006764393789354008  0.7240633981124419  1.0000
  C   C5        1.0  0.7742604905239574  0.9957782603503701  0.7655059072243658  1.0000
  C   C6        1.0  0.9105114447925333  0.9927253150128623  0.7340484915513485  1.0000
  C   C7        1.0  0.09841595230822253  0.9856678312479732  0.6272617615842009  1.0000
  C   C8        1.0  0.6199928295271206  0.0145114928136749  0.6035740182397262  1.0000
  C   C9        1.0  0.7268968003055463  0.8266244152426978  0.45751923136923983  1.0000
  C   C10       1.0  0.7570765530190188  0.7539089839080473  0.4853370036160811  1.0000
  C   C11       1.0  0.8634805872352658  0.712536391014261  0.4487173857647235  1.0000
  C   C12       1.0  0.9379761446300139  0.7436975621552622  0.38337309366081473  1.0000
  C   C13       1.0  0.9056772560654096  0.815592558662324  0.35462232369783914  1.0000
  C   C14       1.0  0.8004900177146579  0.8570371186235022  0.3916197978533945  1.0000
  C   C15       1.0  0.6163253426049948  0.8713136360762731  0.4978096499550374  1.0000
  C   C16       1.0  0.8969922136319184  0.6350401000066982  0.47875059417826554  1.0000
  C   C17       1.0  0.83296428105556  0.52021934373915  0.3283874945860034  1.0000
  C   C18       1.0  0.8965247380355023  0.5088844113720297  0.2600869806868716  1.0000
  C   C19       1.0  0.8304504597844159  0.531495713124002  0.2036851641248063  1.0000
  C   C20       1.0  0.7008309667478656  0.5678615255477126  0.2155374961339476  1.0000
  C   C21       1.0  0.6360382649928198  0.5780984999915263  0.28380917886129703  1.0000
  C   C22       1.0  0.7009033586898853  0.5537714684928048  0.3403938162237523  1.0000
  C   C23       1.0  0.904812350274021  0.49725267113770855  0.38847080047681004  1.0000
  C   C24       1.0  0.8965661777491291  0.5156355795497092  0.1313696217984983  1.0000
  C   C25       1.0  0.7730076304700475  0.3406727044683109  0.002792107357123473  1.0000
  C   C26       1.0  0.6401658283751742  0.3679684972507005  0.0013919111752330314  1.0000
  C   C27       1.0  0.5471254626023522  0.32344811515745425  0.9975486849926654  1.0000
  C   C28       1.0  0.5868392469534315  0.24990717403413495  0.9969431677923737  1.0000
  C   C29       1.0  0.7197260857390334  0.2221395328044835  0.9985500963666922  1.0000
  C   C30       1.0  0.8129564634104227  0.2672101360700053  0.0013239546127152616  1.0000
  C   C31       1.0  0.8692390383037392  0.3908982882936415  0.006460523286179362  1.0000
  C   C32       1.0  0.40625453592614497  0.35637031615848974  0.9961577875481281  1.0000
  C   C33       1.0  0.15856689947096916  0.8329365280854403  0.5396254489566985  1.0000
  C   C34       1.0  0.08456635795944573  0.7750371456255465  0.5448646204451251  1.0000
  C   C35       1.0  0.08620287746862225  0.7184944297389608  0.6011818812631091  1.0000
  C   C36       1.0  0.15939223428342328  0.7210770823208962  0.6529251017948424  1.0000
  C   C37       1.0  0.23031038707348722  0.7821256886892626  0.6436305933322758  1.0000
  C   C38       1.0  0.15927384832796318  0.6667166535546587  0.7147365974649914  1.0000
  C   C39       1.0  0.22243810025333483  0.6733442340020446  0.7663501037381124  1.0000
  C   C40       1.0  0.29320682254694935  0.7344463738042039  0.7593855281967947  1.0000
  C   C41       1.0  0.3566598219406245  0.7442244839925466  0.81255460947758  1.0000
  C   C42       1.0  0.423759650248158  0.8043260241865012  0.802024983403875  1.0000
  C   C43       1.0  0.4277995999750103  0.8540779281135827  0.7382988128934896  1.0000
  C   C44       1.0  0.3004328862533754  0.7884041770449174  0.6972327710178945  1.0000
  C   C45       1.0  0.6443683711703443  0.364770644031111  0.5180441650870193  1.0000
  C   C46       1.0  0.5889874682392957  0.3021250514605924  0.5161566434449583  1.0000
  C   C47       1.0  0.5883579830940066  0.24507269746518287  0.5719941352408854  1.0000
  C   C48       1.0  0.6392200804046055  0.25176965198375717  0.6308611057150486  1.0000
  C   C49       1.0  0.6896194692603572  0.31772638317917773  0.6290841416031228  1.0000
  C   C50       1.0  0.6404066669698665  0.1955645990459445  0.6913198746795857  1.0000
  C   C51       1.0  0.6843558416479852  0.20528357304848294  0.7486766185193048  1.0000
  C   C52       1.0  0.7299757572023752  0.27226128620323925  0.7501438324256355  1.0000
  C   C53       1.0  0.7707486799785742  0.2861913018852036  0.8093501155511404  1.0000
  C   C54       1.0  0.8114890296783133  0.3526860019760178  0.8071059234475512  1.0000
  C   C55       1.0  0.8150742204862312  0.40434104847765434  0.7446969589300422  1.0000
  C   C56       1.0  0.7350454770641548  0.32828150278957213  0.6897961615717706  1.0000
  C   C57       1.0  0.946124128783346  0.7450402960840846  0.8489211313572014  1.0000
  C   C58       1.0  0.9527822738008991  0.8049642156387975  0.7934245670514813  1.0000
  C   C59       1.0  0.8845464932444858  0.8077849446788505  0.7402119506260333  1.0000
  C   C60       1.0  0.8079593682335685  0.7511584047509813  0.7433977133971439  1.0000
  C   C61       1.0  0.8051944070893742  0.6935453031899286  0.8024277149126674  1.0000
  C   C62       1.0  0.7325578618362059  0.7507485670423009  0.6909155001632783  1.0000
  C   C63       1.0  0.6511063255306482  0.6980308843113788  0.6988694855032094  1.0000
  C   C64       1.0  0.6393072683407084  0.6418122095232162  0.7597949769960195  1.0000
  C   C65       1.0  0.5447954857124699  0.5912239174584785  0.7740176067858897  1.0000
  C   C66       1.0  0.5390305390826668  0.538184684472654  0.8336148602841859  1.0000
  C   C67       1.0  0.6283673091667908  0.5357429393344688  0.8781601317777755  1.0000
  C   C68       1.0  0.7203730231520993  0.6375276231968527  0.810078023373677  1.0000
  C   C69       1.0  0.047776210526926405  0.005330211481037801  0.33922010424185345  1.0000
  C   C70       1.0  0.14352958332396784  0.997240797284881  0.38107152196356253  1.0000
  C   C71       1.0  0.28025359516239234  0.9942770819349604  0.34961719801118113  1.0000
  C   C72       1.0  0.3209583092922302  0.999322830034259  0.2759367059005414  1.0000
  C   C73       1.0  0.22573783687296617  0.004222086040186901  0.2344933766790689  1.0000
  C   C74       1.0  0.08948888088740861  0.007275027484041601  0.2659495379983667  1.0000
  C   C75       1.0  0.9015813759471951  0.0143325170894144  0.37273814949609374  1.0000
  C   C76       1.0  0.3800049365958245  0.985486701164433  0.3964267856826567  1.0000
  C   C77       1.0  0.27310870955238187  0.17337488395425993  0.5424824459260051  1.0000
  C   C78       1.0  0.24292707838029776  0.24608976576404015  0.514663996592418  1.0000
  C   C79       1.0  0.13652183218144393  0.2874634290615247  0.5512825277578345  1.0000
  C   C80       1.0  0.06202649737605978  0.2563011755072324  0.6166265058177345  1.0000
  C   C81       1.0  0.09432339009471487  0.1844061794047107  0.6453780231577255  1.0000
  C   C82       1.0  0.1995123919537889  0.14296271540871427  0.6083821435759802  1.0000
  C   C83       1.0  0.3836802724549386  0.12868513063679643  0.50219313775996  1.0000
  C   C84       1.0  0.10300998806955869  0.36496079550417443  0.5212486194348926  1.0000
  C   C85       1.0  0.16703459428504164  0.47977830883003497  0.6716127786258639  1.0000
  C   C86       1.0  0.10347302565037352  0.4911137860951841  0.7399143302122085  1.0000
  C   C87       1.0  0.16954930705860966  0.4685024734713393  0.7963138784671528  1.0000
  C   C88       1.0  0.2991686924560781  0.4321371970206229  0.7844609430149632  1.0000
  C   C89       1.0  0.3639633876200037  0.4219002256613749  0.7161890198873024  1.0000
  C   C90       1.0  0.29909718470528185  0.4462277985690194  0.6596049132353556  1.0000
  C   C91       1.0  0.09518797784298269  0.5027476678700893  0.6115267220962011  1.0000
  C   C92       1.0  0.10343757591165566  0.4843626132147492  0.8686289399928313  1.0000
  C   C93       1.0  0.22699568288615532  0.6593276461445396  0.9972060685688219  1.0000
  C   C94       1.0  0.3598375950571722  0.6320313139000504  0.9986063612170568  1.0000
  C   C95       1.0  0.4528779510817388  0.6765517099497202  0.0024516153064411154  1.0000
  C   C96       1.0  0.41316238859993604  0.7500915760425001  0.0030585797931408135  1.0000
  C   C97       1.0  0.2802732286140709  0.7778608290847799  0.00145109524338953  1.0000
  C   C98       1.0  0.1870457407281236  0.7327907559517612  0.9986747520237458  1.0000
  C   C99       1.0  0.13076216913036376  0.6091026021858498  0.9935383035504374  1.0000
  C   C100      1.0  0.593748880195001  0.6436295054595788  0.0038420057742741026  1.0000
  C   C101      1.0  0.8414315380020979  0.167063278843024  0.46037393141308064  1.0000
  C   C102      1.0  0.9154309678589102  0.22496320620094679  0.4551357976118668  1.0000
  C   C103      1.0  0.9137955575673831  0.2815053806786025  0.39881800608337403  1.0000
  C   C104      1.0  0.8406071974570251  0.2789227296389498  0.3470746653514851  1.0000
  C   C105      1.0  0.7696900438084668  0.21787412132376008  0.3563685466371922  1.0000
  C   C106      1.0  0.8407266901930798  0.3332826204853703  0.28526314594752483  1.0000
  C   C107      1.0  0.7775634374092064  0.3266550380911609  0.23364901249753706  1.0000
  C   C108      1.0  0.7067969286767806  0.2655518224493676  0.2406135405712462  1.0000
  C   C109      1.0  0.6433449259875414  0.25577371380330044  0.18744433909029817  1.0000
  C   C110      1.0  0.5762462093347266  0.1956716287113167  0.1979729274767905  1.0000
  C   C111      1.0  0.5722051503902179  0.14592026619316562  0.26169962869768426  1.0000
  C   C112      1.0  0.6995695356003964  0.21159563954176971  0.30276663552795924  1.0000
  C   C113      1.0  0.35562850345017677  0.6352270159208333  0.4819578694552717  1.0000
  C   C114      1.0  0.41100929630507477  0.6978731479534445  0.4838452946309815  1.0000
  C   C115      1.0  0.4116399983071019  0.7549244245669443  0.4280078755675945  1.0000
  C   C116      1.0  0.36077956417694407  0.7482290915192137  0.3691403752940801  1.0000
  C   C117      1.0  0.3103770751317185  0.6822728951590592  0.3709176035401213  1.0000
  C   C118      1.0  0.35959508109671395  0.8044336080794923  0.3086814623955688  1.0000
  C   C119      1.0  0.31564480207507006  0.7947151685076648  0.25132423531296416  1.0000
  C   C120      1.0  0.27002366722688015  0.7277385362239243  0.24985745565079748  1.0000
  C   C121      1.0  0.22924774702615744  0.7138085263824364  0.19065305405587205  1.0000
  C   C122      1.0  0.1885074046376118  0.6473138158243045  0.19289572522934859  1.0000
  C   C123      1.0  0.18492332548441945  0.5956582244246461  0.255303652059645  1.0000
  C   C124      1.0  0.2649550565827568  0.6717177782286682  0.3102045957941471  1.0000
  C   C125      1.0  0.053876077072182185  0.2549605998313424  0.15107882963297206  1.0000
  C   C126      1.0  0.04721981538737201  0.19503722282328076  0.2065750570720368  1.0000
  C   C127      1.0  0.11545459923934233  0.19221649224094514  0.2597877936976474  1.0000
  C   C128      1.0  0.19204072998288524  0.24884302713743986  0.2566016441499883  1.0000
  C   C129      1.0  0.19480458190941627  0.30645667010740846  0.19757217334497312  1.0000
  C   C130      1.0  0.2674400228190592  0.24925394068574758  0.3090839048514695  1.0000
  C   C131      1.0  0.3488882290345927  0.30197325113253726  0.3011320186197821  1.0000
  C   C132      1.0  0.36068629195715113  0.3581919208893183  0.2402061403504234  1.0000
  C   C133      1.0  0.45519985027905124  0.40878129147370856  0.2259825702508422  1.0000
  C   C134      1.0  0.4609660137655923  0.46181944707761596  0.16638538948508597  1.0000
  C   C135      1.0  0.3716305779255435  0.46425956490447357  0.12183876626026797  1.0000
  C   C136      1.0  0.2796248566290416  0.3624748915094074  0.1899223955944791  1.0000
  N   N1        1.0  0.780043074476879  0.39251078947858536  0.6874006401149515  1.0000
  N   N2        1.0  0.6940247602165783  0.3725966809858717  0.5724974699776199  1.0000
  N   N3        1.0  0.2301607236139701  0.8365179856796418  0.5869264007098209  1.0000
  N   N4        1.0  0.3680483002687254  0.8469987000505556  0.6873276377655415  1.0000
  N   N5        1.0  0.8751253335677092  0.6906491561859768  0.8537570784490994  1.0000
  N   N6        1.0  0.7155101196680606  0.5839682265078067  0.8678297067286208  1.0000
  N   N7        1.0  0.5540832117243754  0.553496817895443  0.6106848463772181  1.0000
  N   N8        1.0  0.21995546576114583  0.6074884884551038  0.3126003576512772  1.0000
  N   N9        1.0  0.3059699032798234  0.6274020513165937  0.4275041050555898  1.0000
  N   N10       1.0  0.7698397121421154  0.1634818173551693  0.41307172530624575  1.0000
  N   N11       1.0  0.6319552283656406  0.15300057861630734  0.312671745046508  1.0000
  N   N12       1.0  0.12487388045751396  0.309351731208956  0.1462419887878283  1.0000
  N   N13       1.0  0.2844907599746591  0.41603427886887084  0.13216832373225879  1.0000
  N   N14       1.0  0.44591733768990593  0.4465073058675202  0.3893128946846219  1.0000
  O   O1        1.0  0.1347225403951882  0.9894784442351464  0.5605359365409797  1.0000
  O   O2        1.0  0.1852601571698642  0.9722229522289253  0.6669832169261342  1.0000
  O   O3        1.0  0.5186234127227252  0.9787500889017764  0.6259197066466342  1.0000
  O   O4        1.0  0.6462316937336752  0.057172181445480405  0.5447749743320996  1.0000
  O   O5        1.0  0.5280589257867518  0.840524404574346  0.5465274076577842  1.0000
  O   O6        1.0  0.6107337504448296  0.9402101709894521  0.48244215235035887  1.0000
  O   O7        1.0  0.8123364444728266  0.6048397114530033  0.5295669550313704  1.0000
  O   O8        1.0  0.008719780653187547  0.603394990662828  0.4508595685521186  1.0000
  O   O9        1.0  0.8331255777861629  0.488310547200335  0.4508680321324547  1.0000
  O   O10       1.0  0.032771578011860925  0.4889455002765358  0.37397255579357846  1.0000
  O   O11       1.0  0.8554448339009256  0.5553327716921999  0.07895978326158123  1.0000
  O   O12       1.0  0.9882090188662004  0.4627657205311592  0.1279925733475267  1.0000
  O   O13       1.0  0.8396284099671618  0.4578170465283762  0.9863150295617942  1.0000
  O   O14       1.0  0.973582416351931  0.36254941129043766  0.030021078006704668  1.0000
  O   O15       1.0  0.31091311949244727  0.31613673766861444  0.013673865872874585  1.0000
  O   O16       1.0  0.38465953524059415  0.42506646408780563  0.9810744770375949  1.0000
  O   O17       1.0  0.5825984419291146  0.5295935541137807  0.5524440227479914  1.0000
  O   O18       1.0  0.6385876911654192  0.5325031376069945  0.6518250813181226  1.0000
  O   O19       1.0  0.4515544168426259  0.5945126652873257  0.6276111758650201  1.0000
  O   O20       1.0  0.8652746729099479  0.010522450542545402  0.43946489202636485  1.0000
  O   O21       1.0  0.814735613107132  0.0277752421537301  0.3330183343732571  1.0000
  O   O22       1.0  0.48137523759145034  0.021248649569812993  0.3740813875859459  1.0000
  O   O23       1.0  0.3537640814174452  0.942826005958963  0.4552255630138902  1.0000
  O   O24       1.0  0.4719497797144001  0.15947384125988154  0.4534771438299003  1.0000
  O   O25       1.0  0.38926787779734445  0.0597885895545005  0.5175611161652682  1.0000
  O   O26       1.0  0.1876617752850152  0.3951611709105407  0.47043172542900896  1.0000
  O   O27       1.0  0.9912806453546426  0.3966048263284066  0.5491405853707505  1.0000
  O   O28       1.0  0.16687651627623976  0.5116908842835315  0.549130578037655  1.0000
  O   O29       1.0  0.9672273179702416  0.5110569880591598  0.6260236871608029  1.0000
  O   O30       1.0  0.1445591423492232  0.44466433865896693  0.92103846448574  1.0000
  O   O31       1.0  0.011800257657192505  0.5372346637591008  0.8720084302144002  1.0000
  O   O32       1.0  0.1603747933128901  0.5421838435465671  0.013683049897807132  1.0000
  O   O33       1.0  0.026418893847122087  0.6374509501942781  0.9699793662263688  1.0000
  O   O34       1.0  0.6890892999242624  0.6838630824071784  0.9863260476496833  1.0000
  O   O35       1.0  0.6153437586190832  0.5749339144378922  0.01892775470197712  1.0000
  O   O36       1.0  0.4173984460217141  0.4704089520719847  0.447555502466912  1.0000
  O   O37       1.0  0.3614156282098976  0.4675020697069953  0.3481721062105478  1.0000
  O   O38       1.0  0.5484453511453821  0.4054903849873739  0.3723878922830722  1.0000
