data_image0
_chemical_formula_structural       Cd2H16C18N6Cl2O6
_chemical_formula_sum              "Cd2 H16 C18 N6 Cl2 O6"
_cell_length_a       6.707324797767613
_cell_length_b       9.855359332053279
_cell_length_c       9.830536301096489
_cell_angle_alpha    118.49842819092534
_cell_angle_beta     102.1950175140595
_cell_angle_gamma    96.96069056996394

_space_group_name_H-M_alt    "P 1"
_space_group_IT_number       1

loop_
  _space_group_symop_operation_xyz
  'x, y, z'

loop_
  _atom_site_type_symbol
  _atom_site_label
  _atom_site_symmetry_multiplicity
  _atom_site_fract_x
  _atom_site_fract_y
  _atom_site_fract_z
  _atom_site_occupancy
  Cd  Cd1       1.0  0.8063672265285221  0.99243851876065  0.8153637575386694  1.0000
  Cd  Cd2       1.0  0.19363384276854842  0.007562859754649803  0.18463871484815533  1.0000
  H   H1        1.0  0.3750599072709876  0.8335749944050975  0.592098612515656  1.0000
  H   H2        1.0  0.62494008547025  0.1664275658651775  0.4079022150488853  1.0000
  H   H3        1.0  0.3531583823712127  0.9521058657264946  0.772262461858112  1.0000
  H   H4        1.0  0.6468411897183229  0.047895498143667184  0.22773874895234764  1.0000
  H   H5        1.0  0.7405230830603031  0.6033848727619857  0.6919417790956288  1.0000
  H   H6        1.0  0.2594761345576232  0.3966152973809117  0.308057791767645  1.0000
  H   H7        1.0  0.6865730498391046  0.36671453703547024  0.3765104288860143  1.0000
  H   H8        1.0  0.31342542574554944  0.6332832443164732  0.6234868736794252  1.0000
  H   H9        1.0  0.8926222792205536  0.8240021345953821  0.43693015252753736  1.0000
  H   H10       1.0  0.10737882316656312  0.17599924525634242  0.5630713082627208  1.0000
  H   H11       1.0  0.7520137194486978  0.6954809629792321  0.15788976660810056  1.0000
  H   H12       1.0  0.24798734984837278  0.3045204155360609  0.8421127057787174  1.0000
  H   H13       1.0  0.7234196945731883  0.5402696685820275  0.8656868032270777  1.0000
  H   H14       1.0  0.27658335876321166  0.45973292365138013  0.13431452429704654  1.0000
  H   H15       1.0  0.7979923641993595  0.26770015940428493  0.17394190142155724  1.0000
  H   H16       1.0  0.2020049024692768  0.7322987983569291  0.8260578027078436  1.0000
  C   C1        1.0  0.7677042218008198  0.6140304844505522  0.592546251164947  1.0000
  C   C2        1.0  0.23229386622217876  0.3859661018377025  0.40745042304985174  1.0000
  C   C3        1.0  0.741748409287709  0.49549811390036075  0.43735921646894843  1.0000
  C   C4        1.0  0.25825198415618905  0.5045008784968417  0.5626389644269167  1.0000
  C   C5        1.0  0.8427796894836491  0.7338680431028662  0.46486739158311235  1.0000
  C   C6        1.0  0.15722144599351406  0.26613333808528244  0.5351330576105866  1.0000
  C   C7        1.0  0.7781515333032234  0.4942666537069798  0.1907952307320784  1.0000
  C   C8        1.0  0.22184803878631246  0.5057347101631748  0.8092059800783884  1.0000
  C   C9        1.0  0.7579189439646826  0.5709564976684189  0.10207632401457549  1.0000
  C   C10       1.0  0.24208368872002245  0.42904489816486796  0.8979253867554814  1.0000
  C   C11       1.0  0.7410582279960354  0.4841466989912251  0.937962270979  1.0000
  C   C12       1.0  0.2589447922503184  0.5158558919057511  0.06204006814169111  1.0000
  C   C13       1.0  0.7481055011210388  0.3245061410943535  0.8658622804711911  1.0000
  C   C14       1.0  0.2518970984736129  0.6754952534025094  0.13414044189542548  1.0000
  C   C15       1.0  0.7410638880722616  0.22690385386102463  0.6888073994797992  1.0000
  C   C16       1.0  0.2589368267531924  0.7730963309270038  0.3111934329598255  1.0000
  C   C17       1.0  0.7826156476239492  0.33334344378869923  0.11069260982467456  1.0000
  C   C18       1.0  0.217383536903924  0.6666567250177665  0.8893079726351586  1.0000
  N   N1        1.0  0.8313422327674546  0.7611249881882429  0.6083875094874003  1.0000
  N   N2        1.0  0.1686580614063047  0.23887400019967225  0.39161370619815716  1.0000
  N   N3        1.0  0.7888175916316911  0.5723555965572373  0.3561804345259034  1.0000
  N   N4        1.0  0.21118006259860073  0.4276445562676656  0.6438198979541382  1.0000
  N   N5        1.0  0.7695717701454969  0.25302082064215625  0.9535767229157057  1.0000
  N   N6        1.0  0.23042891158991818  0.7469793628094479  0.04642512112048544  1.0000
  Cl  Cl1       1.0  0.7777109626787748  0.8991653811330877  0.027433540960835685  1.0000
  Cl  Cl2       1.0  0.22229010661829557  0.1008359973822124  0.9725689314259893  1.0000
  O   O1        1.0  0.6857118118302311  0.28638701282066137  0.6024038776608476  1.0000
  O   O2        1.0  0.3142904663828575  0.7136131892853612  0.39759619316200906  1.0000
  O   O3        1.0  0.7962277819763272  0.0966823438066129  0.6420964354992618  1.0000
  O   O4        1.0  0.20376941851222347  0.9033166112817382  0.35790529182326475  1.0000
  O   O5        1.0  0.43662825267902855  0.8825342479974692  0.7140357766716574  1.0000
  O   O6        1.0  0.5633713525005531  0.11746711720911661  0.28596442254224286  1.0000
