data_image0
_chemical_formula_structural       K8B4H20C16O28
_chemical_formula_sum              "K8 B4 H20 C16 O28"
_cell_length_a       6.560101444002836
_cell_length_b       10.32866856400353
_cell_length_c       13.230215281002502
_cell_angle_alpha    90.00003578106684
_cell_angle_beta     90.00006008120523
_cell_angle_gamma    90.00008807649797

_space_group_name_H-M_alt    "P 1"
_space_group_IT_number       1

loop_
  _space_group_symop_operation_xyz
  'x, y, z'

loop_
  _atom_site_type_symbol
  _atom_site_label
  _atom_site_symmetry_multiplicity
  _atom_site_fract_x
  _atom_site_fract_y
  _atom_site_fract_z
  _atom_site_occupancy
  K   K1        1.0  0.7057984301768555  0.4635589695213013  0.8071564716185975  1.0000
  K   K2        1.0  0.794208205209003  0.5364452607428661  0.3071578453001962  1.0000
  K   K3        1.0  0.20579279825059163  0.036432754836084796  0.19284499652459894  1.0000
  K   K4        1.0  0.294206192502493  0.9635621799477716  0.6928476873509695  1.0000
  K   K5        1.0  0.0646235442752996  0.3719175176586872  0.5821455838948992  1.0000
  K   K6        1.0  0.43538130872026676  0.6280841042883052  0.0821485862191196  1.0000
  K   K7        1.0  0.5646199162468193  0.1280837504663737  0.4178527878174876  1.0000
  K   K8        1.0  0.9353778081622722  0.8719176653470272  0.9178547519437998  1.0000
  B   B1        1.0  0.7980693501387891  0.1167659722332175  0.7131329990806918  1.0000
  B   B2        1.0  0.7019309879777041  0.8832352769688822  0.2131322236102875  1.0000
  B   B3        1.0  0.2980678049624644  0.38323358776812455  0.286867760965599  1.0000
  B   B4        1.0  0.20193138558643403  0.6167652962507546  0.7868664586804427  1.0000
  H   H1        1.0  0.026078414965987  0.19443100914237724  0.7899894660390031  1.0000
  H   H2        1.0  0.47392230658728357  0.8055707819551116  0.2899887941052341  1.0000
  H   H3        1.0  0.5260762986367098  0.3055711894787194  0.2100103974199499  1.0000
  H   H4        1.0  0.9739225084781185  0.6944300571814637  0.7100100289279325  1.0000
  H   H5        1.0  0.7805522955443608  0.9227178558671126  0.7067160584568127  1.0000
  H   H6        1.0  0.7194465045700724  0.077283388111951  0.2067156618006081  1.0000
  H   H7        1.0  0.28055154887263  0.5772818260387568  0.2932834203617531  1.0000
  H   H8        1.0  0.2194491796798701  0.4227189995608498  0.7932835458727111  1.0000
  H   H9        1.0  0.3347169909744636  0.5347924150069828  0.4556655135575198  1.0000
  H   H10       1.0  0.1652840826288795  0.46520563820973837  0.9556633638578589  1.0000
  H   H11       1.0  0.83471597091836  0.9652034471384213  0.5443355049788821  1.0000
  H   H12       1.0  0.6652855328723533  0.0347947601513283  0.0443350599426253  1.0000
  H   H13       1.0  0.39863553033153926  0.7470870163836166  0.5158180412868063  1.0000
  H   H14       1.0  0.10136155988120521  0.25291358339814  0.0158169118188312  1.0000
  H   H15       1.0  0.8986384424308654  0.7529118127908561  0.4841807427892988  1.0000
  H   H16       1.0  0.6013655203884625  0.24708772064910534  0.9841837464424826  1.0000
  H   H17       1.0  0.586464446183534  0.22549815047415936  0.6416806183239814  1.0000
  H   H18       1.0  0.9135357400989932  0.7745030405762705  0.1416799002601934  1.0000
  H   H19       1.0  0.0864627900296284  0.27450120264730066  0.35831852053567553  1.0000
  H   H20       1.0  0.41353655235163694  0.7254977395226234  0.8583188915259753  1.0000
  C   C1        1.0  0.649494518808673  0.7083590528503125  0.6190582914982272  1.0000
  C   C2        1.0  0.8505040950367829  0.291642119788655  0.119058821193299  1.0000
  C   C3        1.0  0.149494476518683  0.7916405009246787  0.3809403636588016  1.0000
  C   C4        1.0  0.3505079626699015  0.20835942783737949  0.8809427218329304  1.0000
  C   C5        1.0  0.45604140897967244  0.5474582147206419  0.5115240494721007  1.0000
  C   C6        1.0  0.04396176958217521  0.4525501270005279  0.011520718399147298  1.0000
  C   C7        1.0  0.9560402396286208  0.95254841600984  0.48848005522879123  1.0000
  C   C8        1.0  0.5439591592313704  0.04745983453567959  0.9884776426241116  1.0000
  C   C9        1.0  0.5646066856750025  0.42519469887638195  0.5398916894684689  1.0000
  C   C10       1.0  0.935396333038227  0.5748035047970461  0.0398901312038262  1.0000
  C   C11       1.0  0.06460171440907202  0.0748007601584604  0.46010894977025163  1.0000
  C   C12       1.0  0.43539479553651017  0.925194392136703  0.9601101835840494  1.0000
  C   C13       1.0  0.4915242729229378  0.6679152040555038  0.5448107718596445  1.0000
  C   C14       1.0  0.008471354518874801  0.33207476935231034  0.04480963225093859  1.0000
  C   C15       1.0  0.9915257903922454  0.8320711296052746  0.4551873044329611  1.0000
  C   C16       1.0  0.5084765864361458  0.1679167620895328  0.9551902220965544  1.0000
  O   O1        1.0  0.9049078025749752  0.22338675087629412  0.7476827546123133  1.0000
  O   O2        1.0  0.5950910845950049  0.7766164628017195  0.2476826286266345  1.0000
  O   O3        1.0  0.40490897501074846  0.276615818115225  0.2523165490279666  1.0000
  O   O4        1.0  0.09509319085638168  0.7233859423231691  0.752316754226065  1.0000
  O   O5        1.0  0.6284713171835962  0.1318665526325233  0.6527877578489126  1.0000
  O   O6        1.0  0.8715243195981088  0.8681327110969473  0.1527863070560329  1.0000
  O   O7        1.0  0.12847291247098983  0.3681309052018875  0.34721291443886315  1.0000
  O   O8        1.0  0.37152945504251284  0.6318670597518617  0.8472124629921254  1.0000
  O   O9        1.0  0.8669748582738847  0.9943128111095804  0.7369816674589487  1.0000
  O   O10       1.0  0.6330255305194187  0.0056874893229306  0.236981191785496  1.0000
  O   O11       1.0  0.36697234987543237  0.5056869552882474  0.2630186119243021  1.0000
  O   O12       1.0  0.133025265630792  0.49431287749977315  0.7630187270134884  1.0000
  O   O13       1.0  0.7876188399811641  0.6285095367361393  0.6465794022302161  1.0000
  O   O14       1.0  0.7123828810825898  0.37149456283942334  0.1465798987063991  1.0000
  O   O15       1.0  0.28761588347808953  0.871492088435069  0.3534193243992476  1.0000
  O   O16       1.0  0.21238192413137114  0.1285097542846501  0.8534215728481556  1.0000
  O   O17       1.0  0.6970740323115051  0.38221340016553995  0.47858734441092576  1.0000
  O   O18       1.0  0.8029283942516373  0.6177861287200485  0.9785868507205109  1.0000
  O   O19       1.0  0.19707081957377431  0.11778702927354352  0.5214118516837232  1.0000
  O   O20       1.0  0.3029247581629733  0.882214543240096  0.0214133955217051  1.0000
  O   O21       1.0  0.5035009399271146  0.3684884576003853  0.6200422832880434  1.0000
  O   O22       1.0  0.9964992003742453  0.6315117476609373  0.1200422954990259  1.0000
  O   O23       1.0  0.0034974597732855004  0.13150984623047182  0.3799568126412609  1.0000
  O   O24       1.0  0.4965004042229141  0.8684891135494298  0.8799580509080656  1.0000
  O   O25       1.0  0.6341961481973256  0.8253257307559779  0.6491228301208382  1.0000
  O   O26       1.0  0.8658010051636466  0.17467352999170063  0.1491218000065757  1.0000
  O   O27       1.0  0.1341988080422851  0.6746728398852326  0.3508773288116771  1.0000
  O   O28       1.0  0.3658035672597962  0.3253260962300644  0.8508774833974683  1.0000
