data_image0
_chemical_formula_structural       Zn16H64C96N48O32
_chemical_formula_sum              "Zn16 H64 C96 N48 O32"
_cell_length_a       13.274498183678945
_cell_length_b       13.274565446621285
_cell_length_c       27.662377306131837
_cell_angle_alpha    89.99991957480297
_cell_angle_beta     89.99965468346734
_cell_angle_gamma    90.00110591864514

_space_group_name_H-M_alt    "P 1"
_space_group_IT_number       1

loop_
  _space_group_symop_operation_xyz
  'x, y, z'

loop_
  _atom_site_type_symbol
  _atom_site_label
  _atom_site_symmetry_multiplicity
  _atom_site_fract_x
  _atom_site_fract_y
  _atom_site_fract_z
  _atom_site_occupancy
  Zn  Zn1       1.0  0.08122541372755882  0.9763145628456937  0.9449284709331993  1.0000
  Zn  Zn2       1.0  0.5236884919961184  0.08121985235870707  0.9449284834260113  1.0000
  Zn  Zn3       1.0  0.41877806176917426  0.5236822880269613  0.9449252372312743  1.0000
  Zn  Zn4       1.0  0.9763175225902925  0.41877425335466967  0.9449313308269256  1.0000
  Zn  Zn5       1.0  0.581224000621738  0.023689919891651794  0.5550711089281323  1.0000
  Zn  Zn6       1.0  0.4763154342955289  0.5812280622882893  0.5550692710358549  1.0000
  Zn  Zn7       1.0  0.9187755919528937  0.4763128904245588  0.5550733626690418  1.0000
  Zn  Zn8       1.0  0.0236861390798637  0.9187737266248347  0.5550719864821617  1.0000
  Zn  Zn9       1.0  0.918781131472791  0.0236803691024861  0.0550727392586339  1.0000
  Zn  Zn10      1.0  0.47631955988112645  0.9187773395666237  0.055071642257402714  1.0000
  Zn  Zn11      1.0  0.581221703605962  0.47631867042655757  0.0550705504409805  1.0000
  Zn  Zn12      1.0  0.0236852559875658  0.5812214318753134  0.055071325377447515  1.0000
  Zn  Zn13      1.0  0.4187795314242067  0.976318571796071  0.44492829375448656  1.0000
  Zn  Zn14      1.0  0.5236783045551049  0.4187811826279598  0.44492832415159  1.0000
  Zn  Zn15      1.0  0.08122116005812792  0.5236850547093252  0.4449285705396805  1.0000
  Zn  Zn16      1.0  0.976318146164857  0.08122271194273618  0.444928862210631  1.0000
  H   H1        1.0  0.17673398072501809  0.07470505274276457  0.7786873119433511  1.0000
  H   H2        1.0  0.42529728037799686  0.17672284381092845  0.7786872792130453  1.0000
  H   H3        1.0  0.32326493716063703  0.4252979811130261  0.7786855383709935  1.0000
  H   H4        1.0  0.07469561104681328  0.32329600970870576  0.7786888246213195  1.0000
  H   H5        1.0  0.6767230307317077  0.9253050400133842  0.7213119906543997  1.0000
  H   H6        1.0  0.574694929389196  0.6767226600861987  0.7213089666821377  1.0000
  H   H7        1.0  0.8232562598240916  0.574700626918819  0.7213165923424968  1.0000
  H   H8        1.0  0.9253009343482076  0.8232875269295474  0.7213185317837303  1.0000
  H   H9        1.0  0.823271811281252  0.9253056989196079  0.22131751326269014  1.0000
  H   H10       1.0  0.5747032381569779  0.8232653081945002  0.22131501549524304  1.0000
  H   H11       1.0  0.676710721821479  0.5747029771029516  0.22131350285272336  1.0000
  H   H12       1.0  0.9252973744648114  0.6767147418338694  0.22131347009050029  1.0000
  H   H13       1.0  0.3232985810942138  0.07470420516752797  0.2786884965072218  1.0000
  H   H14       1.0  0.42529654926846655  0.32326021860489346  0.278683205989779  1.0000
  H   H15       1.0  0.176726932385435  0.4252995780479054  0.27868353337601803  1.0000
  H   H16       1.0  0.07469958444316659  0.1767300045621667  0.27868810093688984  1.0000
  H   H17       1.0  0.9550237781368337  0.848536717368759  0.8104149442291232  1.0000
  H   H18       1.0  0.6514713348097414  0.9550254093559329  0.8104120964528365  1.0000
  H   H19       1.0  0.5449762441065644  0.6514732019623323  0.8104080124689761  1.0000
  H   H20       1.0  0.8485060876467757  0.5449822497862866  0.8104173673117362  1.0000
  H   H21       1.0  0.4550215049534359  0.1514779937055053  0.6895857194487721  1.0000
  H   H22       1.0  0.3485066602591758  0.4550228721050613  0.6895832441000567  1.0000
  H   H23       1.0  0.04497250127106161  0.34854188087706456  0.6895902266216893  1.0000
  H   H24       1.0  0.15148659251644858  0.0449789227943072  0.689584748937172  1.0000
  H   H25       1.0  0.04497598729711431  0.15147478755903168  0.18958771197443983  1.0000
  H   H26       1.0  0.34854500371178426  0.04498157580984238  0.18959055972815267  1.0000
  H   H27       1.0  0.45501975449725757  0.34850817013553115  0.18958162968407785  1.0000
  H   H28       1.0  0.15148388453869896  0.4550247351271962  0.18958384290020552  1.0000
  H   H29       1.0  0.5449805202706982  0.8485139249171919  0.3104158522524403  1.0000
  H   H30       1.0  0.6514554388941389  0.5449765793442792  0.3104125436273719  1.0000
  H   H31       1.0  0.9550159641971375  0.6514598307752306  0.3104138756088021  1.0000
  H   H32       1.0  0.8485169394845825  0.9550265556082985  0.3104171842592366  1.0000
  H   H33       1.0  0.29577033217498166  0.061214045591292184  0.9044127802937896  1.0000
  H   H34       1.0  0.4387904314977574  0.29576321674593936  0.9044096038296916  1.0000
  H   H35       1.0  0.20423529920267913  0.43878559726094574  0.9044120664566082  1.0000
  H   H36       1.0  0.06121821312866161  0.204228892938076  0.9044112663986754  1.0000
  H   H37       1.0  0.795764982121284  0.9387870450495724  0.5955912377441379  1.0000
  H   H38       1.0  0.5612183892108787  0.795772190355876  0.5955869255380295  1.0000
  H   H39       1.0  0.704232454551267  0.5612152332377107  0.595588963801127  1.0000
  H   H40       1.0  0.9387782941388139  0.7042285812872818  0.5955907454960183  1.0000
  H   H41       1.0  0.7042309398303458  0.9387869128724159  0.09558589939091892  1.0000
  H   H42       1.0  0.5612100871488507  0.7042332217907086  0.0955876298502716  1.0000
  H   H43       1.0  0.795768986030737  0.5612108413039038  0.09559058974532773  1.0000
  H   H44       1.0  0.9387883320917324  0.7957690522892378  0.09559138979948763  1.0000
  H   H45       1.0  0.20423327654756207  0.06121165341972558  0.4044103339603211  1.0000
  H   H46       1.0  0.4387813762165962  0.20423630129603504  0.4044121156482278  1.0000
  H   H47       1.0  0.2957650508242864  0.4387857251874791  0.4044111618963627  1.0000
  H   H48       1.0  0.061212431286314484  0.2957701171087733  0.40441118772120194  1.0000
  H   H49       1.0  0.23453569980624417  0.9104342734218134  0.03511094944746421  1.0000
  H   H50       1.0  0.5895595466693989  0.23453760822766864  0.03511210155465961  1.0000
  H   H51       1.0  0.26546710574835686  0.5895577780921711  0.03511354018951351  1.0000
  H   H52       1.0  0.9104503180817785  0.2654645046254841  0.035112348628921104  1.0000
  H   H53       1.0  0.7345387172390472  0.0895565912896075  0.4648898954498649  1.0000
  H   H54       1.0  0.41045208807999234  0.7345410553940112  0.46488400903894705  1.0000
  H   H55       1.0  0.7654650170266991  0.4104487500208903  0.4648835998933266  1.0000
  H   H56       1.0  0.08954910699851128  0.7654594978665085  0.464887356738366  1.0000
  H   H57       1.0  0.7654753653347798  0.08955764529464719  0.9648862842186718  1.0000
  H   H58       1.0  0.4104424786763871  0.7654641035658186  0.9648851321213886  1.0000
  H   H59       1.0  0.7345341662434066  0.4104431803682827  0.9648873085061711  1.0000
  H   H60       1.0  0.08956225376941522  0.7345357006247891  0.964887777046947  1.0000
  H   H61       1.0  0.26547084138520194  0.9104534070898677  0.535114206747295  1.0000
  H   H62       1.0  0.5895484306784199  0.26546743626680314  0.5351139476407312  1.0000
  H   H63       1.0  0.23453474847735117  0.5895627549237402  0.5351078497535298  1.0000
  H   H64       1.0  0.9104529182266035  0.23453392739358486  0.5351163839733246  1.0000
  C   C1        1.0  0.08325474425068792  0.9813122488718445  0.8521562518866759  1.0000
  C   C2        1.0  0.5186847595990541  0.0832411018980181  0.85215193754172  1.0000
  C   C3        1.0  0.41675064535488815  0.5186886473896803  0.8521512198377297  1.0000
  C   C4        1.0  0.9813043360192067  0.4167562957102929  0.8521562177712955  1.0000
  C   C5        1.0  0.5832460473855717  0.0186967928846542  0.6478451296014287  1.0000
  C   C6        1.0  0.48130263261559486  0.5832513894370165  0.647842562102561  1.0000
  C   C7        1.0  0.9167410846572112  0.48131553170301067  0.6478481089594867  1.0000
  C   C8        1.0  0.0186932600830545  0.9167546405679727  0.647849269880233  1.0000
  C   C9        1.0  0.9167495410105175  0.01868870961116899  0.14784893482658393  1.0000
  C   C10       1.0  0.48131726557225096  0.9167425302075853  0.14784529614025393  1.0000
  C   C11       1.0  0.5832476133365674  0.48131005108505315  0.14784673684843605  1.0000
  C   C12       1.0  0.018695429422002998  0.5832559625378335  0.14784643843202624  1.0000
  C   C13       1.0  0.41676275789126294  0.9813086855704755  0.3521557190818428  1.0000
  C   C14       1.0  0.5186752862720708  0.41674052896171776  0.35215322560437573  1.0000
  C   C15       1.0  0.0832473807849823  0.5186809067129656  0.3521520167526121  1.0000
  C   C16       1.0  0.9813065053004877  0.0832523444362181  0.3521544708302998  1.0000
  C   C17       1.0  0.06714054463128599  0.9634614939761333  0.7994930561297124  1.0000
  C   C18       1.0  0.5365387157268273  0.06712331157971359  0.7994919454261409  1.0000
  C   C19       1.0  0.43286399726643776  0.5365440804417927  0.7994894116089953  1.0000
  C   C20       1.0  0.9634465189353137  0.43288705067192257  0.7994962669284434  1.0000
  C   C21       1.0  0.5671240001853732  0.03654723667167299  0.7005058416390073  1.0000
  C   C22       1.0  0.463446858626078  0.5671233030815868  0.7005043722946169  1.0000
  C   C23       1.0  0.9328632263246418  0.46346718963962263  0.700509508891841  1.0000
  C   C24       1.0  0.03654460862175309  0.9328878418841879  0.7005099331655132  1.0000
  C   C25       1.0  0.9328652473717509  0.036547751048296086  0.20050996156767553  1.0000
  C   C26       1.0  0.46346255615313225  0.932865593756574  0.2005081802698357  1.0000
  C   C27       1.0  0.5671199482311948  0.4634493446563113  0.20050601458686407  1.0000
  C   C28       1.0  0.03655023319655729  0.5671229475883093  0.2005049432726693  1.0000
  C   C29       1.0  0.4328900782827744  0.9634499553112829  0.299494645537493  1.0000
  C   C30       1.0  0.5365333201540563  0.4328603288153515  0.299491415411751  1.0000
  C   C31       1.0  0.06712523917441619  0.5365367819758332  0.29949314733059407  1.0000
  C   C32       1.0  0.9634581701238004  0.06712592303204448  0.2994938075384255  1.0000
  C   C33       1.0  0.1224497441147747  0.019394263341560202  0.7656136952043227  1.0000
  C   C34       1.0  0.480599117100219  0.12243687435326929  0.7656131415640817  1.0000
  C   C35       1.0  0.3775485840199905  0.480607303155608  0.7656095587842487  1.0000
  C   C36       1.0  0.019394691107613892  0.3775714719718266  0.7656177039672445  1.0000
  C   C37       1.0  0.6224366847542059  0.9806042351174821  0.7343832344826995  1.0000
  C   C38       1.0  0.5193927982651657  0.6224446237501834  0.7343806093874505  1.0000
  C   C39       1.0  0.8775477155004194  0.5194006392619526  0.734390968314017  1.0000
  C   C40       1.0  0.9806006419399438  0.8775632640054096  0.7343885323695434  1.0000
  C   C41       1.0  0.8775560478473919  0.9806112150801379  0.23439004549796041  1.0000
  C   C42       1.0  0.5193946214924026  0.8775475109877957  0.23438734564613387  1.0000
  C   C43       1.0  0.6224308416776835  0.5194004349867356  0.2343847829079948  1.0000
  C   C44       1.0  0.9805990477008563  0.6224355129785477  0.23438314473740013  1.0000
  C   C45       1.0  0.3775751338319821  0.01940350332554169  0.26561906020276643  1.0000
  C   C46       1.0  0.4806024471185566  0.3775472948255468  0.26560867126140414  1.0000
  C   C47       1.0  0.12244150335687458  0.4806070989618758  0.26561204940792044  1.0000
  C   C48       1.0  0.0194021367233717  0.12244221438667319  0.26561556983893553  1.0000
  C   C49       1.0  0.9966975028042953  0.8919110843722745  0.783613846902327  1.0000
  C   C50       1.0  0.6080864604896944  0.9966972048435846  0.7836060621271272  1.0000
  C   C51       1.0  0.5032998414335097  0.6080936422273735  0.7836045340414017  1.0000
  C   C52       1.0  0.8918852706462131  0.5032977283478671  0.7836101498460126  1.0000
  C   C53       1.0  0.49669631695971356  0.1080961445687407  0.7163917568170249  1.0000
  C   C54       1.0  0.3918915856437053  0.4967006977008238  0.7163910586270745  1.0000
  C   C55       1.0  0.0032973538744513996  0.39192214282508786  0.7163941875418376  1.0000
  C   C56       1.0  0.10810133174368988  0.003306289877556899  0.7163970547475602  1.0000
  C   C57       1.0  0.003303015880291599  0.10809514731506199  0.21639242432016206  1.0000
  C   C58       1.0  0.39192008481146695  0.003306766951794799  0.21639297905076665  1.0000
  C   C59       1.0  0.4966991704570488  0.3918899898529488  0.21639016913214704  1.0000
  C   C60       1.0  0.10809942820029052  0.49670247663068773  0.21639178337946421  1.0000
  C   C61       1.0  0.5033087215908908  0.8918965274087967  0.28360619986127494  1.0000
  C   C62       1.0  0.6080780467462148  0.5033017670943919  0.2836101516158749  1.0000
  C   C63       1.0  0.9966896049881128  0.6080825820972392  0.2836077456788786  1.0000
  C   C64       1.0  0.8919014469260985  0.9967022017904058  0.2836106624782247  1.0000
  C   C65       1.0  0.3042280894112039  0.025240015642289393  0.9394339925237888  1.0000
  C   C66       1.0  0.4747615219655258  0.3042195319716043  0.9394311230672019  1.0000
  C   C67       1.0  0.1957778570847566  0.474756508697851  0.9394336411708581  1.0000
  C   C68       1.0  0.025249697781191596  0.1957732258221299  0.939433618606394  1.0000
  C   C69       1.0  0.8042253785207689  0.9747582249957031  0.5605692779534479  1.0000
  C   C70       1.0  0.5252436953731133  0.8042316830671794  0.560565762265469  1.0000
  C   C71       1.0  0.6957777696193759  0.5252464185415204  0.5605681366390629  1.0000
  C   C72       1.0  0.9747526728419658  0.6957714537655801  0.5605705678318957  1.0000
  C   C73       1.0  0.6957769491453831  0.9747549162924325  0.060566494666574  1.0000
  C   C74       1.0  0.5252427632945353  0.6957761532810662  0.060566110607545916  1.0000
  C   C75       1.0  0.8042249215317127  0.5252429431343159  0.060568653530452814  1.0000
  C   C76       1.0  0.9747545874422058  0.804221706103149  0.06056831459238051  1.0000
  C   C77       1.0  0.1957781533952883  0.02523821356350449  0.43943229374409043  1.0000
  C   C78       1.0  0.4747575767117026  0.19577680860145105  0.43943183291128224  1.0000
  C   C79       1.0  0.3042212424503603  0.47475905982072664  0.439431627552935  1.0000
  C   C80       1.0  0.025244832481895692  0.30422649137286567  0.4394331728848826  1.0000
  C   C81       1.0  0.2731230196619023  0.9484012812599759  0.0056886086078833  1.0000
  C   C82       1.0  0.5516000994188416  0.27311934002712945  0.005685172103227402  1.0000
  C   C83       1.0  0.22688392066108778  0.5515916120279271  0.005688444231950001  1.0000
  C   C84       1.0  0.9484093801220934  0.22687683468096503  0.0056867802663803  1.0000
  C   C85       1.0  0.7731226762027319  0.05159409483207609  0.49431357027542333  1.0000
  C   C86       1.0  0.44841679999308326  0.7731234315184634  0.49430874419055476  1.0000
  C   C87       1.0  0.7268814432527436  0.44841341802563756  0.4943098923701613  1.0000
  C   C88       1.0  0.0515855336160911  0.7268807999377456  0.4943122273857484  1.0000
  C   C89       1.0  0.7268903053602783  0.05158235095196769  0.9943104325668344  1.0000
  C   C90       1.0  0.448416239101057  0.7268816185895941  0.9943084465339995  1.0000
  C   C91       1.0  0.7731181046929406  0.4484123597232779  0.9943109584543423  1.0000
  C   C92       1.0  0.051591138486386995  0.7731165905721934  0.994311899421888  1.0000
  C   C93       1.0  0.22688311574941616  0.9484098769500517  0.5056894474236842  1.0000
  C   C94       1.0  0.5515927586859276  0.22688732019275187  0.5056877664679433  1.0000
  C   C95       1.0  0.27312058217027163  0.5515958269722177  0.5056866182997625  1.0000
  C   C96       1.0  0.9484134783628448  0.27311714521687236  0.5056904288233498  1.0000
  N   N1        1.0  0.2283179139867855  0.9824472265884265  0.9648968934573078  1.0000
  N   N2        1.0  0.5175517015288733  0.22831233712062723  0.9648949131803237  1.0000
  N   N3        1.0  0.27168832490117717  0.5175450443813929  0.9648973443192406  1.0000
  N   N4        1.0  0.9824600898532623  0.27168321529357087  0.9648974776380899  1.0000
  N   N5        1.0  0.728317385582308  0.017550302171031294  0.5351062358937142  1.0000
  N   N6        1.0  0.4824656104551082  0.7283192189906412  0.5351005758680145  1.0000
  N   N7        1.0  0.77168547012576  0.48245256817823184  0.5351016826042425  1.0000
  N   N8        1.0  0.017537719417703098  0.7716841365811076  0.5351044900543088  1.0000
  N   N9        1.0  0.7716916444873688  0.017543938790446093  0.0351021477204156  1.0000
  N   N10       1.0  0.48245559705637203  0.7716856081237393  0.035101235983816516  1.0000
  N   N11       1.0  0.7283144537097924  0.4824529008122907  0.03510350437524321  1.0000
  N   N12       1.0  0.017547208676731398  0.7283132233003611  0.0351051785594763  1.0000
  N   N13       1.0  0.2716884063675806  0.9824536696105566  0.46489714330722626  1.0000
  N   N14       1.0  0.5175401815813672  0.2716892727232363  0.4648959347966937  1.0000
  N   N15       1.0  0.22831128195827688  0.5175498968846951  0.46489555107921643  1.0000
  N   N16       1.0  0.9824575259640936  0.22831531517998363  0.46489672015244576  1.0000
  N   N17       1.0  0.37142975047269994  0.9681136096244529  0.005758952306735  1.0000
  N   N18       1.0  0.5318760082803563  0.37142443912573947  0.0057567458888101  1.0000
  N   N19       1.0  0.12857568231274996  0.5318785301167565  0.005759086248971802  1.0000
  N   N20       1.0  0.9681304570503497  0.12857173533383556  0.0057612532242288  1.0000
  N   N21       1.0  0.8714297806790724  0.0318761307868343  0.49424330268063  1.0000
  N   N22       1.0  0.46812998211095186  0.8714326780391628  0.4942399980188555  1.0000
  N   N23       1.0  0.6285743396411049  0.46812912232281423  0.49423845124859883  1.0000
  N   N24       1.0  0.03187235235484559  0.628570800304196  0.4942428798588807  1.0000
  N   N25       1.0  0.6285805613033092  0.031874542482007884  0.9942390043653904  1.0000
  N   N26       1.0  0.4681267703768127  0.6285750127161973  0.9942390417795652  1.0000
  N   N27       1.0  0.8714270962987101  0.4681201683956217  0.9942428469507549  1.0000
  N   N28       1.0  0.031879101440772196  0.8714247032791886  0.9942432104792049  1.0000
  N   N29       1.0  0.12857601125676152  0.9681270876727976  0.5057611610260437  1.0000
  N   N30       1.0  0.5318750565923266  0.1285758136652788  0.5057579586542573  1.0000
  N   N31       1.0  0.3714276857959645  0.5318808759970038  0.5057569749155918  1.0000
  N   N32       1.0  0.9681266596168213  0.3714263915300861  0.5057597763504661  1.0000
  N   N33       1.0  0.39127672936820795  0.017285004158459592  0.9631317596930276  1.0000
  N   N34       1.0  0.48271053688323917  0.39126875030250097  0.9631282509256212  1.0000
  N   N35       1.0  0.10872892063164839  0.4827114489714431  0.9631309328394694  1.0000
  N   N36       1.0  0.017292099830370895  0.10872619616363718  0.9631304650916165  1.0000
  N   N37       1.0  0.8912737151383183  0.9827066301689836  0.5368708965698303  1.0000
  N   N38       1.0  0.5172948539911105  0.891278559212395  0.5368689388696738  1.0000
  N   N39       1.0  0.6087274695067464  0.5172935646406742  0.5368674826694787  1.0000
  N   N40       1.0  0.9827085906346297  0.6087238955768013  0.5368716093765897  1.0000
  N   N41       1.0  0.608731322494492  0.9827106811262211  0.03686836599088392  1.0000
  N   N42       1.0  0.5172929950762679  0.6087284415857254  0.03686753674240611  1.0000
  N   N43       1.0  0.8912746112703474  0.5172842362658086  0.036871723363809415  1.0000
  N   N44       1.0  0.9827099254469258  0.8912709957019086  0.036870745106043  1.0000
  N   N45       1.0  0.10872981676093467  0.017288301749026395  0.4631310366300384  1.0000
  N   N46       1.0  0.4827109380435886  0.10873068581963706  0.4631290178020962  1.0000
  N   N47       1.0  0.3912707893045848  0.48271568032300377  0.4631275819985917  1.0000
  N   N48       1.0  0.017291174677978898  0.3912748029059542  0.4631306853293396  1.0000
  O   O1        1.0  0.13319261921584766  0.055976956638701794  0.8668941891434303  1.0000
  O   O2        1.0  0.4440231933011987  0.13318248367579597  0.8668937126549283  1.0000
  O   O3        1.0  0.36680896168849847  0.444026565517042  0.8668911923827596  1.0000
  O   O4        1.0  0.055973867669742106  0.36682480503198883  0.86689564539671  1.0000
  O   O5        1.0  0.6331831343548088  0.9440353089789606  0.6331034323493867  1.0000
  O   O6        1.0  0.5559734493710237  0.6331859701961521  0.63310111575548  1.0000
  O   O7        1.0  0.8668085597863777  0.5559789096507897  0.633107196883387  1.0000
  O   O8        1.0  0.9440250245960299  0.866816195379748  0.633105536951277  1.0000
  O   O9        1.0  0.8668154326533253  0.9440217419218582  0.13310955155779422  1.0000
  O   O10       1.0  0.55598485854874  0.8668109416500653  0.1331049670224047  1.0000
  O   O11       1.0  0.6331810105195999  0.5559804194018766  0.1331064028108884  1.0000
  O   O12       1.0  0.9440289110816236  0.6331874532484744  0.13310484179125842  1.0000
  O   O13       1.0  0.366821904313582  0.0559716760799276  0.36689777784068417  1.0000
  O   O14       1.0  0.4440074828253414  0.3668036882788285  0.3668892494203818  1.0000
  O   O15       1.0  0.13318819227004036  0.4440228020869198  0.36689329031678153  1.0000
  O   O16       1.0  0.05597624738216211  0.13318476307745186  0.3668974807553839  1.0000
  O   O17       1.0  0.04313264509467979  0.9170377727254642  0.8822379829099136  1.0000
  O   O18       1.0  0.5829525269189163  0.043108536460934495  0.8822335091257048  1.0000
  O   O19       1.0  0.45688442126681394  0.5829570066954516  0.8822327922492121  1.0000
  O   O20       1.0  0.9170331788860792  0.45687521095481287  0.8822401186573432  1.0000
  O   O21       1.0  0.5431142652996782  0.08296522125841929  0.617762792070998  1.0000
  O   O22       1.0  0.41703333738863085  0.5431229471219793  0.6177595708093193  1.0000
  O   O23       1.0  0.9568657098348082  0.4170426737299592  0.6177664200484259  1.0000
  O   O24       1.0  0.0829621783070635  0.9568741334348017  0.6177631736980089  1.0000
  O   O25       1.0  0.9568814333117499  0.08295489933117035  0.11776539628269943  1.0000
  O   O26       1.0  0.41704271825058475  0.9568668090545385  0.1177644475724904  1.0000
  O   O27       1.0  0.5431221239965466  0.41704093854218616  0.11776299541419631  1.0000
  O   O28       1.0  0.08295905313289609  0.5431197208497947  0.11776470657355995  1.0000
  O   O29       1.0  0.4568809800838949  0.9170334771845176  0.38223697212868774  1.0000
  O   O30       1.0  0.5829521147390295  0.45686671139336693  0.382232963370953  1.0000
  O   O31       1.0  0.04311898897663719  0.5829522580100885  0.3822329826659684  1.0000
  O   O32       1.0  0.9170390936543242  0.04312531838119329  0.3822402055109748  1.0000
