data_image0
_chemical_formula_structural       AlH12C33N3O12
_chemical_formula_sum              "Al1 H12 C33 N3 O12"
_cell_length_a       3.977382137852675
_cell_length_b       20.422372669343865
_cell_length_c       20.48894675778818
_cell_angle_alpha    60.06727893578219
_cell_angle_beta     87.28345499602499
_cell_angle_gamma    87.18404625778366

_space_group_name_H-M_alt    "P 1"
_space_group_IT_number       1

loop_
  _space_group_symop_operation_xyz
  'x, y, z'

loop_
  _atom_site_type_symbol
  _atom_site_label
  _atom_site_symmetry_multiplicity
  _atom_site_fract_x
  _atom_site_fract_y
  _atom_site_fract_z
  _atom_site_occupancy
  Al  Al1       1.0  0.0285389281938464  0.4994762881107847  0.49995159466206474  1.0000
  H   H1        1.0  0.819628222148552  0.30724764963804324  0.7060086463070622  1.0000
  H   H2        1.0  0.8031091912756595  0.23413424261454455  0.846965106586737  1.0000
  H   H3        1.0  0.23873338099451055  0.7090008601020443  0.3064035312640741  1.0000
  H   H4        1.0  0.24586455935361326  0.8504295307736244  0.23405838742800705  1.0000
  H   H5        1.0  0.27315892945021863  0.3079065493111131  0.4853218021064835  1.0000
  H   H6        1.0  0.2971892949787218  0.23455363399259002  0.41718335908439047  1.0000
  H   H7        1.0  0.7773384203008007  0.7069047089041476  0.48454325406713405  1.0000
  H   H8        1.0  0.7569277534434422  0.8484177549744772  0.4161931345794797  1.0000
  H   H9        1.0  0.20607492226069013  0.4847860205152231  0.7097162243859289  1.0000
  H   H10       1.0  0.2183354522204866  0.4159960588329811  0.8505724611349453  1.0000
  H   H11       1.0  0.8656551238401067  0.48087396471252936  0.3072732836304937  1.0000
  H   H12       1.0  0.8629714805934444  0.4118448361490224  0.23502852702917923  1.0000
  C   C1        1.0  0.5162680756380454  0.44183157176048843  0.6160176036378502  1.0000
  C   C2        1.0  0.5553636235590388  0.44101228609282833  0.4418592809035078  1.0000
  C   C3        1.0  0.5143012499049462  0.6159166721622215  0.44155450420191045  1.0000
  C   C4        1.0  0.6833008053353639  0.3296682701253602  0.7383473957588723  1.0000
  C   C5        1.0  0.6761716735276339  0.28930505585339006  0.816503676020645  1.0000
  C   C6        1.0  0.3561067612867177  0.7401749911056542  0.32916544645392787  1.0000
  C   C7        1.0  0.35808352386656855  0.8185710372964224  0.2892430364395153  1.0000
  C   C8        1.0  0.4074980609054677  0.329150564819642  0.43130156069379694  1.0000
  C   C9        1.0  0.41923455320901576  0.2886371861308276  0.39339743295494173  1.0000
  C   C10       1.0  0.656070589224946  0.7390458714171189  0.43041468009904804  1.0000
  C   C11       1.0  0.6464468127301045  0.8174429490785685  0.3924029776118872  1.0000
  C   C12       1.0  0.34073411922622654  0.43056234310432023  0.740371506528206  1.0000
  C   C13       1.0  0.3454863532440627  0.3922187325014761  0.8185114333945196  1.0000
  C   C14       1.0  0.7372780864176749  0.4276223607081633  0.33006254140694585  1.0000
  C   C15       1.0  0.7378264823463568  0.3891263675899382  0.29018002413523913  1.0000
  C   C16       1.0  0.5125500471511019  0.39998142632927625  0.6998238999916495  1.0000
  C   C17       1.0  0.5101423582514074  0.32061981300863357  0.8575141031019559  1.0000
  C   C18       1.0  0.5104466025111523  0.2807566294075841  0.9369817295422114  1.0000
  C   C19       1.0  0.5117113852341789  0.2466689267284891  0.005627023847665727  1.0000
  C   C20       1.0  0.516680241208853  0.20736439431009762  0.0848140347050474  1.0000
  C   C21       1.0  0.5080539523203598  0.6999819994475872  0.3995139563172075  1.0000
  C   C22       1.0  0.5004621758861705  0.8581460419418435  0.3208473996834941  1.0000
  C   C23       1.0  0.49910492950819935  0.9378264661227577  0.28107730675483816  1.0000
  C   C24       1.0  0.5001712376890027  0.006663894971765701  0.24647034951800614  1.0000
  C   C25       1.0  0.5090189250108141  0.08593100775022582  0.2065254888464665  1.0000
  C   C26       1.0  0.5683361985429799  0.39848619380387623  0.4002756582751986  1.0000
  C   C27       1.0  0.5803142275530108  0.3188497280915286  0.32170551074621306  1.0000
  C   C28       1.0  0.5777743344238858  0.2795727308943441  0.2813789662772593  1.0000
  C   C29       1.0  0.5691012778756247  0.24657427005440274  0.24570850401332225  1.0000
  C   C30       1.0  0.5504708524177248  0.20748238944119635  0.20576644434004984  1.0000
  C   C31       1.0  0.4959984751357213  0.12774607272776003  0.1269871319391456  1.0000
  C   C32       1.0  0.5341210327465049  0.12784926192730953  0.24382825348227757  1.0000
  C   C33       1.0  0.544734567869021  0.2454188382867386  0.12609964801085033  1.0000
  N   N1        1.0  0.544519117786905  0.08638936500204153  0.3265905844802789  1.0000
  N   N2        1.0  0.5702147079475071  0.3281142532669961  0.08455386403475983  1.0000
  N   N3        1.0  0.4568910800205473  0.08611351742212751  0.08654677230562413  1.0000
  O   O1        1.0  0.2896526395898817  0.582698862551027  0.4271391591106948  1.0000
  O   O2        1.0  0.275612573199112  0.4894081020045534  0.5831347266023243  1.0000
  O   O3        1.0  0.31393064317524033  0.42698983177079  0.4900258476383571  1.0000
  O   O4        1.0  0.7448509201660088  0.5822432212251557  0.4896415194403617  1.0000
  O   O5        1.0  0.7839688180243771  0.488577678672513  0.4271031206883295  1.0000
  O   O6        1.0  0.761427683323639  0.4272054541251933  0.5822308078691095  1.0000
  O   O7        1.0  0.7523023641865976  0.03318723806567899  0.3555229885967394  1.0000
  O   O8        1.0  0.3452028711288336  0.10793006103518371  0.36062239663412055  1.0000
  O   O9        1.0  0.7718498059023278  0.3553767939213017  0.10810212463527337  1.0000
  O   O10       1.0  0.39010340515769576  0.3643289240991976  0.029368413027810868  1.0000
  O   O11       1.0  0.6381106400075183  0.1034412556955076  0.029943345753110914  1.0000
  O   O12       1.0  0.24232732840673782  0.036696094923875905  0.11252222154913485  1.0000
