data_image0
_chemical_formula_structural       Zn8H48C96O26
_chemical_formula_sum              "Zn8 H48 C96 O26"
_cell_length_a       18.26867859725781
_cell_length_b       18.520794119599405
_cell_length_c       18.370243444381586
_cell_angle_alpha    120.32241736025935
_cell_angle_beta     119.4070282298802
_cell_angle_gamma    90.05500752703949

_space_group_name_H-M_alt    "P 1"
_space_group_IT_number       1

loop_
  _space_group_symop_operation_xyz
  'x, y, z'

loop_
  _atom_site_type_symbol
  _atom_site_label
  _atom_site_symmetry_multiplicity
  _atom_site_fract_x
  _atom_site_fract_y
  _atom_site_fract_z
  _atom_site_occupancy
  Zn  Zn1       1.0  0.9407784133552186  0.8497508364723457  0.8960053370010004  1.0000
  Zn  Zn2       1.0  0.9409315329098861  0.020681676198528006  0.07655665887485695  1.0000
  Zn  Zn3       1.0  0.9387421950225562  0.025180156800573214  0.9029991173648854  1.0000
  Zn  Zn4       1.0  0.11515822867418282  0.022991148954396603  0.07309512094695243  1.0000
  Zn  Zn5       1.0  0.528140378770573  0.6099974322460258  0.07212904538580066  1.0000
  Zn  Zn6       1.0  0.5291508015518859  0.43192030640657475  0.8999972555902078  1.0000
  Zn  Zn7       1.0  0.35331508887657054  0.43638812049707815  0.8991151426516171  1.0000
  Zn  Zn8       1.0  0.5255152542047626  0.4403155949902102  0.07779629234925538  1.0000
  H   H1        1.0  0.690017484319853  0.8089620247531998  0.8336714736720626  1.0000
  H   H2        1.0  0.526975975414402  0.7526702615631891  0.7131704960745257  1.0000
  H   H3        1.0  0.43250145393768963  0.6562386755923698  0.714692813616843  1.0000
  H   H4        1.0  0.5015690358624099  0.6160412864406695  0.8362812030180892  1.0000
  H   H5        1.0  0.7749039057300141  0.6304663690698503  0.11667340410526351  1.0000
  H   H6        1.0  0.9381060746698965  0.6856827528692124  0.23613862575930986  1.0000
  H   H7        1.0  0.03223373026217761  0.7851655635717167  0.2375674199873362  1.0000
  H   H8        1.0  0.9630200985002806  0.8282741219780051  0.11884516443582553  1.0000
  H   H9        1.0  0.964675045166722  0.8213896344360098  0.6764160800977526  1.0000
  H   H10       1.0  0.03171907625039691  0.7656038777701115  0.5787592127470804  1.0000
  H   H11       1.0  0.9351503675376381  0.6703554812438386  0.38690743500382074  1.0000
  H   H12       1.0  0.7719532250314247  0.631571292901896  0.293455381952498  1.0000
  H   H13       1.0  0.5022098491231904  0.6486156511855797  0.2982067344753008  1.0000
  H   H14       1.0  0.4350238869562802  0.7050802198309043  0.3956463675289259  1.0000
  H   H15       1.0  0.5316295210498296  0.8036166610221969  0.5875646783544044  1.0000
  H   H16       1.0  0.6948866826835886  0.844718845238383  0.6811260610941977  1.0000
  H   H17       1.0  0.12631986048610608  0.8181970284449777  0.10834118062324923  1.0000
  H   H18       1.0  0.16270486453691294  0.7629250110965416  0.21469282193992026  1.0000
  H   H19       1.0  0.258021906520476  0.6660607668173811  0.21519217241720437  1.0000
  H   H20       1.0  0.3167197562863606  0.6250971340229938  0.10947033574321825  1.0000
  H   H21       1.0  0.34047223064345655  0.639486279142503  0.8576437640748016  1.0000
  H   H22       1.0  0.2994205341088902  0.6901175475222349  0.7463833588864763  1.0000
  H   H23       1.0  0.20135491438034592  0.7842128504401346  0.7430048350136433  1.0000
  H   H24       1.0  0.14595524795326048  0.828521065393396  0.8522297453064599  1.0000
  H   H25       1.0  0.6991879108525443  0.003376680348424109  0.8817910334272415  1.0000
  H   H26       1.0  0.5364986929373857  0.936160206071655  0.7772774241723542  1.0000
  H   H27       1.0  0.4392721245992207  0.03122763394549111  0.7750411649661972  1.0000
  H   H28       1.0  0.5052953363923578  0.19301199776110425  0.8769797765530003  1.0000
  H   H29       1.0  0.7742401810797759  0.46226947856357736  0.11966425403909396  1.0000
  H   H30       1.0  0.9371958735120248  0.5297182630499151  0.22604819758768008  1.0000
  H   H31       1.0  0.03434226449293478  0.4348817074288506  0.22949445353958728  1.0000
  H   H32       1.0  0.9683229160020307  0.27284362335521456  0.1264061983402201  1.0000
  H   H33       1.0  0.12291341358874062  0.26081151112025225  0.2943440741698212  1.0000
  H   H34       1.0  0.15655573117084745  0.42268064677161743  0.3886631548446574  1.0000
  H   H35       1.0  0.25310295463200566  0.5200014442762254  0.5805629511709897  1.0000
  H   H36       1.0  0.31528620213651243  0.4551065581074809  0.6772038729139  1.0000
  H   H37       1.0  0.3497084688880677  0.18887209203033  0.679514193961893  1.0000
  H   H38       1.0  0.3134373125357899  0.02685506824337121  0.5849676715217387  1.0000
  H   H39       1.0  0.2156646200875373  0.9296127338868917  0.3930930635098524  1.0000
  H   H40       1.0  0.15433196217745865  0.9949584331854456  0.29662857230490447  1.0000
  H   H41       1.0  0.13427236049323452  0.000610300656262604  0.847046912395385  1.0000
  H   H42       1.0  0.1795380040144324  0.9351636277483241  0.7278072363999832  1.0000
  H   H43       1.0  0.27343812654068256  0.032401931831124414  0.7266199198144607  1.0000
  H   H44       1.0  0.32234018009632603  0.19459392650318116  0.8452198352108697  1.0000
  H   H45       1.0  0.3244714628880489  0.4625132137998379  0.12310394934245769  1.0000
  H   H46       1.0  0.2759078334367403  0.527858466614916  0.2392001658768949  1.0000
  H   H47       1.0  0.18127221645364952  0.4304966371832037  0.23949189132345353  1.0000
  H   H48       1.0  0.13505414964399884  0.2682333300875825  0.12336056535625778  1.0000
  C   C1        1.0  0.8420740028867685  0.8367023900898831  0.978741917664266  1.0000
  C   C2        1.0  0.7852009357347713  0.7769601694206544  0.9773303885270653  1.0000
  C   C3        1.0  0.6922150929122922  0.7456474662443001  0.9071753416857364  1.0000
  C   C4        1.0  0.6493811301188543  0.767503074298574  0.8354627230469877  1.0000
  C   C5        1.0  0.5583846011176307  0.736143961638561  0.7682560289855476  1.0000
  C   C6        1.0  0.5047047070067237  0.6812293216286706  0.7689854208025938  1.0000
  C   C7        1.0  0.5432531442538889  0.6587387523997491  0.8367721564704953  1.0000
  C   C8        1.0  0.6377153713740713  0.6895673047332951  0.9076769981261071  1.0000
  C   C9        1.0  0.6793541844715706  0.6672247676944493  0.9776017709858636  1.0000
  C   C10       1.0  0.622576685647701  0.6111156043086369  0.9800631218093875  1.0000
  C   C11       1.0  0.7724509904989746  0.6972494663779758  0.04649721852170086  1.0000
  C   C12       1.0  0.8154521113193245  0.6737168583047862  0.11662625166201945  1.0000
  C   C13       1.0  0.9064908190111828  0.7044125057527142  0.18318094944533717  1.0000
  C   C14       1.0  0.9599905453407023  0.7607888785794402  0.18381619670918795  1.0000
  C   C15       1.0  0.921312198308272  0.7848182737628878  0.11754352022218527  1.0000
  C   C16       1.0  0.8268541421886586  0.7540972106234636  0.046741523223574  1.0000
  C   C17       1.0  0.8452906492399563  0.8466386306077568  0.7100045407915732  1.0000
  C   C18       1.0  0.787652083432008  0.7906012238757043  0.5950764975514534  1.0000
  C   C19       1.0  0.8279864544386798  0.7592347414527297  0.5416283568152809  1.0000
  C   C20       1.0  0.9222567000286122  0.7802660350339609  0.5927479615270459  1.0000
  C   C21       1.0  0.959546592380086  0.7490801492996157  0.5383038659568772  1.0000
  C   C22       1.0  0.9046334423349267  0.6949101633787366  0.4292137843113298  1.0000
  C   C23       1.0  0.8137661223054597  0.6732073191181487  0.37717504740447827  1.0000
  C   C24       1.0  0.7722467586297769  0.7041755504668076  0.4308450733149914  1.0000
  C   C25       1.0  0.6792962863730454  0.6824204494793735  0.37971023038805674  1.0000
  C   C26       1.0  0.6214544218246374  0.6234959980069166  0.264723848123488  1.0000
  C   C27       1.0  0.6390091472501357  0.7134568526995368  0.43318596397347914  1.0000
  C   C28       1.0  0.5446497511861426  0.6911487356795976  0.3819101945477573  1.0000
  C   C29       1.0  0.507225182459692  0.7225244054831065  0.43618256686939116  1.0000
  C   C30       1.0  0.5621325326217818  0.7783388951150557  0.5452676094711255  1.0000
  C   C31       1.0  0.6530995490539767  0.8012009675833272  0.5974640146525165  1.0000
  C   C32       1.0  0.6947462644393313  0.7697936630387048  0.5439498023585403  1.0000
  C   C33       1.0  0.12262890009735376  0.8410001844141776  0.9826082229836861  1.0000
  C   C34       1.0  0.17989803013667688  0.7831223155663808  0.982718978395177  1.0000
  C   C35       1.0  0.20046528852065396  0.7536436832570745  0.045444414293555946  1.0000
  C   C36       1.0  0.16836137663909775  0.7763942833892871  0.10853846483921378  1.0000
  C   C37       1.0  0.18875099723651803  0.7456755352209471  0.16798197385943353  1.0000
  C   C38       1.0  0.2429139590097337  0.6906518495104238  0.1682561794931063  1.0000
  C   C39       1.0  0.27554673908190364  0.6677099259888665  0.10918155743260649  1.0000
  C   C40       1.0  0.2557084048063203  0.6979878912537814  0.04595940633232242  1.0000
  C   C41       1.0  0.28782705525826907  0.675447588915034  0.9842981633147546  1.0000
  C   C42       1.0  0.34566124610219623  0.618107335085334  0.9853789996303636  1.0000
  C   C43       1.0  0.2666135891974194  0.7042684188227428  0.9208873519505619  1.0000
  C   C44       1.0  0.2976983913198766  0.6805262098059616  0.856708299643771  1.0000
  C   C45       1.0  0.2746536864793186  0.7086194578081264  0.7944955342927078  1.0000
  C   C46       1.0  0.21915943880232186  0.762348872443219  0.7928446568634089  1.0000
  C   C47       1.0  0.18830654992651577  0.7870934348415448  0.8537968871243397  1.0000
  C   C48       1.0  0.21071046111778463  0.7593322930788489  0.9197139099186064  1.0000
  C   C49       1.0  0.8489603689087845  0.12196653099641715  0.9998949337634074  1.0000
  C   C50       1.0  0.7912926464704173  0.17952418431799805  0.001796342669806042  1.0000
  C   C51       1.0  0.6984798202313273  0.13902637374324914  0.9412637640708754  1.0000
  C   C52       1.0  0.6573317662357497  0.04531379166152051  0.8805733126394131  1.0000
  C   C53       1.0  0.56652666325612  0.007780511430951304  0.8222008132150906  1.0000
  C   C54       1.0  0.5112983345507162  0.06178283674104532  0.8209104034814417  1.0000
  C   C55       1.0  0.5481628417680685  0.15207675670852444  0.8778992344369245  1.0000
  C   C56       1.0  0.6423534885750259  0.19384652634695246  0.9397233415864936  1.0000
  C   C57       1.0  0.6821818970337932  0.2861054611825793  0.9986018087356786  1.0000
  C   C58       1.0  0.6238591233062892  0.34291043310245334  0.9954036331558033  1.0000
  C   C59       1.0  0.7750481371034971  0.3266696183634893  0.05988490977847535  1.0000
  C   C60       1.0  0.8161620738592537  0.42038951453376694  0.12087094114662766  1.0000
  C   C61       1.0  0.9070186436287673  0.45802767796107713  0.18028555341288702  1.0000
  C   C62       1.0  0.9622415067427356  0.40408605653706087  0.18218673210009947  1.0000
  C   C63       1.0  0.9254049649127867  0.31373873059894924  0.12456445386527562  1.0000
  C   C64       1.0  0.8311843943580971  0.27188104811897074  0.06169897051243844  1.0000
  C   C65       1.0  0.12374012379424933  0.11252530975464482  0.26436016093354203  1.0000
  C   C66       1.0  0.1816733967209104  0.17046993955538173  0.37939476200045175  1.0000
  C   C67       1.0  0.20006801216340625  0.2626766476241755  0.4311261639108893  1.0000
  C   C68       1.0  0.16543062863731006  0.30299918441463103  0.37803445363972105  1.0000
  C   C69       1.0  0.18427278935327257  0.3931522190746223  0.43055634302949414  1.0000
  C   C70       1.0  0.23917988283323416  0.44848103780075393  0.5396326453541251  1.0000
  C   C71       1.0  0.27390283301359375  0.4123360200089509  0.5935348247950432  1.0000
  C   C72       1.0  0.25579811974032657  0.3188127878049445  0.5419153149132757  1.0000
  C   C73       1.0  0.290726120501816  0.27969726454828264  0.5948606818146305  1.0000
  C   C74       1.0  0.34800870568347625  0.33789989248955277  0.7098444183304128  1.0000
  C   C75       1.0  0.2723663128306698  0.18746497120606165  0.543039472767923  1.0000
  C   C76       1.0  0.3063834028421013  0.1468392547269985  0.5958819865968935  1.0000
  C   C77       1.0  0.28620810043563694  0.05653148170049601  0.5431528788375531  1.0000
  C   C78       1.0  0.23069271726636498  0.0012694717634290057  0.4340694740585322  1.0000
  C   C79       1.0  0.19666164974630362  0.03765174933334241  0.3803372008855207  1.0000
  C   C80       1.0  0.21592173282564897  0.13129591630131904  0.43227588196246824  1.0000
  C   C81       1.0  0.1204658205762499  0.11869152949059011  0.9863363361811753  1.0000
  C   C82       1.0  0.17701002205537017  0.17695085373995312  0.9859260514549038  1.0000
  C   C83       1.0  0.20225917844943103  0.13747107492891797  0.9173624367581542  1.0000
  C   C84       1.0  0.17565683226084167  0.04355554442583552  0.8474933934879305  1.0000
  C   C85       1.0  0.20095031080576586  0.007021679857196305  0.7810260604511472  1.0000
  C   C86       1.0  0.25454957129343125  0.06228955303757292  0.780571789326814  1.0000
  C   C87       1.0  0.28180642769291353  0.15280942445578924  0.8467482224301792  1.0000
  C   C88       1.0  0.25684036715261993  0.193616663794984  0.9170459414234957  1.0000
  C   C89       1.0  0.28343673355362853  0.28612954982534694  0.98569581941797  1.0000
  C   C90       1.0  0.34180630141833035  0.3442165768915474  0.9868870762562241  1.0000
  C   C91       1.0  0.2575596793018846  0.32562752604338396  0.053709517913439815  1.0000
  C   C92       1.0  0.28294782448489303  0.41951606298620453  0.12245917544154866  1.0000
  C   C93       1.0  0.25586774559610603  0.45597889868237484  0.18722834335330443  1.0000
  C   C94       1.0  0.20203748548271963  0.4006649608620307  0.1873590900188661  1.0000
  C   C95       1.0  0.1763094403961176  0.3101299659745748  0.12260354375877822  1.0000
  C   C96       1.0  0.20268457175375695  0.2694620469963099  0.05369970160693791  1.0000
  O   O1        1.0  0.9841385068018556  0.9799698205278207  0.9878285428941356  1.0000
  O   O2        1.0  0.865093707508898  0.9195936593113959  0.04448705813315734  1.0000
  O   O3        1.0  0.8623508742182795  0.7990256491777857  0.9143673145041977  1.0000
  O   O4        1.0  0.6014641775762685  0.5274732595585762  0.9202839330626207  1.0000
  O   O5        1.0  0.6006671129867415  0.6528989559557772  0.042211941172780744  1.0000
  O   O6        1.0  0.8595563577906591  0.9297476956751256  0.7559861995544074  1.0000
  O   O7        1.0  0.8747087174725015  0.805764675065845  0.7514103456451484  1.0000
  O   O8        1.0  0.5963709852664537  0.5406186860656208  0.22304491363562573  1.0000
  O   O9        1.0  0.6027654030758073  0.6614688573047119  0.2193213682045043  1.0000
  O   O10       1.0  0.16279017646249372  0.9243309745717739  0.04357864577963308  1.0000
  O   O11       1.0  0.03889709516128898  0.8013347058709287  0.9217243599242697  1.0000
  O   O12       1.0  0.30557352149500633  0.5348170788632772  0.9251714653735379  1.0000
  O   O13       1.0  0.4294158465814278  0.6578819484678677  0.04640789539507769  1.0000
  O   O14       1.0  0.8699723628723179  0.10124082510464662  0.936971242159686  1.0000
  O   O15       1.0  0.8713536589663281  0.09880592990766963  0.060367745984940865  1.0000
  O   O16       1.0  0.5998927126811396  0.3666547452984049  0.05626574999707421  1.0000
  O   O17       1.0  0.6036402451986618  0.3621175271156929  0.93190600442955  1.0000
  O   O18       1.0  0.16355622836408662  0.09406975071113521  0.21975110934858585  1.0000
  O   O19       1.0  0.0401163420920341  0.08751546021405691  0.22192605027569814  1.0000
  O   O20       1.0  0.30749239062783573  0.3663224941339252  0.7533545545649718  1.0000
  O   O21       1.0  0.4316354776952097  0.353702890982973  0.7536327134430041  1.0000
  O   O22       1.0  0.1614385649045574  0.0981817188237315  0.048810557433647324  1.0000
  O   O23       1.0  0.03662720816241462  0.09518356548936424  0.924052553167407  1.0000
  O   O24       1.0  0.30298888130067786  0.3617070354387409  0.9211435412967081  1.0000
  O   O25       1.0  0.4251189544491894  0.3705024154869535  0.05355639433274472  1.0000
  O   O26       1.0  0.4842696571351583  0.4796371963752436  0.9871086662445879  1.0000
