data_image0
_chemical_formula_structural       Zn4H44C48N12O8
_chemical_formula_sum              "Zn4 H44 C48 N12 O8"
_cell_length_a       9.519022502747575
_cell_length_b       9.776070129852451
_cell_length_c       20.2236
_cell_angle_alpha    101.61790261844783
_cell_angle_beta     103.07222970079076
_cell_angle_gamma    90.11158960232386

_space_group_name_H-M_alt    "P 1"
_space_group_IT_number       1

loop_
  _space_group_symop_operation_xyz
  'x, y, z'

loop_
  _atom_site_type_symbol
  _atom_site_label
  _atom_site_symmetry_multiplicity
  _atom_site_fract_x
  _atom_site_fract_y
  _atom_site_fract_z
  _atom_site_occupancy
  Zn  Zn1       1.0  0.5260482742586774  0.0869142459594769  0.42922904255263455  1.0000
  Zn  Zn2       1.0  0.09461026196767361  0.411320278358545  0.5690416492199404  1.0000
  Zn  Zn3       1.0  0.4739493000908865  0.9130847398109552  0.570768573144079  1.0000
  Zn  Zn4       1.0  0.9053849941706247  0.588675570619408  0.43095442537322276  1.0000
  H   H1        1.0  0.4216519634865108  0.1572578628591614  0.2205254880240446  1.0000
  H   H2        1.0  0.19976090600813734  0.34299989260668434  0.7770992904334619  1.0000
  H   H3        1.0  0.5783469043514344  0.8427453053012427  0.7794751448873143  1.0000
  H   H4        1.0  0.8002387177871668  0.6569970019687688  0.22290377906175957  1.0000
  H   H5        1.0  0.0785418993859253  0.877309621607992  0.2260665339390826  1.0000
  H   H6        1.0  0.8518749274456566  0.6221911526412711  0.774553792439562  1.0000
  H   H7        1.0  0.9214504438430567  0.1226925009549191  0.7739298412718937  1.0000
  H   H8        1.0  0.14813445638654343  0.3778067875316751  0.22544695659451014  1.0000
  H   H9        1.0  0.9617354255731954  0.8826045273095815  0.10442965384253  1.0000
  H   H10       1.0  0.8570176011397309  0.6171450991428742  0.8969334782832306  1.0000
  H   H11       1.0  0.0382722313318808  0.1174017776433018  0.8955648030391856  1.0000
  H   H12       1.0  0.1429904320370667  0.3828685249924533  0.1030696427191842  1.0000
  H   H13       1.0  0.3068161909628202  0.1637050169973904  0.0980705741414667  1.0000
  H   H14       1.0  0.20751542245920257  0.3370263941325149  0.9001770423377521  1.0000
  H   H15       1.0  0.6931924369120283  0.8362991967605069  0.9019277383087498  1.0000
  H   H16       1.0  0.7924887840055278  0.6629757284303963  0.0998270239670873  1.0000
  H   H17       1.0  0.1246304102797282  0.09875772875605549  0.9984344321696668  1.0000
  H   H18       1.0  0.1254042182670645  0.4009824559510449  0.000461229118897723  1.0000
  H   H19       1.0  0.875364523339954  0.9012318466369464  0.0015664365517977978  1.0000
  H   H20       1.0  0.8746044633608817  0.5990228034043454  0.9995406521442192  1.0000
  H   H21       1.0  0.15528481505401  0.0669297410869518  0.6295138605105847  1.0000
  H   H22       1.0  0.5286713754316139  0.4335444530598167  0.3716366104628221  1.0000
  H   H23       1.0  0.8447161022296825  0.9330713358784664  0.3704872814812248  1.0000
  H   H24       1.0  0.4713188108454176  0.5664576695030874  0.6283664577242617  1.0000
  H   H25       1.0  0.24008822907005364  0.2268611967342196  0.6800482000006056  1.0000
  H   H26       1.0  0.562994637155235  0.2736203165950002  0.3205511691955394  1.0000
  H   H27       1.0  0.7599126882136388  0.7731398802311986  0.31995195304759255  1.0000
  H   H28       1.0  0.437002288743173  0.7263870339553691  0.6794491696558964  1.0000
  H   H29       1.0  0.34164727248374765  0.0717060304323027  0.6712543317248816  1.0000
  H   H30       1.0  0.6731150283819716  0.42878489327434716  0.32879297986540484  1.0000
  H   H31       1.0  0.6583548845352354  0.9282981833255944  0.3287472476122915  1.0000
  H   H32       1.0  0.3268781245574743  0.5712120013010987  0.6712064339114859  1.0000
  H   H33       1.0  0.35641270594835117  0.45475021580347885  0.47070329203663874  1.0000
  H   H34       1.0  0.8843436788825727  0.0428768163714466  0.5276083307286042  1.0000
  H   H35       1.0  0.6435903145341939  0.5452498155644462  0.5292964886586589  1.0000
  H   H36       1.0  0.115659019081356  0.9571169414115203  0.472388827017916  1.0000
  H   H37       1.0  0.1872490773650242  0.3710605925106165  0.425527676326368  1.0000
  H   H38       1.0  0.7600754092110834  0.1265214789721369  0.5736483395145271  1.0000
  H   H39       1.0  0.8127507614426934  0.6289404844548017  0.5744718674354417  1.0000
  H   H40       1.0  0.2399293381985927  0.8734701876158438  0.4263503162560482  1.0000
  H   H41       1.0  0.34522302927504  0.3048083985987446  0.40240148213153043  1.0000
  H   H42       1.0  0.940391081760339  0.1929786099925224  0.5957590231974804  1.0000
  H   H43       1.0  0.6547789127315297  0.6951916327691805  0.5975986782209901  1.0000
  H   H44       1.0  0.05961269467957211  0.8070151477904446  0.40423923830723396  1.0000
  C   C1        1.0  0.3244686282369429  0.0134359277775289  0.30499685917115466  1.0000
  C   C2        1.0  0.0180685623150509  0.48593829780722325  0.6940866024439386  1.0000
  C   C3        1.0  0.6755268429137616  0.9865641035903963  0.6950011288784665  1.0000
  C   C4        1.0  0.9819213014433645  0.5140575511707297  0.305915326209778  1.0000
  C   C5        1.0  0.2569186708678188  0.017681053596732  0.2312049610926863  1.0000
  C   C6        1.0  0.0246476379563276  0.4823372600433514  0.7681097863112853  1.0000
  C   C7        1.0  0.7430801969701266  0.9823221145636722  0.7687936939314568  1.0000
  C   C8        1.0  0.9753553825262173  0.5176627713245736  0.2318949391020624  1.0000
  C   C9        1.0  0.3205545259288415  0.0979306611395572  0.1946060987475988  1.0000
  C   C10       1.0  0.1250021446060146  0.4024128333206675  0.8038290953871012  1.0000
  C   C11       1.0  0.6794464988610613  0.902072507020847  0.8053922914338968  1.0000
  C   C12       1.0  0.8750041650575611  0.5975882436447506  0.1961760819802549  1.0000
  C   C13       1.0  0.1269394238467925  0.940409339080233  0.1975091703800231  1.0000
  C   C14       1.0  0.9286637016092812  0.559490853411134  0.8027013911267673  1.0000
  C   C15       1.0  0.8730625181597774  0.0595906922876921  0.802490001028886  1.0000
  C   C16       1.0  0.0713437402833819  0.4405112691517772  0.1973030196218133  1.0000
  C   C17       1.0  0.062295745962465815  0.9439790089193352  0.12921369402440064  1.0000
  C   C18       1.0  0.9324826543207082  0.5560937071582757  0.8712457706131147  1.0000
  C   C19       1.0  0.9377116959301972  0.056023113643576  0.8707862664779425  1.0000
  C   C20       1.0  0.0675239778614909  0.44391364339209355  0.12875856840038583  1.0000
  C   C21       1.0  0.2557883156079583  0.1012776187127713  0.12615672909969078  1.0000
  C   C22       1.0  0.1288876496815661  0.39928231442837603  0.8725266725528442  1.0000
  C   C23       1.0  0.7442161058691852  0.8987286862401049  0.8738423280563269  1.0000
  C   C24       1.0  0.8711187137351217  0.6007198081345351  0.12747712890935503  1.0000
  C   C25       1.0  0.1250279414994608  0.0247377910730364  0.0918307403694882  1.0000
  C   C26       1.0  0.0326817237483823  0.4755293747702396  0.9077048358374141  1.0000
  C   C27       1.0  0.8749803638567712  0.9752601490999026  0.9081684104345911  1.0000
  C   C28       1.0  0.967321619252786  0.5244769301826437  0.09229954569388354  1.0000
  C   C29       1.0  0.06225347984667451  0.0325912738385625  0.0202568251052924  1.0000
  C   C30       1.0  0.0417579569868707  0.4673015681024282  0.9793504741279904  1.0000
  C   C31       1.0  0.9377476021102498  0.9673920279694813  0.9797435929703014  1.0000
  C   C32       1.0  0.9582451172487795  0.53269950886299  0.020654358795624744  1.0000
  C   C33       1.0  0.29812418641813576  0.165854765441793  0.5831661246422045  1.0000
  C   C34       1.0  0.7163020173258303  0.3342451048026973  0.4167643183914933  1.0000
  C   C35       1.0  0.7018755448833787  0.834144220328639  0.4168332040990919  1.0000
  C   C36       1.0  0.2836900033845424  0.6657507441752628  0.5832353675323603  1.0000
  C   C37       1.0  0.2570849195825673  0.1309673595098886  0.6446659506970462  1.0000
  C   C38       1.0  0.6149624470615933  0.36947755790709635  0.3557716701576439  1.0000
  C   C39       1.0  0.7429149192251501  0.8690337174555296  0.3553340875365691  1.0000
  C   C40       1.0  0.3850289251976164  0.6305266558507938  0.6442297499773275  1.0000
  C   C41       1.0  0.31666458829560906  0.259676228436156  0.49718183006980604  1.0000
  C   C42       1.0  0.8188489427039229  0.23822788707425957  0.5016473620520756  1.0000
  C   C43       1.0  0.6833340645299301  0.7403227573342761  0.5028168893851017  1.0000
  C   C44       1.0  0.18115149080184523  0.7617637795137284  0.4983498455165645  1.0000
  C   C45       1.0  0.3004660964499521  0.3521530530552823  0.4466101098850572  1.0000
  C   C46       1.0  0.8522432579224172  0.1453641913829458  0.5519437130443308  1.0000
  C   C47       1.0  0.6995347133275374  0.6478459327151498  0.5533888391990089  1.0000
  C   C48       1.0  0.14775949379461653  0.8546306119975212  0.4480540466842556  1.0000
  N   N1        1.0  0.40453671372843303  0.1536108188056176  0.49740402031287795  1.0000
  N   N2        1.0  0.9060126287083251  0.3454727306762422  0.5019792265152887  1.0000
  N   N3        1.0  0.5954597283920505  0.8463871213673215  0.5025938675307984  1.0000
  N   N4        1.0  0.0939847306288257  0.6545220727042178  0.4980179591403839  1.0000
  N   N5        1.0  0.3927772969964849  0.0940588136251463  0.5519911988613089  1.0000
  N   N6        1.0  0.8408159569029011  0.4065492170006593  0.4481680952435028  1.0000
  N   N7        1.0  0.6072191451239989  0.9059391265477998  0.4480066889823746  1.0000
  N   N8        1.0  0.1591783820187302  0.5934497687697728  0.5518311538966926  1.0000
  N   N9        1.0  0.24756773002325624  0.2704594753754321  0.549971322117095  1.0000
  N   N10       1.0  0.6985324994230312  0.22793711655391038  0.44911013837858593  1.0000
  N   N11       1.0  0.7524331872604364  0.7295416015899859  0.4500288309311101  1.0000
  N   N12       1.0  0.3014669093598599  0.7720555956315636  0.5508870618857387  1.0000
  O   O1        1.0  0.447049327031138  0.0871756453325787  0.33150259919298714  1.0000
  O   O2        1.0  0.11277939200279262  0.41071278621545554  0.6667404877699283  1.0000
  O   O3        1.0  0.5529483010715239  0.9128243860353463  0.6684951240139868  1.0000
  O   O4        1.0  0.8872089598408976  0.5892956099324138  0.33325607324427853  1.0000
  O   O5        1.0  0.26636738065383975  0.9447391582963219  0.33807580509135693  1.0000
  O   O6        1.0  0.9281040743185188  0.5552342260195147  0.6615586128878448  1.0000
  O   O7        1.0  0.7336291152197418  0.0552598274741101  0.6619207068471695  1.0000
  O   O8        1.0  0.0718648683715131  0.4447532581785012  0.3384476912838252  1.0000
