data_image0
_chemical_formula_structural       Zn2H22C30N4O10
_chemical_formula_sum              "Zn2 H22 C30 N4 O10"
_cell_length_a       7.688073448257009
_cell_length_b       8.844780731196641
_cell_length_c       10.756809232400038
_cell_angle_alpha    80.135409598389
_cell_angle_beta     69.66557779849475
_cell_angle_gamma    78.18957121435051

_space_group_name_H-M_alt    "P 1"
_space_group_IT_number       1

loop_
  _space_group_symop_operation_xyz
  'x, y, z'

loop_
  _atom_site_type_symbol
  _atom_site_label
  _atom_site_symmetry_multiplicity
  _atom_site_fract_x
  _atom_site_fract_y
  _atom_site_fract_z
  _atom_site_occupancy
  Zn  Zn1       1.0  0.3135714504641456  0.3767015609385212  0.22126848136571908  1.0000
  Zn  Zn2       1.0  0.6864300155178144  0.6232964629825589  0.7787322375503078  1.0000
  H   H1        1.0  0.4705394874006004  0.6976026442106404  0.1233930383261422  1.0000
  H   H2        1.0  0.529460143946679  0.3023977093113218  0.8766059549741171  1.0000
  H   H3        1.0  0.5046549701772206  0.915142187843074  0.2333729769739179  1.0000
  H   H4        1.0  0.4953402750933336  0.08485931065768432  0.7666278731708401  1.0000
  H   H5        1.0  0.4075307160864696  0.8889006761963216  0.48341764737441645  1.0000
  H   H6        1.0  0.5924647561131807  0.11109966515292062  0.516582375914936  1.0000
  H   H7        1.0  0.2678105524948862  0.6604295025385556  0.613766466449448  1.0000
  H   H8        1.0  0.7321860791582182  0.33957200001977844  0.38623404036561476  1.0000
  H   H9        1.0  0.1495631506918258  0.46392054823353135  0.7087587194701612  1.0000
  H   H10       1.0  0.8504332526306799  0.5360821066374655  0.291243544864386  1.0000
  H   H11       1.0  0.02807878441731048  0.21655630058818795  0.8076629110466342  1.0000
  H   H12       1.0  0.9719176189051879  0.7834463542828021  0.1923393532879132  1.0000
  H   H13       1.0  0.029255305785809996  0.02870113404247121  0.6567561360024641  1.0000
  H   H14       1.0  0.9707397111541454  0.9713015167709506  0.34324647166177147  1.0000
  H   H15       1.0  0.14158478124000598  0.10710930181269164  0.4077576641864269  1.0000
  H   H16       1.0  0.858416456411355  0.8928898744210443  0.5922448122490849  1.0000
  H   H17       1.0  0.6825081015543191  0.981716711465161  0.00022686451035979028  1.0000
  H   H18       1.0  0.3174977533073929  0.0182801771548355  0.9997701362330318  1.0000
  H   H19       1.0  0.28850126757485833  0.5983716466754674  0.01339757954672645  1.0000
  H   H20       1.0  0.7114988134260758  0.4016263780268903  0.9866025520349239  1.0000
  H   H21       1.0  0.11012275078133626  0.5019635728107446  0.07608583793662399  1.0000
  H   H22       1.0  0.889876387884641  0.498032099659021  0.9239194979123866  1.0000
  C   C1        1.0  0.4279972594904322  0.6937271813718483  0.23173910220311458  1.0000
  C   C2        1.0  0.5719993721626722  0.3062743211864857  0.7682614046119552  1.0000
  C   C3        1.0  0.4462128620405395  0.8137775518879594  0.29259077003769096  1.0000
  C   C4        1.0  0.55377938493735  0.18622510048803062  0.7074106629577983  1.0000
  C   C5        1.0  0.39044197688365767  0.8003408949648262  0.4315247509749014  1.0000
  C   C6        1.0  0.609553269788414  0.19966060837479208  0.5684751685057917  1.0000
  C   C7        1.0  0.3129919977323538  0.6707014386307791  0.5052337682410126  1.0000
  C   C8        1.0  0.6870032489397175  0.3293000647088391  0.4947661512396806  1.0000
  C   C9        1.0  0.2967096233946975  0.5555217830482492  0.43709769113737457  1.0000
  C   C10       1.0  0.7032888442945976  0.44447739474805564  0.5629036106293837  1.0000
  C   C11       1.0  0.2150707767229675  0.4136685452457202  0.5055998991131716  1.0000
  C   C12       1.0  0.7849288504197816  0.5863317937596692  0.4944018861792968  1.0000
  C   C13       1.0  0.14925854213042558  0.38147295097305545  0.6443065633158653  1.0000
  C   C14       1.0  0.8507408594847448  0.6185285500227098  0.3556951181679508  1.0000
  C   C15       1.0  0.0807740632005292  0.24251442852420982  0.6998493959752778  1.0000
  C   C16       1.0  0.919225338414634  0.7574870724715554  0.3001522855085382  1.0000
  C   C17       1.0  0.0790482378330211  0.13918383026879166  0.6162535478821098  1.0000
  C   C18       1.0  0.9209500015256682  0.8608164998401764  0.38374951140412605  1.0000
  C   C19       1.0  0.1418298704993219  0.18081315822529836  0.4790980004841359  1.0000
  C   C20       1.0  0.8581711416244532  0.8191871799988137  0.5209043721427165  1.0000
  C   C21       1.0  0.6688334653211642  0.18763750243682156  0.16297384204317206  1.0000
  C   C22       1.0  0.3311680006607959  0.8123605214842585  0.8370268768728478  1.0000
  C   C23       1.0  0.8429814402309433  0.09864588503501183  0.07343199738819092  1.0000
  C   C24       1.0  0.1570241891031898  0.9013521655753536  0.9265648995465483  1.0000
  C   C25       1.0  0.024008332019597796  0.10848908045370825  0.07184778140058508  1.0000
  C   C26       1.0  0.9759945217464221  0.8915089523638005  0.9281516635216743  1.0000
  C   C27       1.0  0.8215734756114654  0.9914209819089026  0.00036810706439637956  1.0000
  C   C28       1.0  0.17843099006467614  0.0085758929758057  0.9996310983368345  1.0000
  C   C29       1.0  0.05641649312074999  0.23437499208380072  0.1356673442502583  1.0000
  C   C30       1.0  0.9435875229017441  0.765624211620505  0.8643307228695817  1.0000
  N   N1        1.0  0.3568109179078931  0.5673832112634117  0.3026214031710097  1.0000
  N   N2        1.0  0.6431861648003621  0.43261596731417745  0.6973793112613648  1.0000
  N   N3        1.0  0.20757104804867046  0.3145524685924812  0.4254326387504292  1.0000
  N   N4        1.0  0.7924301910041933  0.685446712480115  0.5745689070210104  1.0000
  O   O1        1.0  0.20941501312556451  0.5400923026881871  0.09487684446926177  1.0000
  O   O2        1.0  0.7905846098126403  0.45990802180063645  0.9051277328154157  1.0000
  O   O3        1.0  0.5733752757129482  0.29702740438541764  0.10359942123988464  1.0000
  O   O4        1.0  0.42662526194919076  0.7029683156916279  0.8963971953028033  1.0000
  O   O5        1.0  0.6187118212468264  0.14617727942254533  0.28477438536776123  1.0000
  O   O6        1.0  0.3812975175812952  0.8538231121801375  0.715220343296501  1.0000
  O   O7        1.0  0.9462543221058369  0.36246135099875004  0.13804846046625835  1.0000
  O   O8        1.0  0.05375224535870161  0.6375390373276488  0.8619460241933297  1.0000
  O   O9        1.0  0.19858051903621288  0.2036524702380477  0.1772660435183511  1.0000
  O   O10       1.0  0.8014207214181682  0.7963467156734015  0.8227345715890166  1.0000
