data_image0
_chemical_formula_structural       Zn4H60C48Br4N20Cl4O4
_chemical_formula_sum              "Zn4 H60 C48 Br4 N20 Cl4 O4"
_cell_length_a       7.208976493
_cell_length_b       9.345343773760419
_cell_length_c       22.685
_cell_angle_alpha    90.0
_cell_angle_beta     90.0
_cell_angle_gamma    94.90676075064218

_space_group_name_H-M_alt    "P 1"
_space_group_IT_number       1

loop_
  _space_group_symop_operation_xyz
  'x, y, z'

loop_
  _atom_site_type_symbol
  _atom_site_label
  _atom_site_symmetry_multiplicity
  _atom_site_fract_x
  _atom_site_fract_y
  _atom_site_fract_z
  _atom_site_occupancy
  Zn  Zn1       1.0  0.18388302762186728  0.3160176094148994  0.2586700462860918  1.0000
  Zn  Zn2       1.0  0.3161155383503598  0.6839807738042651  0.7586687238263181  1.0000
  Zn  Zn3       1.0  0.8161201812399883  0.6839829217793323  0.7413299537139083  1.0000
  Zn  Zn4       1.0  0.6838820027872146  0.316018683402433  0.2413308353537573  1.0000
  H   H1        1.0  0.1839837478731496  0.624713845822157  0.0033026228785573  1.0000
  H   H2        1.0  0.31602278379668297  0.3752813154344139  0.5033013004187765  1.0000
  H   H3        1.0  0.8160193419023049  0.3752856113845411  0.9966969363015181  1.0000
  H   H4        1.0  0.6839715066763504  0.624713845822157  0.49669737712144263  1.0000
  H   H5        1.0  0.1271422609047903  0.8433680415094145  0.1683526559400477  1.0000
  H   H6        1.0  0.3728627645191764  0.1566260457596229  0.6683526559400477  1.0000
  H   H7        1.0  0.8728607097842628  0.1566303417097501  0.8316473440599523  1.0000
  H   H8        1.0  0.6271458738941506  0.8433734114470752  0.3316473440599523  1.0000
  H   H9        1.0  0.1590896006844105  0.7415572454105472  0.2550253471456898  1.0000
  H   H10       1.0  0.34091439483929525  0.2584400638210909  0.7550257879656143  1.0000
  H   H11       1.0  0.8409137272638461  0.258444359771218  0.7449733303945365  1.0000
  H   H12       1.0  0.6590874268630955  0.7415604673731409  0.2449737712144611  1.0000
  H   H13       1.0  0.0361155038870677  0.5916135500768576  0.3490491514216458  1.0000
  H   H14       1.0  0.4638830620851664  0.4083848331423141  0.8490478289618721  1.0000
  H   H15       1.0  0.9638879431475972  0.4083891290924413  0.650949966938505  1.0000
  H   H16       1.0  0.536112853720141  0.591612476089324  0.1509512893982787  1.0000
  H   H17       1.0  0.2730923409063593  0.6597945745770062  0.3502336345602828  1.0000
  H   H18       1.0  0.22690646323868446  0.3402059566172255  0.8502327529204337  1.0000
  H   H19       1.0  0.7269135231880315  0.340204882629692  0.6497663654397172  1.0000
  H   H20       1.0  0.7730872736796996  0.6597967225520733  0.1497663654397172  1.0000
  H   H21       1.0  0.3757924957350697  0.4254827146564324  0.3743641172580965  1.0000
  H   H22       1.0  0.1242088445561009  0.5745156685627393  0.8743632356182474  1.0000
  H   H23       1.0  0.6242075815486388  0.5745145945752057  0.6256363235618281  1.0000
  H   H24       1.0  0.8757918281596276  0.4254870106065596  0.1256367643817526  1.0000
  H   H25       1.0  0.18921262922651044  0.4572211942107813  0.4225179634119485  1.0000
  H   H26       1.0  0.3107887110646601  0.5427771890083832  0.9225170817720993  1.0000
  H   H27       1.0  0.8107847928246629  0.5427771890083832  0.5774811549482024  1.0000
  H   H28       1.0  0.6892117234782591  0.4572233421858485  0.0774820365880515  1.0000
  H   H29       1.0  0.15640653170846264  0.2008646662023423  0.43620938946440196  1.0000
  H   H30       1.0  0.34359354050963736  0.7991347910043558  0.9362093894644019  1.0000
  H   H31       1.0  0.8435926347613859  0.799136938979423  0.5637901697156735  1.0000
  H   H32       1.0  0.6564082811927463  0.2008657401898759  0.0637910513555227  1.0000
  H   H33       1.0  0.3260384866857606  0.165977255203309  0.3828750275512434  1.0000
  H   H34       1.0  0.173962972691811  0.8340222020033963  0.8828754683711679  1.0000
  H   H35       1.0  0.6739603225248844  0.8340211280158627  0.6171245316288321  1.0000
  H   H36       1.0  0.8260389680969809  0.165979403178369  0.1171254132686812  1.0000
  H   H37       1.0  0.0796023119768421  0.0150637491279539  0.3259894203217968  1.0000
  H   H38       1.0  0.42039613490899086  0.9849335601036842  0.8259889795018722  1.0000
  H   H39       1.0  0.9203947528151277  0.984931412128617  0.6740119021379769  1.0000
  H   H40       1.0  0.579605805879801  0.0150680450780811  0.1740119021379769  1.0000
  H   H41       1.0  0.9110469970951416  0.0581177613225563  0.3781331276173674  1.0000
  H   H42       1.0  0.5889536806861955  0.9418827698716754  0.8781331276173674  1.0000
  H   H43       1.0  0.08894939505577781  0.941883843859209  0.6218673132025572  1.0000
  H   H44       1.0  0.41104837918899767  0.0581199092976235  0.12186907648225538  1.0000
  H   H45       1.0  0.2560561890007662  0.8948442639322637  0.40442318712806  1.0000
  H   H46       1.0  0.2439409898119962  0.105154119286901  0.904422305488211  1.0000
  H   H47       1.0  0.7439386969042803  0.1051562672619681  0.595580780251268  1.0000
  H   H48       1.0  0.7560552832525148  0.8948464119073306  0.0955781353317136  1.0000
  H   H49       1.0  0.02270994550815431  0.8171090463448323  0.3993907868635631  1.0000
  H   H50       1.0  0.4772887395504811  0.182890410861873  0.8993907868635631  1.0000
  H   H51       1.0  0.9772863275563566  0.1828914848494065  0.6006122988759088  1.0000
  H   H52       1.0  0.5227076526004382  0.8171111943198923  0.1006109764161351  1.0000
  H   H53       1.0  0.0888579377379912  0.9369682029239002  0.4577262508265392  1.0000
  H   H54       1.0  0.4111393601611795  0.063031254282798  0.9577266916464638  1.0000
  H   H55       1.0  0.9111331439478576  0.0630355502329323  0.5422755124531662  1.0000
  H   H56       1.0  0.5888557639166763  0.936971424886501  0.04227463081331  1.0000
  H   H57       1.0  0.9872387339986659  0.3099656896704275  0.3553824112849924  1.0000
  H   H58       1.0  0.5127633309421356  0.6900348415238042  0.8553819704650678  1.0000
  H   H59       1.0  0.01276296861731649  0.6900337675362778  0.6446162662552339  1.0000
  H   H60       1.0  0.4872386098466563  0.3099667636579611  0.1446180295349322  1.0000
  C   C1        1.0  0.17988983035731115  0.6198562002135901  0.1752439938285235  1.0000
  C   C2        1.0  0.3201111526746487  0.3801389610429808  0.6752431121886673  1.0000
  C   C3        1.0  0.8201185698832064  0.380141109018048  0.8247573286312574  1.0000
  C   C4        1.0  0.679886507549334  0.6198615701512509  0.3247560061714765  1.0000
  C   C5        1.0  0.21183470010197422  0.4886117018046717  0.1447828961869106  1.0000
  C   C6        1.0  0.2881681464350692  0.5113877554020263  0.6447811329072053  1.0000
  C   C7        1.0  0.7881740573977609  0.5113888293895599  0.8552171038130894  1.0000
  C   C8        1.0  0.7118306627755757  0.4886106278171383  0.3552166629931648  1.0000
  C   C9        1.0  0.2140291582696605  0.4989198341396275  0.0816297112629485  1.0000
  C   C10       1.0  0.2859770161409685  0.5010721051543428  0.5816288296230994  1.0000
  C   C11       1.0  0.7859779738977937  0.5010785490795371  0.9183702887370515  1.0000
  C   C12       1.0  0.7140185424051284  0.4989219821146946  0.4183702887370515  1.0000
  C   C13       1.0  0.1838914283894226  0.6232682586036873  0.0512466387480686  1.0000
  C   C14       1.0  0.3161120907886712  0.3767247546778165  0.5512453162882949  1.0000
  C   C15       1.0  0.8161144357049679  0.3767311986030109  0.948753802071856  1.0000
  C   C16       1.0  0.6838806934384892  0.6232693325912209  0.4487529204320069  1.0000
  C   C17       1.0  0.1529163999350516  0.7482471137492084  0.082848578355744  1.0000
  C   C18       1.0  0.3470927869673162  0.2517469735198361  0.5828490191756686  1.0000
  C   C19       1.0  0.8470922384782753  0.2517523434574969  0.9171518624641806  1.0000
  C   C20       1.0  0.6529100646353285  0.748250335711802  0.4171509808243314  1.0000
  C   C21       1.0  0.1519404467785677  0.7467263474034738  0.14371611196826  1.0000
  C   C22       1.0  0.34806644215047566  0.2532720358156908  0.6437152303284108  1.0000
  C   C23       1.0  0.848065536402224  0.2532741837907579  0.8562843288516646  1.0000
  C   C24       1.0  0.651937915698042  0.7467263474034738  0.35628388803174  1.0000
  C   C25       1.0  0.1762470836967793  0.6326785373616488  0.2385779149217555  1.0000
  C   C26       1.0  0.32375461385359483  0.3673230678201165  0.7385774741018309  1.0000
  C   C27       1.0  0.8237585422248088  0.3673187718699893  0.7614225258981692  1.0000
  C   C28       1.0  0.6762459397757254  0.6326785373616488  0.2614220850782445  1.0000
  C   C29       1.0  0.17856843958086446  0.5651043158172442  0.3391161560502525  1.0000
  C   C30       1.0  0.3214317517236367  0.4348962153769875  0.8391157152303279  1.0000
  C   C31       1.0  0.8214360373540546  0.434895141389454  0.660883403129823  1.0000
  C   C32       1.0  0.6785647595136766  0.5651064637923113  0.1608842847696721  1.0000
  C   C33       1.0  0.22569936870723242  0.43745767564151083  0.3761631033722708  1.0000
  C   C34       1.0  0.274303477829811  0.5625417815651943  0.8761626625523462  1.0000
  C   C35       1.0  0.774300708576483  0.5625396335901272  0.6238364558078047  1.0000
  C   C36       1.0  0.7256971948859103  0.43746089760410456  0.1238373374476538  1.0000
  C   C37       1.0  0.1766816115982905  0.1785622411067251  0.3888644478730471  1.0000
  C   C38       1.0  0.3233182224470071  0.821435068124913  0.8888640070531154  1.0000
  C   C39       1.0  0.8233173166987556  0.821437216099973  0.6111351113070285  1.0000
  C   C40       1.0  0.6766834801689756  0.1785643890817923  0.1111359929468847  1.0000
  C   C41       1.0  0.05942192035735162  0.0410349156338867  0.3726744544853418  1.0000
  C   C42       1.0  0.4405781518607554  0.9589645415728114  0.8726748953052663  1.0000
  C   C43       1.0  0.940575739866631  0.958965615560345  0.6273259863345828  1.0000
  C   C44       1.0  0.5594224017685648  0.0410370636089539  0.1273264271545074  1.0000
  C   C45       1.0  0.1095621891026965  0.9152586189461119  0.4106559400484926  1.0000
  C   C46       1.0  0.3904351087964741  0.0847408382605934  0.9106559400484926  1.0000
  C   C47       1.0  0.8904328158887509  0.0847429862356535  0.5893462640511373  1.0000
  C   C48       1.0  0.609561283354445  0.9152607669211719  0.08934494159135649  1.0000
  Br  Br1       1.0  0.257358790144238  0.3309610719392424  0.0378051575931266  1.0000
  Br  Br2       1.0  0.2426390613095819  0.6690308673547349  0.5378020718536476  1.0000
  Br  Br3       1.0  0.7426382746477317  0.6690340893173286  0.9621957240467297  1.0000
  Br  Br4       1.0  0.7573451617879671  0.3309610719392424  0.462195283226805  1.0000
  N   N1        1.0  0.1909578298466599  0.5304821797386836  0.276410844170158  1.0000
  N   N2        1.0  0.30904465943117293  0.46951405550542086  0.7764090808904526  1.0000
  N   N3        1.0  0.809049778666406  0.4695204994306152  0.7235878333700683  1.0000
  N   N4        1.0  0.6909532389656121  0.530488623663878  0.2235895966497665  1.0000
  N   N5        1.0  0.1294688215404918  0.3031437208652932  0.35373947542429107  1.0000
  N   N6        1.0  0.3705325187506717  0.6968546623538714  0.853739475424291  1.0000
  N   N7        1.0  0.8705313748296177  0.6968546623538714  0.6462600837557844  1.0000
  N   N8        1.0  0.6294680348786484  0.3031469428278939  0.1462614062155581  1.0000
  N   N9        1.0  0.423716162165583  0.2065428382855785  0.2616499889794994  1.0000
  N   N10       1.0  0.076287041630664  0.7934598408837132  0.7616486665197257  1.0000
  N   N11       1.0  0.5762839151181325  0.7934544709460525  0.7383491293806514  1.0000
  N   N12       1.0  0.9237137501714585  0.2065439122731121  0.2383508926603497  1.0000
  N   N13       1.0  0.4134020105816987  0.0775698235074671  0.2694679303504515  1.0000
  N   N14       1.0  0.0866042057062941  0.9224350036368988  0.7694679303504515  1.0000
  N   N15       1.0  0.5866005256391063  0.922437151611966  0.730531628829624  1.0000
  N   N16       1.0  0.9134007475742436  0.0775687495199335  0.2305325104694731  1.0000
  N   N17       1.0  0.4042956333480987  0.95409830406399  0.2764368525457357  1.0000
  N   N18       1.0  0.0957143871590844  0.0459033011177752  0.7764368525457357  1.0000
  N   N19       1.0  0.5957096353142788  0.0458957832050473  0.7235649107339625  1.0000
  N   N20       1.0  0.9042934595267839  0.9541015260265837  0.223564469914038  1.0000
  Cl  Cl1       1.0  0.12157621956283292  0.905249055145127  0.0448525457350684  1.0000
  Cl  Cl2       1.0  0.3784259124557964  0.0947439581363767  0.5448521049151438  1.0000
  Cl  Cl3       1.0  0.8784239768072837  0.0947493280740375  0.955146131805158  1.0000
  Cl  Cl4       1.0  0.6215712714225817  0.9052522771077278  0.4551470134450071  1.0000
  O   O1        1.0  0.24137904535380267  0.3690575576847692  0.1708595988538661  1.0000
  O   O2        1.0  0.25861765711335494  0.6309365295842682  0.6708591580339416  1.0000
  O   O3        1.0  0.7586270569133975  0.6309440474969961  0.8291404011461339  1.0000
  O   O4        1.0  0.7413783777783537  0.3690618536349035  0.3291399603262093  1.0000
