data_image0
_chemical_formula_structural       Zn2H28C68N4O32
_chemical_formula_sum              "Zn2 H28 C68 N4 O32"
_cell_length_a       14.736753690471645
_cell_length_b       16.120912391804026
_cell_length_c       28.087670944601914
_cell_angle_alpha    89.49340467177373
_cell_angle_beta     90.03918896435445
_cell_angle_gamma    89.43902237551687

_space_group_name_H-M_alt    "P 1"
_space_group_IT_number       1

loop_
  _space_group_symop_operation_xyz
  'x, y, z'

loop_
  _atom_site_type_symbol
  _atom_site_label
  _atom_site_symmetry_multiplicity
  _atom_site_fract_x
  _atom_site_fract_y
  _atom_site_fract_z
  _atom_site_occupancy
  Zn  Zn1       1.0  0.40583853649979323  0.5000528894213759  0.5000571588801392  1.0000
  Zn  Zn2       1.0  0.5965432601040278  0.49749386746778873  0.5002280213648476  1.0000
  H   H1        1.0  0.6444164012185781  0.047006950874781205  0.5322374927148344  1.0000
  H   H2        1.0  0.5231392247166795  0.29071332308694775  0.8780102691391035  1.0000
  H   H3        1.0  0.391682007673019  0.6843387232836025  0.0346547770648442  1.0000
  H   H4        1.0  0.538903375071179  0.2901688941033529  0.9657804100079159  1.0000
  H   H5        1.0  0.6229248424047854  0.9481690140417813  0.4491749440224311  1.0000
  H   H6        1.0  0.37719338849243655  0.04996261092965432  0.5506541274758305  1.0000
  H   H7        1.0  0.6895114144874911  0.5821928775408838  0.6735547983922956  1.0000
  H   H8        1.0  0.6961804162871345  0.5639895956076586  0.3271425483624171  1.0000
  H   H9        1.0  0.4673388683060722  0.14457129115187684  0.36181102395349996  1.0000
  H   H10       1.0  0.5286998491495112  0.8542900538744934  0.6385609583872878  1.0000
  H   H11       1.0  0.9815574012700454  0.5682086428663241  0.391728971158237  1.0000
  H   H12       1.0  0.35570852715768103  0.9512662931873241  0.4676545371223639  1.0000
  H   H13       1.0  0.024946576867698408  0.4259967312136156  0.6073242603362345  1.0000
  H   H14       1.0  0.023326618408610503  0.3652071872520823  0.41540375755525355  1.0000
  H   H15       1.0  0.980533360485538  0.63565352922047  0.5834619402817722  1.0000
  H   H16       1.0  0.7588254732975417  0.6097500171572039  0.7540468207877353  1.0000
  H   H17       1.0  0.7730573758896212  0.5753009943952422  0.24721469792248027  1.0000
  H   H18       1.0  0.27214827900414923  0.3884681388492768  0.20823704292696726  1.0000
  H   H19       1.0  0.250106954798504  0.4439152548507297  0.7930335782619408  1.0000
  H   H20       1.0  0.44954902171434  0.7639952930997185  0.9461089948340202  1.0000
  H   H21       1.0  0.6383614272765143  0.2585124627064489  0.0543393960912795  1.0000
  H   H22       1.0  0.06253509578857572  0.6395061559321322  0.4835800056882035  1.0000
  H   H23       1.0  0.9397847901284423  0.3603109963326859  0.5161718907108579  1.0000
  H   H24       1.0  0.4583194238031895  0.703009658916891  0.8773757570752494  1.0000
  H   H25       1.0  0.6045832590113348  0.311997641492944  0.1230591840232265  1.0000
  H   H26       1.0  0.36312902132447533  0.45513346984483877  0.35114006202698517  1.0000
  H   H27       1.0  0.36386296838544047  0.45810772494000673  0.6492608482157889  1.0000
  H   H28       1.0  0.3785824364543516  0.6749656380555892  0.1223666655991238  1.0000
  C   C1        1.0  0.49939889408124577  0.6603915226396709  0.4990088336726188  1.0000
  C   C2        1.0  0.4494184606980128  0.5589564242309351  0.12718660521144187  1.0000
  C   C3        1.0  0.49959701537638085  0.5020620854349362  0.6466283955988599  1.0000
  C   C4        1.0  0.4982938985680009  0.5004789247926666  0.3536504406242855  1.0000
  C   C5        1.0  0.4604410335725788  0.566806501759601  0.026306052644052592  1.0000
  C   C6        1.0  0.5148630082208429  0.42130142206398374  0.9741073743365334  1.0000
  C   C7        1.0  0.5265498694964139  0.42332676277891335  0.0256942997074603  1.0000
  C   C8        1.0  0.47114072986359196  0.5716282537708183  0.9747214696464894  1.0000
  C   C9        1.0  0.49274868253233717  0.493988846565877  0.05100284131116689  1.0000
  C   C10       1.0  0.4917063801556623  0.49692980326690883  0.9494034051812645  1.0000
  C   C11       1.0  0.41895420131177735  0.6301202203253596  0.05291737991671399  1.0000
  C   C12       1.0  0.5089218140769988  0.33741288652713325  0.5011263776105253  1.0000
  C   C13       1.0  0.524390526392331  0.34826666704839243  0.9474920213936995  1.0000
  C   C14       1.0  0.4117555566669324  0.6256354914750732  0.1023721477912929  1.0000
  C   C15       1.0  0.5161776169392099  0.34805417004730554  0.8980089703151604  1.0000
  C   C16       1.0  0.49933100679130876  0.4999363435056168  0.5928953179053025  1.0000
  C   C17       1.0  0.4969542554870543  0.500381487810522  0.40741122102824073  1.0000
  C   C18       1.0  0.46207113347944073  0.6456788932398397  0.9476417363479257  1.0000
  C   C19       1.0  0.5689587916008634  0.35953852158668564  0.0528250157480841  1.0000
  C   C20       1.0  0.48867704118858774  0.029001492180441308  0.4546762905761312  1.0000
  C   C21       1.0  0.5116309313254703  0.9691786562566737  0.5451940046313126  1.0000
  C   C22       1.0  0.5687045230544358  0.9711203646112597  0.47219944919945783  1.0000
  C   C23       1.0  0.49006467736677456  0.4966151271333959  0.8984803470489098  1.0000
  C   C24       1.0  0.43148197137762884  0.02706170754323981  0.5276480113556303  1.0000
  C   C25       1.0  0.49967262708117494  0.7500509856493881  0.4980012376796238  1.0000
  C   C26       1.0  0.5053006671188314  0.2478703955182767  0.502059812921253  1.0000
  C   C27       1.0  0.41974679570547124  0.9728055317860228  0.4824972258003156  1.0000
  C   C28       1.0  0.5804741843380656  0.025274477765002214  0.5173776061540849  1.0000
  C   C29       1.0  0.4994999451457431  0.9132104476539242  0.4992508740279219  1.0000
  C   C30       1.0  0.500808556365719  0.08487235565541343  0.5006118756522397  1.0000
  C   C31       1.0  0.4994752104410836  0.8255376738877803  0.49839351030222184  1.0000
  C   C32       1.0  0.5022674736830695  0.17248389299381736  0.5015194161184979  1.0000
  C   C33       1.0  0.0342276399549206  0.5782442360161258  0.49073588847787153  1.0000
  C   C34       1.0  0.4909337829709629  0.49328651220550784  0.1019298092925141  1.0000
  C   C35       1.0  0.9682806464254768  0.42149331343378565  0.5090145291548822  1.0000
  C   C36       1.0  0.971645696606629  0.5275709755379339  0.45642349714993447  1.0000
  C   C37       1.0  0.031017120389073206  0.47207599807617157  0.5433186974863347  1.0000
  C   C38       1.0  0.9714925629716051  0.553835906610779  0.5338282327680587  1.0000
  C   C39       1.0  0.031077438975494007  0.4459081874206421  0.46592325552333586  1.0000
  C   C40       1.0  0.4773044444396247  0.5750238600790214  0.8207489478723103  1.0000
  C   C41       1.0  0.5336534757781594  0.4244877558516508  0.17978519150923936  1.0000
  C   C42       1.0  0.908819325930864  0.5020940157277424  0.4996258235958989  1.0000
  C   C43       1.0  0.093667426262428  0.49773457537662597  0.5000659290252258  1.0000
  C   C44       1.0  0.8130920631195836  0.5034943264677738  0.49943754468736046  1.0000
  C   C45       1.0  0.47695978198324707  0.5721368386264418  0.8732490550470259  1.0000
  C   C46       1.0  0.1893593965170552  0.4957126692205521  0.5003785022991636  1.0000
  C   C47       1.0  0.49922233341684585  0.4209854649073393  0.8207312175045232  1.0000
  C   C48       1.0  0.4455773828353103  0.5577554422839416  0.1795783230434935  1.0000
  C   C49       1.0  0.41420540453321314  0.47655120367148396  0.7201961509960242  1.0000
  C   C50       1.0  0.41711062194640663  0.46627132790251863  0.2802901570971699  1.0000
  C   C51       1.0  0.42196449183660434  0.47717636026218463  0.6703417437299278  1.0000
  C   C52       1.0  0.42186430477708825  0.47306459902308995  0.330066246813395  1.0000
  C   C53       1.0  0.5745486714978512  0.52975561913766  0.673710311026454  1.0000
  C   C54       1.0  0.57473885477782  0.5252163496065094  0.326527404539398  1.0000
  C   C55       1.0  0.5704516039886443  0.5260745483108381  0.7245501913399932  1.0000
  C   C56       1.0  0.5313327212275425  0.4262404511633593  0.1272404880299618  1.0000
  C   C57       1.0  0.5708984513262224  0.5220488005116412  0.2756621777388659  1.0000
  C   C58       1.0  0.4899014900606603  0.49962035864929566  0.7469359314553328  1.0000
  C   C59       1.0  0.49186653286324855  0.49201918223819535  0.2534690183863191  1.0000
  C   C60       1.0  0.47587076032852593  0.05274188677402243  0.40388557743233366  1.0000
  C   C61       1.0  0.5243686572730084  0.9456914420944004  0.5960181260914084  1.0000
  C   C62       1.0  0.6493239100100824  0.547719089990629  0.7545536878325051  1.0000
  C   C63       1.0  0.6467046236179997  0.551543340137947  0.2455449165914416  1.0000
  C   C64       1.0  0.3308068505302302  0.4329305977512307  0.2613024050428976  1.0000
  C   C65       1.0  0.32433797563452066  0.45137925661582323  0.7391412525910539  1.0000
  C   C66       1.0  0.46572599750432186  0.6453337266813012  0.8978239827603574  1.0000
  C   C67       1.0  0.5716309552762128  0.36189597538086826  0.10265438776381329  1.0000
  C   C68       1.0  0.5017442823846993  0.4217908053286906  0.8731691190613233  1.0000
  N   N1        1.0  0.48689183406886377  0.49862769097957504  0.7980093046356416  1.0000
  N   N2        1.0  0.48890733424148175  0.49002334806794334  0.2023994924281922  1.0000
  N   N3        1.0  0.7343941366928277  0.5030971876917576  0.49939695576726706  1.0000
  N   N4        1.0  0.268070158059473  0.4951244071221696  0.5006519962924897  1.0000
  O   O1        1.0  0.4217393996061817  0.6264034038984224  0.5002133394599184  1.0000
  O   O2        1.0  0.5724952029048893  0.36950136122032967  0.2031055171622285  1.0000
  O   O3        1.0  0.4077969986186575  0.6118037500164494  0.2033038100058988  1.0000
  O   O4        1.0  0.5075691410518814  0.3577054435902768  0.79692817077283  1.0000
  O   O5        1.0  0.646952845691473  0.5587364001252201  0.6502589631649585  1.0000
  O   O6        1.0  0.646692313383305  0.5540391083648474  0.3500492522425986  1.0000
  O   O7        1.0  0.46617245162556037  0.0020317370350185003  0.3722046332696677  1.0000
  O   O8        1.0  0.4760583362849857  0.13609489299208383  0.3961469143183152  1.0000
  O   O9        1.0  0.5373773301715518  0.9963555885755329  0.6273753224955171  1.0000
  O   O10       1.0  0.5198600211971538  0.8625629325484215  0.6042192167833988  1.0000
  O   O11       1.0  0.9336782153299695  0.5528878331121804  0.4140393471658257  1.0000
  O   O12       1.0  0.5874149441302806  0.3694837423816893  0.5016317810325575  1.0000
  O   O13       1.0  0.07053282946166921  0.4468095421783788  0.5851980399323438  1.0000
  O   O14       1.0  0.07004122229697168  0.39514876751647443  0.4326614713834402  1.0000
  O   O15       1.0  0.9331026274056242  0.6050134632312169  0.5671730107722013  1.0000
  O   O16       1.0  0.6670906895532128  0.5236200793881096  0.7947620710969261  1.0000
  O   O17       1.0  0.7084121593661976  0.6020516563102376  0.7318036656649767  1.0000
  O   O18       1.0  0.6446470703830515  0.5738796086883796  0.203988681186722  1.0000
  O   O19       1.0  0.7290875295381838  0.5526178227506195  0.2698814062033321  1.0000
  O   O20       1.0  0.2619864897466471  0.4246287286783288  0.2852423513148636  1.0000
  O   O21       1.0  0.33310242710199134  0.40942153063706865  0.2146577517026387  1.0000
  O   O22       1.0  0.26359691514775824  0.42351322085691123  0.7143723129296902  1.0000
  O   O23       1.0  0.5766196029904764  0.6243394831712482  0.4987996028804885  1.0000
  O   O24       1.0  0.31184609856071427  0.46327604077619383  0.7868479460049329  1.0000
  O   O25       1.0  0.4501642310224271  0.7200977656330638  0.9701880777548196  1.0000
  O   O26       1.0  0.6094384500543272  0.2937960688897051  0.030287072078891693  1.0000
  O   O27       1.0  0.4325873782814186  0.3753129854668914  0.49965784306445454  1.0000
  O   O28       1.0  0.421509520544447  0.5014050242193807  0.5732539743629913  1.0000
  O   O29       1.0  0.572520796596045  0.4934405332694  0.4287440890179965  1.0000
  O   O30       1.0  0.575449567939124  0.49540815959952067  0.572011712192335  1.0000
  O   O31       1.0  0.418959254084463  0.50504773810669  0.42663928119584676  1.0000
  O   O32       1.0  0.4701843177300803  0.6401453019596134  0.797555953946727  1.0000
