data_image0
_chemical_formula_structural       Al4H100C92O28
_chemical_formula_sum              "Al4 H100 C92 O28"
_cell_length_a       6.60631066329173
_cell_length_b       24.13020233460353
_cell_length_c       25.4978925034572
_cell_angle_alpha    78.30163276162362
_cell_angle_beta     90.00005250204538
_cell_angle_gamma    90.00071217314272

_space_group_name_H-M_alt    "P 1"
_space_group_IT_number       1

loop_
  _space_group_symop_operation_xyz
  'x, y, z'

loop_
  _atom_site_type_symbol
  _atom_site_label
  _atom_site_symmetry_multiplicity
  _atom_site_fract_x
  _atom_site_fract_y
  _atom_site_fract_z
  _atom_site_occupancy
  Al  Al1       1.0  0.8553093830471994  0.5018992560576622  0.5007059307829208  1.0000
  Al  Al2       1.0  0.3553041005247195  0.4981040222455278  0.4992925572167621  1.0000
  Al  Al3       1.0  0.2651661855968542  0.0033054266600558006  0.0012451970842448999  1.0000
  Al  Al4       1.0  0.7651575628971371  0.9967060461931753  0.9987496975101352  1.0000
  H   H1        1.0  0.38035915524713454  0.8181884688632481  0.8463557720480709  1.0000
  H   H2        1.0  0.8802504632394984  0.18182332703506893  0.15368403731182667  1.0000
  H   H3        1.0  0.7469545909925158  0.8464101586043783  0.8097358511455752  1.0000
  H   H4        1.0  0.2468010920262813  0.1535821812604254  0.1902437379048294  1.0000
  H   H5        1.0  0.7305751644470816  0.9102471093606754  0.875159902097586  1.0000
  H   H6        1.0  0.23054202954769204  0.0897637249631842  0.124802917602814  1.0000
  H   H7        1.0  0.8176509458157072  0.7417424646155056  0.8166923558881012  1.0000
  H   H8        1.0  0.31772387283172077  0.258321554970209  0.183271878697596  1.0000
  H   H9        1.0  0.8349809345411928  0.675822100458923  0.7552628744095885  1.0000
  H   H10       1.0  0.33515004542208976  0.3242338737706022  0.24471015178659877  1.0000
  H   H11       1.0  0.35400285495438066  0.7673830041139665  0.6780855867988294  1.0000
  H   H12       1.0  0.8536831232272419  0.232522409322435  0.3219967130328811  1.0000
  H   H13       1.0  0.41564627157787726  0.693479018065702  0.6497169952627218  1.0000
  H   H14       1.0  0.9156033791756072  0.30649823274504934  0.3502958371888241  1.0000
  H   H15       1.0  0.8082485313879529  0.5805014443992887  0.6271157530902443  1.0000
  H   H16       1.0  0.3082443404252828  0.4194919555328341  0.37289271060929247  1.0000
  H   H17       1.0  0.7912818576330949  0.6480900048077345  0.687122048903504  1.0000
  H   H18       1.0  0.29123895127988664  0.3518900078301214  0.3128979862559831  1.0000
  H   H19       1.0  0.1091797485224006  0.7774848337333039  0.3379797114965513  1.0000
  H   H20       1.0  0.6090590701085006  0.22252928518114598  0.6620183713796025  1.0000
  H   H21       1.0  0.0850903416917959  0.8493337069180384  0.2620635235484059  1.0000
  H   H22       1.0  0.5852351986512617  0.150665010244488  0.7379381055075882  1.0000
  H   H23       1.0  0.7565749002612777  0.7588229650639776  0.19734975847058683  1.0000
  H   H24       1.0  0.25651229835710854  0.24114221922421558  0.8026405542694661  1.0000
  H   H25       1.0  0.7611132934129755  0.8068903880202284  0.2404506618828748  1.0000
  H   H26       1.0  0.26120296011923466  0.19311084315204854  0.7595037104177323  1.0000
  H   H27       1.0  0.7822721393726653  0.7311063618639153  0.31367476098457553  1.0000
  H   H28       1.0  0.2822219675107007  0.26895119929866235  0.6863315303375118  1.0000
  H   H29       1.0  0.7938335010106455  0.6827191020845971  0.2704235679315516  1.0000
  H   H30       1.0  0.29391261502948396  0.31730068674892203  0.7296174578909459  1.0000
  H   H31       1.0  0.09076133672400741  0.7255282668127024  0.1627160203656928  1.0000
  H   H32       1.0  0.5906566279897021  0.2744827347180347  0.837271225288255  1.0000
  H   H33       1.0  0.35773544162133675  0.6856499905378329  0.25523574605163907  1.0000
  H   H34       1.0  0.8578036350113081  0.3143286257453681  0.7447694652740323  1.0000
  H   H35       1.0  0.13372511703001072  0.6532152342435893  0.2383779713895464  1.0000
  H   H36       1.0  0.6338513753078416  0.3467976808022826  0.7616205123107277  1.0000
  H   H37       1.0  0.6319954972152716  0.843900088718499  0.9630928273839672  1.0000
  H   H38       1.0  0.4846708340493606  0.7961171606422183  0.9338439988507332  1.0000
  H   H39       1.0  0.3430329159319498  0.8562739031289868  0.022911938114866397  1.0000
  H   H40       1.0  0.1926756215175942  0.8096096933470135  0.993871468498611  1.0000
  H   H41       1.0  0.4407304943165613  0.729941607362747  0.028130497520670896  1.0000
  H   H42       1.0  0.34116211277773095  0.759537357068517  0.08109120471254981  1.0000
  H   H43       1.0  0.5891041548728423  0.7776078972625342  0.057055426056102504  1.0000
  H   H44       1.0  0.13198594763993296  0.15611596556812662  0.0369273123501586  1.0000
  H   H45       1.0  0.9846346923609913  0.2039046433359673  0.0661638000405347  1.0000
  H   H46       1.0  0.8430055801056466  0.1437142140773986  0.9771177562369643  1.0000
  H   H47       1.0  0.692641322032763  0.19038849620633164  0.006144607819095399  1.0000
  H   H48       1.0  0.9407060184405864  0.2700514046990747  0.9718695712260014  1.0000
  H   H49       1.0  0.8411223969303735  0.24044147824511697  0.9189164093974042  1.0000
  H   H50       1.0  0.08906994136466298  0.22237442419713463  0.9429549613033642  1.0000
  H   H51       1.0  0.7013990577909649  0.6650308097202071  0.5408345272695457  1.0000
  H   H52       1.0  0.5380813649461728  0.7121911463267737  0.5661280529477253  1.0000
  H   H53       1.0  0.4271508107331599  0.6473501963300378  0.4778506381750631  1.0000
  H   H54       1.0  0.2663958317325879  0.6951813814455506  0.5021437716869457  1.0000
  H   H55       1.0  0.5162367918672003  0.7748219676919134  0.46866008919707974  1.0000
  H   H56       1.0  0.4322321767847868  0.7420654188694441  0.4160808890669045  1.0000
  H   H57       1.0  0.6752282914497769  0.7258399161848957  0.4446120148082712  1.0000
  H   H58       1.0  0.2013905729472469  0.33496093213802425  0.4591771176628897  1.0000
  H   H59       1.0  0.03806301544070579  0.28779738436867314  0.43388876143600197  1.0000
  H   H60       1.0  0.9271631506238904  0.35264306501951376  0.5221650613667846  1.0000
  H   H61       1.0  0.7663952542601605  0.3048133699153083  0.4978727060385069  1.0000
  H   H62       1.0  0.016222086248625103  0.2251713145286516  0.5313515280479777  1.0000
  H   H63       1.0  0.9322372258196195  0.2579247304603883  0.5839339982241538  1.0000
  H   H64       1.0  0.17523561349593558  0.2741483795702706  0.5553996126627537  1.0000
  H   H65       1.0  0.32157120692015434  0.7560156811444687  0.17802781267338472  1.0000
  H   H66       1.0  0.8215189609638928  0.24399440634493166  0.8219975499422602  1.0000
  H   H67       1.0  0.597048322068332  0.8857362935210276  0.239076793152762  1.0000
  H   H68       1.0  0.4145013307806238  0.8811596898712039  0.29111346705793295  1.0000
  H   H69       1.0  0.35273134442113735  0.9382999791879386  0.1728462361213872  1.0000
  H   H70       1.0  0.16612764074340453  0.9340892221150054  0.2228340239777182  1.0000
  H   H71       1.0  0.4068720003033163  0.9866402856795417  0.27560268294553225  1.0000
  H   H72       1.0  0.3318500699337362  0.027487348994789315  0.21286074208840228  1.0000
  H   H73       1.0  0.5748027408513038  0.9964152565548545  0.2199332823675917  1.0000
  H   H74       1.0  0.0973784180393338  0.1144179673735692  0.7608789171841223  1.0000
  H   H75       1.0  0.9148425684306076  0.11897167120714872  0.7088426166546284  1.0000
  H   H76       1.0  0.8531699791223986  0.06177127207460129  0.8270951843319594  1.0000
  H   H77       1.0  0.6666395494903201  0.06592527170716522  0.7770915206194147  1.0000
  H   H78       1.0  0.9077465845905621  0.013468077773986033  0.7243332729557533  1.0000
  H   H79       1.0  0.8328679042311363  0.972579550252071  0.7870754477849716  1.0000
  H   H80       1.0  0.07565240723090479  0.003766298892287461  0.7800012810268981  1.0000
  H   H81       1.0  0.3450435250124714  0.7576653004535957  0.3138238475055388  1.0000
  H   H82       1.0  0.8449775273130342  0.24234831692504596  0.6861422097514308  1.0000
  H   H83       1.0  0.16076156338621667  0.9027568689699309  0.7340119984411828  1.0000
  H   H84       1.0  0.28415594821149176  0.8964136478828238  0.6731235186116038  1.0000
  H   H85       1.0  0.4706185227772437  0.9374109250667431  0.7689128736091319  1.0000
  H   H86       1.0  0.6153605429026426  0.9223323775007091  0.7152138207820257  1.0000
  H   H87       1.0  0.42623951226237716  0.9968256936884147  0.6499995025331272  1.0000
  H   H88       1.0  0.5346959711556849  0.026686187149685663  0.7016270789802591  1.0000
  H   H89       1.0  0.27232242408777557  0.011335909064328598  0.7026633464743313  1.0000
  H   H90       1.0  0.6599595682325942  0.09720423950526681  0.2659586412795464  1.0000
  H   H91       1.0  0.7831793791794367  0.10345062090257781  0.3268968887905359  1.0000
  H   H92       1.0  0.9696617239613302  0.0624274767607176  0.2311279140133635  1.0000
  H   H93       1.0  0.11442480876062429  0.07748764942311942  0.28482683483757404  1.0000
  H   H94       1.0  0.9252180876667211  0.0030318980259380884  0.3500453563374109  1.0000
  H   H95       1.0  0.0334954056970886  0.9731477918174818  0.29841040704051375  1.0000
  H   H96       1.0  0.771164494186543  0.988552819700587  0.2973928229881579  1.0000
  H   H97       1.0  0.592651924699787  0.5587017372484127  0.5277141775517933  1.0000
  H   H98       1.0  0.0926396088292591  0.44130028913566827  0.4722838576334852  1.0000
  H   H99       1.0  0.49517737001663426  0.9424478758855129  0.971204482655949  1.0000
  H   H100      1.0  0.9951852949954515  0.057561213713960106  0.028797258682928404  1.0000
  C   C1        1.0  0.5196431243937881  0.0801572475930499  0.9244170121845626  1.0000
  C   C2        1.0  0.0196909983434495  0.9198511235897798  0.07557301673416822  1.0000
  C   C3        1.0  0.6082488513370948  0.41921205823290825  0.5747518280999843  1.0000
  C   C4        1.0  0.1082870500487729  0.5807974139863532  0.42524663826684156  1.0000
  C   C5        1.0  0.611080489411229  0.44304617439014754  0.4321012741229707  1.0000
  C   C6        1.0  0.1110606584159157  0.5569553341874567  0.5678995682699224  1.0000
  C   C7        1.0  0.2285002059356174  0.8739227196442202  0.8892685674642636  1.0000
  C   C8        1.0  0.7284694384667388  0.1260952707252514  0.11074117528159629  1.0000
  C   C9        1.0  0.2370600002197918  0.8382805369451702  0.8524140352001622  1.0000
  C   C10       1.0  0.7369706037333331  0.1617294919801751  0.14760770450073576  1.0000
  C   C11       1.0  0.06586009888393822  0.8281913196771528  0.8233130214046369  1.0000
  C   C12       1.0  0.5657176420579192  0.17180751098879907  0.17669902612364297  1.0000
  C   C13       1.0  0.8811126388718264  0.8536014062917447  0.8324433484939461  1.0000
  C   C14       1.0  0.3809864647732439  0.1464063271911513  0.16753912747628158  1.0000
  C   C15       1.0  0.8725286364628743  0.889778693543171  0.8683042012641876  1.0000
  C   C16       1.0  0.372479233419341  0.11023050080796538  0.13167707608191392  1.0000
  C   C17       1.0  0.0445717956640621  0.9016234241746731  0.8964893104803551  1.0000
  C   C18       1.0  0.5445556258607455  0.0983963833391428  0.1035039718504649  1.0000
  C   C19       1.0  0.9348451733525565  0.7473339556224302  0.7858957332931668  1.0000
  C   C20       1.0  0.4347980705358054  0.2526863144999609  0.21410082773853392  1.0000
  C   C21       1.0  0.9443706852130092  0.7102280430273709  0.7508435252422814  1.0000
  C   C22       1.0  0.4443770189601254  0.2897883742294098  0.24915382492022786  1.0000
  C   C23       1.0  0.09554166131385239  0.7156607719014618  0.7112271959619393  1.0000
  C   C24       1.0  0.5954459405957097  0.28431677970932867  0.2887976047449214  1.0000
  C   C25       1.0  0.2363121121733158  0.7598711011485904  0.7086827094875118  1.0000
  C   C26       1.0  0.7360882314363337  0.24007042667127373  0.2913756529724552  1.0000
  C   C27       1.0  0.22919943447836738  0.7964267659036823  0.7445321351946249  1.0000
  C   C28       1.0  0.7288888361024134  0.20350877217055094  0.255532617082558  1.0000
  C   C29       1.0  0.0773640397871915  0.7907847609750078  0.7842429975448296  1.0000
  C   C30       1.0  0.57716902465544  0.20919962690427243  0.21578423012982031  1.0000
  C   C31       1.0  0.279231013549861  0.6696724613748728  0.6447324181039277  1.0000
  C   C32       1.0  0.7791916250377611  0.33031045707689793  0.35528161319942336  1.0000
  C   C33       1.0  0.2889320998107792  0.6314218955579989  0.6101722027911904  1.0000
  C   C34       1.0  0.7889143907839228  0.36856661158465454  0.38983543767257345  1.0000
  C   C35       1.0  0.118067857500435  0.5977960481206069  0.6043781101575263  1.0000
  C   C36       1.0  0.6180674852593384  0.4021972331418838  0.39562831467192433  1.0000
  C   C37       1.0  0.9415425368227375  0.6051722841542712  0.632900774503966  1.0000
  C   C38       1.0  0.44152574894096835  0.3948181976547218  0.36711090906391064  1.0000
  C   C39       1.0  0.9329207260498437  0.6434183460576508  0.6666080098412196  1.0000
  C   C40       1.0  0.4328837635745231  0.35656731622903237  0.33340846429082655  1.0000
  C   C41       1.0  0.10337786614137909  0.6762315797592677  0.6737650311885018  1.0000
  C   C42       1.0  0.6033219851407522  0.3237501569111956  0.3262521706672247  1.0000
  C   C43       1.0  0.1709518301798951  0.8132519093244497  0.25300243596840494  1.0000
  C   C44       1.0  0.6709868933537777  0.18676972048263707  0.7469892725769826  1.0000
  C   C45       1.0  0.8432934650849473  0.7711648477509245  0.2299050195964512  1.0000
  C   C46       1.0  0.34329450594204036  0.22883539155136381  0.7700786243376427  1.0000
  C   C47       1.0  0.861685680049945  0.7216741836238115  0.27861427396976524  1.0000
  C   C48       1.0  0.3617019532283479  0.27835335660041943  0.7213947264527931  1.0000
  C   C49       1.0  0.10872223373240789  0.6266406131139064  0.3790831875546559  1.0000
  C   C50       1.0  0.6086931298482766  0.3733745940563439  0.6209136967858483  1.0000
  C   C51       1.0  0.055226110588144195  0.7913589553732334  0.2081661335107512  1.0000
  C   C52       1.0  0.5552278888714781  0.20864844226203166  0.7918234973901119  1.0000
  C   C53       1.0  0.18444419214479524  0.7652973713566454  0.30355637277861547  1.0000
  C   C54       1.0  0.6844006229669901  0.23471816149960037  0.6964313073576845  1.0000
  C   C55       1.0  0.0876180332731806  0.7101079063019924  0.29308743999330034  1.0000
  C   C56       1.0  0.5876361280576815  0.2899089787531466  0.7069126533810887  1.0000
  C   C57       1.0  0.19732532333912192  0.6933614849565615  0.24483789491966948  1.0000
  C   C58       1.0  0.6973796136143448  0.3066421199229552  0.7551629707817967  1.0000
  C   C59       1.0  0.17366843080179  0.7407332040130681  0.19439844294675618  1.0000
  C   C60       1.0  0.673645455972384  0.25926975568125243  0.8056048210685843  1.0000
  C   C61       1.0  0.10433463591333239  0.6650485634536663  0.3400782957020994  1.0000
  C   C62       1.0  0.6043239490073588  0.33496759734385506  0.6599274096065387  1.0000
  C   C63       1.0  0.03774660068490479  0.8363932679960654  0.1611912183129149  1.0000
  C   C64       1.0  0.5377529420473265  0.163607833341807  0.8387907704070728  1.0000
  C   C65       1.0  0.0246642822423411  0.8743588835100413  0.1219874821196356  1.0000
  C   C66       1.0  0.5246587742515914  0.1256383826726193  0.8779908825993489  1.0000
  C   C67       1.0  0.5246017150907819  0.0576514724097024  0.06721297008629531  1.0000
  C   C68       1.0  0.0245472655900798  0.9423672530975793  0.9327791021530986  1.0000
  C   C69       1.0  0.4767892734165784  0.8323965818093483  0.9540564771716191  1.0000
  C   C70       1.0  0.3490086990928347  0.8187594589008216  0.004650134507343802  1.0000
  C   C71       1.0  0.4348818827820793  0.7685571821482708  0.0448159059004283  1.0000
  C   C72       1.0  0.9767707021309989  0.16762079772409072  0.04595811802513341  1.0000
  C   C73       1.0  0.8489759503985111  0.18123643152290472  0.9953687672942592  1.0000
  C   C74       1.0  0.9348491555165805  0.23142925793907657  0.9551913524025792  1.0000
  C   C75       1.0  0.541989436055239  0.675013296408011  0.5470814689243682  1.0000
  C   C76       1.0  0.42589023812139715  0.6860395042746036  0.4943900171838891  1.0000
  C   C77       1.0  0.5175245899335437  0.735029863436161  0.4538357859905062  1.0000
  C   C78       1.0  0.04197928125332599  0.3249785481817683  0.45292974681876075  1.0000
  C   C79       1.0  0.9258958373127584  0.3139563454277763  0.5056232867303265  1.0000
  C   C80       1.0  0.017521208593855402  0.26496242241812246  0.5461766294603122  1.0000
  C   C81       1.0  0.43336990744690235  0.8834940341525054  0.24750272297715986  1.0000
  C   C82       1.0  0.3308096356638544  0.9365386070702401  0.21591076527702308  1.0000
  C   C83       1.0  0.41543528568240623  0.989572466576398  0.23197931820386233  1.0000
  C   C84       1.0  0.933692472112334  0.11662364793529184  0.7524557185197621  1.0000
  C   C85       1.0  0.831313849658791  0.0635389415570629  0.7840278687182121  1.0000
  C   C86       1.0  0.9162488000232968  0.010536984979999886  0.7679594490605767  1.0000
  C   C87       1.0  0.3074394958722807  0.8943268695737674  0.7164377671692748  1.0000
  C   C88       1.0  0.4657234225148699  0.9368422347243096  0.7258621713672682  1.0000
  C   C89       1.0  0.4221341125319995  0.9961394548983122  0.69325359304586  1.0000
  C   C90       1.0  0.8066178246534647  0.10555900510707522  0.28358673263468853  1.0000
  C   C91       1.0  0.9647631582439828  0.06299646882784768  0.2741790173168824  1.0000
  C   C92       1.0  0.9210283884617141  0.003711794084438204  0.3067936465921548  1.0000
  O   O1        1.0  0.4357905894433713  0.4562959640544051  0.4467652739846386  1.0000
  O   O2        1.0  0.9357629485628395  0.5436849831423842  0.553251984885584  1.0000
  O   O3        1.0  0.7803648906704623  0.438777355000049  0.5576627206727522  1.0000
  O   O4        1.0  0.2803933937460101  0.5612184871387244  0.4423224989712793  1.0000
  O   O5        1.0  0.7761773090684655  0.4619459684094096  0.4467360960221498  1.0000
  O   O6        1.0  0.2761511570918813  0.5380724980114947  0.5532459999020604  1.0000
  O   O7        1.0  0.935271799674126  0.5650085849413246  0.44469184388992733  1.0000
  O   O8        1.0  0.43522668700885697  0.4350155994293558  0.5553247731282626  1.0000
  O   O9        1.0  0.18502580147797695  0.9636999785426211  0.947291048508653  1.0000
  O   O10       1.0  0.6850647916312979  0.0362864404643588  0.052737007766616294  1.0000
  O   O11       1.0  0.6026180131192262  0.53399569538351  0.5020270935913516  1.0000
  O   O12       1.0  0.10261203176891338  0.46600806106356174  0.4979689456461002  1.0000
  O   O13       1.0  0.34680206358861193  0.0660701492036395  0.9449438443745635  1.0000
  O   O14       1.0  0.8468806388661321  0.9339193959353765  0.0550205208734553  1.0000
  O   O15       1.0  0.5105052589700207  0.9658976501022136  0.9979162509798057  1.0000
  O   O16       1.0  0.010511529641654199  0.034117143741795496  0.0020802132988322003  1.0000
  O   O17       1.0  0.6907988481965645  0.058968974017474786  0.9406920778326082  1.0000
  O   O18       1.0  0.1908367672614872  0.9410726166727343  0.05933017109011729  1.0000
  O   O19       1.0  0.3463463474470743  0.0463669133757705  0.052994712769702794  1.0000
  O   O20       1.0  0.8462918996947195  0.9536729958413873  0.9469686361553897  1.0000
  O   O21       1.0  0.40121076814867246  0.8819628501958265  0.917058107756951  1.0000
  O   O22       1.0  0.9012179555877112  0.11805670768762157  0.08297131253277712  1.0000
  O   O23       1.0  0.46633981474636943  0.6254785276805778  0.5837171912497753  1.0000
  O   O24       1.0  0.9663159058879032  0.37450835376650826  0.4162944834733154  1.0000
  O   O25       1.0  0.36757928166193926  0.8317952205515058  0.2336460717104956  1.0000
  O   O26       1.0  0.8676576284285602  0.1682760120904021  0.7663470582173134  1.0000
  O   O27       1.0  0.3763395303582229  0.8379919470886394  0.7406046279312832  1.0000
  O   O28       1.0  0.8758342130598465  0.161888141530369  0.25948599965632013  1.0000
