data_image0
_chemical_formula_structural       Tl4H8C16N16
_chemical_formula_sum              "Tl4 H8 C16 N16"
_cell_length_a       4.087341901594322
_cell_length_b       12.613161820279696
_cell_length_c       12.931518949714624
_cell_angle_alpha    117.14459431004168
_cell_angle_beta     90.06884952176159
_cell_angle_gamma    99.43634375786327

_space_group_name_H-M_alt    "P 1"
_space_group_IT_number       1

loop_
  _space_group_symop_operation_xyz
  'x, y, z'

loop_
  _atom_site_type_symbol
  _atom_site_label
  _atom_site_symmetry_multiplicity
  _atom_site_fract_x
  _atom_site_fract_y
  _atom_site_fract_z
  _atom_site_occupancy
  Tl  Tl1       1.0  0.41065597275071053  0.8796290455211422  0.5689474096896276  1.0000
  Tl  Tl2       1.0  0.5287323732835603  0.1190562304348433  0.930363708509212  1.0000
  Tl  Tl3       1.0  0.5893395405492825  0.12037008582866089  0.43105213064202264  1.0000
  Tl  Tl4       1.0  0.47126314001643266  0.8809429009149524  0.06963583182243833  1.0000
  H   H1        1.0  0.3526150879595349  0.5251428145961513  0.19545787809619242  1.0000
  H   H2        1.0  0.8248531321800313  0.4744507655852247  0.3044901484854209  1.0000
  H   H3        1.0  0.6473857743639327  0.4748572184728274  0.8045428441446842  1.0000
  H   H4        1.0  0.17514727554567594  0.52554836827057  0.6955093938911076  1.0000
  H   H5        1.0  0.8931568154156934  0.6607350344759766  0.9801502368348736  1.0000
  H   H6        1.0  0.23421466938145846  0.33996587368910275  0.5199360869998273  1.0000
  H   H7        1.0  0.10684160192135292  0.3392650046755818  0.019849714369875898  1.0000
  H   H8        1.0  0.7657861951684525  0.6600341667154483  0.48006386522736494  1.0000
  C   C1        1.0  0.7783092646079554  0.7174375910941252  0.20661284056872375  1.0000
  C   C2        1.0  0.06012029825655671  0.2829895257461814  0.2934353255074882  1.0000
  C   C3        1.0  0.22169604199637402  0.2825615599387987  0.7933851638253059  1.0000
  C   C4        1.0  0.9398801094691578  0.7170096081096062  0.7065642168690333  1.0000
  C   C5        1.0  0.6396757017552516  0.6067098147099799  0.1013332292609022  1.0000
  C   C6        1.0  0.03206789953990353  0.3934246323803947  0.39871939638325665  1.0000
  C   C7        1.0  0.36032714650398395  0.39328929839209087  0.8986686241791162  1.0000
  C   C8        1.0  0.9679329650100073  0.6065754080241561  0.6012805558439354  1.0000
  C   C9        1.0  0.4183982224752186  0.5137057028481209  0.10979299289559917  1.0000
  C   C10       1.0  0.9031527342397184  0.4860457120536097  0.3901813083059551  1.0000
  C   C11       1.0  0.5816066317578004  0.48629255630718404  0.8902030616203974  1.0000
  C   C12       1.0  0.09685057974949986  0.5139543369395057  0.6098178749299876  1.0000
  C   C13       1.0  0.7186475381166061  0.5913267873388082  0.989964019172227  1.0000
  C   C14       1.0  0.12813984673846332  0.4090474213504862  0.5101094891560152  1.0000
  C   C15       1.0  0.28137183184881565  0.4086759961541375  0.010035629736648767  1.0000
  C   C16       1.0  0.8718610178114546  0.5909526190540646  0.4898904630711698  1.0000
  N   N1        1.0  0.7104501878581073  0.7401473479941458  0.3162875168766702  1.0000
  N   N2        1.0  0.9713735489450812  0.2605993998145664  0.1836601723599074  1.0000
  N   N3        1.0  0.28955021764116406  0.25985177852606983  0.6837127955135357  1.0000
  N   N4        1.0  0.02862486839197221  0.739400639336992  0.816339778844849  1.0000
  N   N5        1.0  0.8788976012579964  0.8524426408028775  0.3850407404565602  1.0000
  N   N6        1.0  0.02914542114799451  0.14880848910183184  0.1149280868352349  1.0000
  N   N7        1.0  0.12110081385260682  0.14755739101310186  0.6149599807618813  1.0000
  N   N8        1.0  0.9708505467497519  0.8511915414611624  0.885072633360771  1.0000
  N   N9        1.0  0.04345264615103181  0.8972620029143459  0.3205460228985046  1.0000
  N   N10       1.0  0.14779432161572004  0.10393641209248021  0.17957317619028149  1.0000
  N   N11       1.0  0.9565433217467143  0.10273802764864123  0.6794546972975012  1.0000
  N   N12       1.0  0.8521987444714157  0.8960627180043234  0.8204263631189334  1.0000
  N   N13       1.0  0.9846451269286334  0.8140419780578655  0.20791229487993942  1.0000
  N   N14       1.0  0.17000295094462814  0.18667733062015662  0.2922549562086516  1.0000
  N   N15       1.0  0.015353288181970057  0.1859580537581139  0.7920884263384949  1.0000
  N   N16       1.0  0.8299950095682291  0.8133218019826387  0.7077445851454413  1.0000
