data_image0
_chemical_formula_structural       Ag4H18C12S4Br2O20
_chemical_formula_sum              "Ag4 H18 C12 S4 Br2 O20"
_cell_length_a       7.443755789052137
_cell_length_b       8.674798795730293
_cell_length_c       11.030427405787826
_cell_angle_alpha    102.40761683660257
_cell_angle_beta     104.27846070294831
_cell_angle_gamma    92.08259782191433

_space_group_name_H-M_alt    "P 1"
_space_group_IT_number       1

loop_
  _space_group_symop_operation_xyz
  'x, y, z'

loop_
  _atom_site_type_symbol
  _atom_site_label
  _atom_site_symmetry_multiplicity
  _atom_site_fract_x
  _atom_site_fract_y
  _atom_site_fract_z
  _atom_site_occupancy
  Ag  Ag1       1.0  0.7992929541907899  0.8994625141212892  0.9565384829344767  1.0000
  Ag  Ag2       1.0  0.20071320387636862  0.1005357148338533  0.04346572766655041  1.0000
  Ag  Ag3       1.0  0.5017709347964399  0.20876725525367584  0.7883976415176409  1.0000
  Ag  Ag4       1.0  0.49822721822046384  0.7912334183154143  0.21160381285626795  1.0000
  H   H1        1.0  0.6397092785015062  0.1866281323241523  0.056526542058009  1.0000
  H   H2        1.0  0.36029388761124886  0.813367801118474  0.9434722179838179  1.0000
  H   H3        1.0  0.8214743837484803  0.24678974601761888  0.02640631324538839  1.0000
  H   H4        1.0  0.17852862919459506  0.7532049901063118  0.9735931164346785  1.0000
  H   H5        1.0  0.9487340626140438  0.011759012273010695  0.2214275278329581  1.0000
  H   H6        1.0  0.051272083331951955  0.9882392049012688  0.7785775852707604  1.0000
  H   H7        1.0  0.06579483427637464  0.8650840700112498  0.194096870477111  1.0000
  H   H8        1.0  0.934206744950437  0.13491062731867487  0.8059059330552574  1.0000
  H   H9        1.0  0.19124116086670284  0.3360368018638056  0.8925445072615548  1.0000
  H   H10       1.0  0.8087564521984731  0.6639591531156694  0.10745421064919483  1.0000
  H   H11       1.0  0.3512517971113951  0.3902398568750272  0.01815411967234584  1.0000
  H   H12       1.0  0.6487488927563448  0.6097584760829733  0.9818437312788011  1.0000
  H   H13       1.0  0.3984212002411665  0.8609267751386865  0.48756279414070774  1.0000
  H   H14       1.0  0.6015814390522393  0.13907629164123136  0.5124362244266794  1.0000
  H   H15       1.0  0.11747163846789019  0.2598663967700929  0.32407822034679884  1.0000
  H   H16       1.0  0.8825161500599279  0.7401402829044345  0.6759216065791167  1.0000
  H   H17       1.0  0.3180841311048325  0.5084587462124333  0.7229072695033596  1.0000
  H   H18       1.0  0.6819154313860024  0.4915419425889451  0.2770926160236159  1.0000
  C   C1        1.0  0.3196877348777036  0.6462145168107583  0.582375090879282  1.0000
  C   C2        1.0  0.6803080829427017  0.3537897418115462  0.41762568726839094  1.0000
  C   C3        1.0  0.2866138224713453  0.6485751823926548  0.45115086475575356  1.0000
  C   C4        1.0  0.7133820195913926  0.35142909979136755  0.5488481083865511  1.0000
  C   C5        1.0  0.20824145985831422  0.507401027379295  0.3595334828192522  1.0000
  C   C6        1.0  0.7917503554369675  0.49260445354997984  0.6404659172148615  1.0000
  C   C7        1.0  0.1752206161972438  0.36764461568755286  0.39691763069716063  1.0000
  C   C8        1.0  0.8247711748557051  0.6323608416800112  0.6030835743423213  1.0000
  C   C9        1.0  0.2182417030358081  0.36844951910565266  0.5273508640743716  1.0000
  C   C10       1.0  0.7817541026634345  0.6315547277357891  0.47265081657599256  1.0000
  C   C11       1.0  0.2872525562453205  0.5070301804694777  0.6208525456680578  1.0000
  C   C12       1.0  0.7127443647096572  0.4929716987477306  0.37914800290916895  1.0000
  S   S1        1.0  0.38230391331475044  0.8274030728175958  0.6997369710574761  1.0000
  S   S2        1.0  0.6176943928718329  0.1725987980701902  0.3002638136781855  1.0000
  S   S3        1.0  0.14675437079134923  0.5071729233647488  0.19304089471459218  1.0000
  S   S4        1.0  0.8532478695988388  0.4928266103633803  0.8069556202540799  1.0000
  Br  Br1       1.0  0.18346444820588204  0.17561331205730105  0.5784709643802233  1.0000
  Br  Br2       1.0  0.8165322633790665  0.8243862667694015  0.42152370345198886  1.0000
  O   O1        1.0  0.7085459579343478  0.17175382318968954  0.9889904527535267  1.0000
  O   O2        1.0  0.29145583506797124  0.8282421303632148  0.0110071686271738  1.0000
  O   O3        1.0  0.47342272875209807  0.7894663791677414  0.8229234646865113  1.0000
  O   O4        1.0  0.5265797573716283  0.21053549029348054  0.17707622351910862  1.0000
  O   O5        1.0  0.20658365486100652  0.8982883400121224  0.7009178854873784  1.0000
  O   O6        1.0  0.7934132297304829  0.10171350386250569  0.29908537059790075  1.0000
  O   O7        1.0  0.03595882133187439  0.9666653918845467  0.17198831173293175  1.0000
  O   O8        1.0  0.964047336735284  0.03333283707059558  0.8280158988680957  1.0000
  O   O9        1.0  0.5092007986556197  0.9213483961178851  0.6526245145633782  1.0000
  O   O10       1.0  0.4907951723344651  0.07865705982311509  0.3473755939460618  1.0000
  O   O11       1.0  0.31378241795449213  0.30752337641290234  0.9372006406384376  1.0000
  O   O12       1.0  0.6862168624393162  0.6924749413128097  0.06279877915964965  1.0000
  O   O13       1.0  0.03342113531688538  0.6409989670854229  0.18081841642022314  1.0000
  O   O14       1.0  0.9665806984543934  0.35899597764254304  0.8191654345557356  1.0000
  O   O15       1.0  0.04366926265239359  0.3521159664237458  0.12650176621642836  1.0000
  O   O16       1.0  0.9563348170617586  0.6478763549525083  0.8735001414012449  1.0000
  O   O17       1.0  0.3237830308576052  0.5293775079901977  0.15813455343766963  1.0000
  O   O18       1.0  0.676227012928507  0.47061833668185926  0.8418689974071116  1.0000
  O   O19       1.0  0.32575700736696683  0.7794279681467484  0.4110538876233535  1.0000
  O   O20       1.0  0.6742396193698214  0.2205715282139309  0.5889470977276619  1.0000
