data_image0
_chemical_formula_structural       Cd2H24C16I4N4
_chemical_formula_sum              "Cd2 H24 C16 I4 N4"
_cell_length_a       7.765235042721495
_cell_length_b       9.15197891865392
_cell_length_c       9.152010045159875
_cell_angle_alpha    74.47923765881525
_cell_angle_beta     85.24940229416818
_cell_angle_gamma    85.24928478480822

_space_group_name_H-M_alt    "P 1"
_space_group_IT_number       1

loop_
  _space_group_symop_operation_xyz
  'x, y, z'

loop_
  _atom_site_type_symbol
  _atom_site_label
  _atom_site_symmetry_multiplicity
  _atom_site_fract_x
  _atom_site_fract_y
  _atom_site_fract_z
  _atom_site_occupancy
  Cd  Cd1       1.0  0.24999949303713004  0.9354813631448238  0.06452226108094548  1.0000
  Cd  Cd2       1.0  0.7499992349449298  0.0645192967591299  0.9354767938168961  1.0000
  H   H1        1.0  0.11025978957797378  0.6917492848772964  0.04055785724145977  1.0000
  H   H2        1.0  0.3897350774581837  0.9594452878328211  0.3082576621062571  1.0000
  H   H3        1.0  0.8897405450147314  0.3082468196819974  0.9594412393599897  1.0000
  H   H4        1.0  0.6102621139098545  0.0405587971192602  0.6917427469620065  1.0000
  H   H5        1.0  0.969193658366812  0.5577861308348557  0.1545507014418561  1.0000
  H   H6        1.0  0.530807404154892  0.8454606508428951  0.44222228628088095  1.0000
  H   H7        1.0  0.030809157158550676  0.44221112513945826  0.8454522883746806  1.0000
  H   H8        1.0  0.4691897735706049  0.15454344603392658  0.5577803058106099  1.0000
  H   H9        1.0  0.1733324742034625  0.4942210874026214  0.08419482649321004  1.0000
  H   H10       1.0  0.32666409847088557  0.9158115684277559  0.5057849769622678  1.0000
  H   H11       1.0  0.826669139264524  0.5057750247347316  0.9158063688969945  1.0000
  H   H12       1.0  0.6733332397116666  0.08419024996889138  0.49421713234244896  1.0000
  H   H13       1.0  0.13340507541530391  0.23444276399042954  0.5027944174050348  1.0000
  H   H14       1.0  0.36659872422796963  0.49720553063800577  0.7655658638047741  1.0000
  H   H15       1.0  0.8665908934315422  0.765560195011794  0.49720747177172336  1.0000
  H   H16       1.0  0.6334052438219543  0.5027939815827053  0.23443425002924556  1.0000
  H   H17       1.0  0.20883939552519581  0.2698048907774079  0.3067594850655198  1.0000
  H   H18       1.0  0.2911609669108798  0.6932391119318878  0.7301987220725153  1.0000
  H   H19       1.0  0.7911544560146523  0.7301912534023741  0.6932433072430656  1.0000
  H   H20       1.0  0.7088443841172846  0.3067592477585065  0.26979942886624286  1.0000
  H   H21       1.0  0.9953430636819857  0.3277352621797006  0.35423158441235364  1.0000
  H   H22       1.0  0.5046562663974185  0.6457696031565517  0.6722760460185597  1.0000
  H   H23       1.0  0.004654044046887397  0.67226996499366  0.6457696118051004  1.0000
  H   H24       1.0  0.49534513708069006  0.35422989987040404  0.32772096174956294  1.0000
  C   C1        1.0  0.10575421238496568  0.5846339116818554  0.12979962605940906  1.0000
  C   C2        1.0  0.39424339912969225  0.8702094263827006  0.41537541341192963  1.0000
  C   C3        1.0  0.8942498324828488  0.4153644642799463  0.8702007921370338  1.0000
  C   C4        1.0  0.6057538554136953  0.1297935342352119  0.5846274830419702  1.0000
  C   C5        1.0  0.18840495533061127  0.46473659097907916  0.3978126322842145  1.0000
  C   C6        1.0  0.31160501237557264  0.6021950036631336  0.5352666253946481  1.0000
  C   C7        1.0  0.8115991254274841  0.5352606844980413  0.6021946393443045  1.0000
  C   C8        1.0  0.6883987183994049  0.3978079232966607  0.46473366686372936  1.0000
  C   C9        1.0  0.18339398590336486  0.5925466479275626  0.2709549815431274  1.0000
  C   C10       1.0  0.3166003878437279  0.7290493858649753  0.407456143239621  1.0000
  C   C11       1.0  0.8166011154427507  0.4074505983526038  0.7290419646105306  1.0000
  C   C12       1.0  0.6833960060201959  0.27094785606850985  0.5925407186795795  1.0000
  C   C13       1.0  0.12799245682761295  0.3159505395550609  0.3908259942203571  1.0000
  C   C14       1.0  0.3720110562531786  0.6091737898927858  0.6840522881163977  1.0000
  C   C15       1.0  0.8720050418119879  0.684049000361412  0.6091756322975854  1.0000
  C   C16       1.0  0.6279929390818209  0.39082569847845144  0.31594345967118903  1.0000
  I   I1        1.0  0.08976935661294755  0.9724935118098299  0.7855851110996639  1.0000
  I   I2        1.0  0.4102315710393752  0.21441477572759737  0.027505984804058404  1.0000
  I   I3        1.0  0.9102307407048114  0.027506007488540294  0.21441416392613635  1.0000
  I   I4        1.0  0.5897685262783837  0.7855847435707729  0.9724932902217418  1.0000
  N   N1        1.0  0.2500027606924959  0.7219218603070771  0.2780837084889781  1.0000
  N   N2        1.0  0.7500023189543794  0.27807994393423746  0.7219200784321842  1.0000
  N   N3        1.0  0.2500006307588549  0.471946411372592  0.5280439309143716  1.0000
  N   N4        1.0  0.749996271761304  0.5280439712708827  0.4719471165980736  1.0000
