data_image0
_chemical_formula_structural       Zn2H24C36S4I4N12
_chemical_formula_sum              "Zn2 H24 C36 S4 I4 N12"
_cell_length_a       9.88359492542522
_cell_length_b       10.3468277656628
_cell_length_c       11.693108048485296
_cell_angle_alpha    93.20784844002249
_cell_angle_beta     108.53059798809963
_cell_angle_gamma    99.53944699597255

_space_group_name_H-M_alt    "P 1"
_space_group_IT_number       1

loop_
  _space_group_symop_operation_xyz
  'x, y, z'

loop_
  _atom_site_type_symbol
  _atom_site_label
  _atom_site_symmetry_multiplicity
  _atom_site_fract_x
  _atom_site_fract_y
  _atom_site_fract_z
  _atom_site_occupancy
  Zn  Zn1       1.0  0.6934478989141795  0.8248488643553813  0.5141185999835044  1.0000
  Zn  Zn2       1.0  0.30655380793682235  0.17515062623059663  0.48588438177269205  1.0000
  H   H1        1.0  0.273025193227376  0.16575365324731453  0.085178926450979  1.0000
  H   H2        1.0  0.7269745857697599  0.8342468192421039  0.9148218763468063  1.0000
  H   H3        1.0  0.2289997827487156  0.3288504741071351  0.9351383166004369  1.0000
  H   H4        1.0  0.771002991466439  0.6711490212475084  0.06486153114988719  1.0000
  H   H5        1.0  0.3183035087934983  0.0055178450872759  0.1820222394569413  1.0000
  H   H6        1.0  0.6816971593303548  0.9944767119545331  0.8179802169263936  1.0000
  H   H7        1.0  0.20266050802390367  0.4872225042134063  0.3777800488801971  1.0000
  H   H8        1.0  0.797338826061484  0.512780927892571  0.6222165063069198  1.0000
  H   H9        1.0  0.2805272004405168  0.3428993659189531  0.24161737948671907  1.0000
  H   H10       1.0  0.7194687520084885  0.657098138762656  0.7583805372423456  1.0000
  H   H11       1.0  0.7635852467438864  0.11702725333287839  0.19069397250121492  1.0000
  H   H12       1.0  0.23641729117591828  0.8829761836152483  0.8093102847577356  1.0000
  H   H13       1.0  0.7028448854003103  0.4417990750199152  0.22404617907301366  1.0000
  H   H14       1.0  0.2971559613093717  0.5582014003453892  0.7759549105367824  1.0000
  H   H15       1.0  0.1261861679071927  0.6788825427310456  0.4241261792730099  1.0000
  H   H16       1.0  0.8738140260582128  0.3211199060151841  0.5758697024470791  1.0000
  H   H17       1.0  0.4053765056405325  0.8762733276283612  0.3528486311418604  1.0000
  H   H18       1.0  0.5946249937263276  0.12372517482921809  0.6471568111531738  1.0000
  H   H19       1.0  0.8336514009791145  0.9834048119155341  0.363792648033474  1.0000
  H   H20       1.0  0.1663492095223233  0.016599604570068  0.6362137062894391  1.0000
  H   H21       1.0  0.5973512548556529  0.5805641400273559  0.3430354154952653  1.0000
  H   H22       1.0  0.402650007170692  0.41943830970200224  0.6569641738547317  1.0000
  H   H23       1.0  0.002954700702964887  0.8079194097711663  0.5332086794267568  1.0000
  H   H24       1.0  0.9970457010078704  0.1920840256838972  0.4667873073679019  1.0000
  C   C1        1.0  0.4911237853501689  0.1622596810895374  0.0771999630297841  1.0000
  C   C2        1.0  0.5088777136683049  0.8377388232608071  0.9228020584473667  1.0000
  C   C3        1.0  0.553950637425295  0.2937373145539937  0.9456058286967703  1.0000
  C   C4        1.0  0.4460485180742637  0.7062601992284883  0.054392093263878345  1.0000
  C   C5        1.0  0.9518531919100612  0.3459878258531787  0.06534745355064335  1.0000
  C   C6        1.0  0.0481429683714723  0.6540106650640781  0.9346514234574671  1.0000
  C   C7        1.0  0.3558381915103438  0.20084288223218746  0.045256905660636344  1.0000
  C   C8        1.0  0.6441603121159076  0.7991566001993035  0.9547443604550309  1.0000
  C   C9        1.0  0.33058178723128157  0.29196180330056615  0.9609913585322972  1.0000
  C   C10       1.0  0.6694194747079648  0.708040646901985  0.03900737561323096  1.0000
  C   C11       1.0  0.5347748623700567  0.07456229999745291  0.17243280425103077  1.0000
  C   C12       1.0  0.4652221583140914  0.9254352047208984  0.827570530516894  1.0000
  C   C13       1.0  0.43380827795042626  0.004017505818254101  0.2181158448225347  1.0000
  C   C14       1.0  0.5661898099236778  0.9959800046151415  0.7818826455305655  1.0000
  C   C15       1.0  0.9861072903209019  0.4690152156367588  0.2431849287253413  1.0000
  C   C16       1.0  0.013889077357674764  0.5309842638820895  0.7568106325394481  1.0000
  C   C17       1.0  0.1281252854118407  0.4461992799083206  0.2877144658249051  1.0000
  C   C18       1.0  0.8718704300450426  0.5538021701523022  0.7122810187770198  1.0000
  C   C19       1.0  0.1716326757152302  0.36614764287597273  0.2113449684085751  1.0000
  C   C20       1.0  0.8283634845663029  0.6338508480412843  0.7886539085995351  1.0000
  C   C21       1.0  0.681289034421887  0.0651691204257716  0.22428627844703883  1.0000
  C   C22       1.0  0.31871009261485017  0.9348333211858415  0.7757170133012892  1.0000
  C   C23       1.0  0.9231522424175225  0.547709230400919  0.3152845328121927  1.0000
  C   C24       1.0  0.07684646860577257  0.45229124063217085  0.6847134175601539  1.0000
  C   C25       1.0  0.772903347251514  0.5208866948354753  0.29299357159030837  1.0000
  C   C26       1.0  0.2270966392297495  0.4791147657823416  0.7070047706686254  1.0000
  C   C27       1.0  0.008983556332893248  0.6515095105030325  0.40442614300784635  1.0000
  C   C28       1.0  0.9910185654863781  0.3484919563397709  0.5955719176706538  1.0000
  C   C29       1.0  0.48108016684587795  0.9310800508466958  0.3140520205982257  1.0000
  C   C30       1.0  0.5189236753431175  0.0689194459642692  0.6859506795775303  1.0000
  C   C31       1.0  0.7202178098328177  0.9909090285305593  0.3204563030660665  1.0000
  C   C32       1.0  0.27978493600661375  0.009095394180022302  0.6795497696764059  1.0000
  C   C33       1.0  0.7138173204237646  0.5981736016219515  0.35793636137720597  1.0000
  C   C34       1.0  0.2861850094022245  0.40182885051011397  0.642064369989285  1.0000
  C   C35       1.0  0.941560128022445  0.7246776443678372  0.46498098075095123  1.0000
  C   C36       1.0  0.05844048169510779  0.2753267763764811  0.5350176767317052  1.0000
  S   S1        1.0  0.8445313451537757  0.2736965522645676  0.9155872280538871  1.0000
  S   S2        1.0  0.15546781043287436  0.7263009610447213  0.0844115491112376  1.0000
  S   S3        1.0  0.6738141690537346  0.3677150202162096  0.8721877953556356  1.0000
  S   S4        1.0  0.32618498670711193  0.6322824921466933  0.12781269221843414  1.0000
  I   I1        1.0  0.4660418155769363  0.6991780790055557  0.549644641561045  1.0000
  I   I2        1.0  0.5339598911869673  0.30082141205362223  0.4503574849906755  1.0000
  I   I3        1.0  0.8921672138037309  0.9838431449958948  0.6847445064066094  1.0000
  I   I4        1.0  0.10783876346197019  0.0161563594596217  0.3152553465752916  1.0000
  N   N1        1.0  0.591510969030324  0.20942356802412826  0.026124153205060455  1.0000
  N   N2        1.0  0.40848883903931466  0.7905719733238143  0.9738772662363573  1.0000
  N   N3        1.0  0.8967082953874836  0.41772174058892375  0.13062539382652713  1.0000
  N   N4        1.0  0.10328807263947935  0.5822777370371596  0.8693735882561526  1.0000
  N   N5        1.0  0.0845283104165588  0.31523620670766667  0.0991760133791786  1.0000
  N   N6        1.0  0.9154663667486672  0.6847603074428292  0.9008232218722441  1.0000
  N   N7        1.0  0.42942030298355854  0.339615195718082  0.9102177768920257  1.0000
  N   N8        1.0  0.5705807805440556  0.6603813352145875  0.08978403443597925  1.0000
  N   N9        1.0  0.6222425075791591  0.9255061253171136  0.3655248731252385  1.0000
  N   N10       1.0  0.37776109814029724  0.07449731403372081  0.6344805261502059  1.0000
  N   N11       1.0  0.7964348565126542  0.69901501504215  0.4419804600549638  1.0000
  N   N12       1.0  0.20356854085169124  0.3009874409121878  0.5580188477145994  1.0000
