data_image0
_chemical_formula_structural       Zn2H34C40I11N13O8
_chemical_formula_sum              "Zn2 H34 C40 I11 N13 O8"
_cell_length_a       14.564780713326416
_cell_length_b       15.929461505103033
_cell_length_c       17.204089937085758
_cell_angle_alpha    88.2940336476161
_cell_angle_beta     83.09732719325153
_cell_angle_gamma    84.5058937524813

_space_group_name_H-M_alt    "P 1"
_space_group_IT_number       1

loop_
  _space_group_symop_operation_xyz
  'x, y, z'

loop_
  _atom_site_type_symbol
  _atom_site_label
  _atom_site_symmetry_multiplicity
  _atom_site_fract_x
  _atom_site_fract_y
  _atom_site_fract_z
  _atom_site_occupancy
  Zn  Zn1       1.0  0.4028473395296785  0.5052535173784349  0.500138159211744  1.0000
  Zn  Zn2       1.0  0.5967695284817367  0.48887881121754606  0.5021662534297633  1.0000
  H   H1        1.0  0.5099802869658278  0.3417903346442016  0.1162750130901742  1.0000
  H   H2        1.0  0.5588604719800188  0.6041902839587718  0.1017065227069267  1.0000
  H   H3        1.0  0.3369367254087834  0.4768023046363367  0.7531628485605921  1.0000
  H   H4        1.0  0.5668663823125825  0.6134833476771958  0.8842773317807584  1.0000
  H   H5        1.0  0.45594139607199935  0.0970265813353137  0.31009886907286704  1.0000
  H   H6        1.0  0.5578480240023753  0.06333414026987327  0.3353877082881525  1.0000
  H   H7        1.0  0.6457737253278778  0.8499833944041341  0.39380440265249217  1.0000
  H   H8        1.0  0.7122637462642345  0.9317857447077029  0.38803742732345375  1.0000
  H   H9        1.0  0.380404957042309  0.144806379683871  0.6235144825967751  1.0000
  H   H10       1.0  0.3393262603653682  0.054701215260713816  0.6548344295870834  1.0000
  H   H11       1.0  0.34729775815298325  0.15560308978701434  0.44988755416708415  1.0000
  H   H12       1.0  0.48796430284175335  0.9400837423225281  0.362480684770027  1.0000
  H   H13       1.0  0.32032797597248935  0.08606112725326649  0.3883049458587422  1.0000
  H   H14       1.0  0.5781046606294424  0.0030926503380400002  0.6320761862649036  1.0000
  H   H15       1.0  0.490471422959196  0.0455614720980577  0.6903612754101758  1.0000
  H   H16       1.0  0.15874312176843827  0.6465327417522814  0.4289830885394892  1.0000
  H   H17       1.0  0.057562312903087304  0.6935527613654598  0.4055568879761822  1.0000
  H   H18       1.0  0.9270742236228529  0.6185492250131259  0.6333148414583007  1.0000
  H   H19       1.0  0.9122925525472355  0.5501625990882955  0.7059820341880682  1.0000
  H   H20       1.0  0.8227934858425242  0.4431436296830568  0.6613242573418034  1.0000
  H   H21       1.0  0.8873759259314157  0.373412206063385  0.6030941816624349  1.0000
  H   H22       1.0  0.024997592312615807  0.3561283981204397  0.6374455432974598  1.0000
  H   H23       1.0  0.6367791007237216  0.06557137954768417  0.4280131648371253  1.0000
  H   H24       1.0  0.1271257790664819  0.3577480487842664  0.581081523262128  1.0000
  H   H25       1.0  0.6291727104543626  0.3988581713575527  0.976732325322388  1.0000
  H   H26       1.0  0.5488859634858088  0.41374023612731725  0.9143952097290223  1.0000
  H   H27       1.0  0.3776609112251493  0.6492475661440903  0.014799013607017714  1.0000
  H   H28       1.0  0.3913354379968084  0.5841741477218533  0.0922586472721818  1.0000
  H   H29       1.0  0.6389955331655912  0.05399229531691666  0.5293583330927731  1.0000
  H   H30       1.0  0.36820720383458655  0.9508342444039356  0.5481183488882735  1.0000
  H   H31       1.0  0.3803753069106649  0.9417195354249088  0.4239061728708791  1.0000
  H   H32       1.0  0.9385639690031199  0.5953271348898567  0.41596382231581697  1.0000
  H   H33       1.0  0.9448594372736779  0.38028074671931456  0.489782778838034  1.0000
  H   H34       1.0  0.9166483120685103  0.441497255954438  0.40698693837762073  1.0000
  C   C1        1.0  0.49169444607169777  0.659093726474012  0.4774370924463085  1.0000
  C   C2        1.0  0.5442032876739233  0.472620117092326  0.2629945555738544  1.0000
  C   C3        1.0  0.4511537822858501  0.9610852317463097  0.4188123196153128  1.0000
  C   C4        1.0  0.47024314280579926  0.5259405510764451  0.6501370321890719  1.0000
  C   C5        1.0  0.6011492370867657  0.9426431382207098  0.471968658303652  1.0000
  C   C6        1.0  0.6015814872169472  0.0378603709539789  0.4813246999762129  1.0000
  C   C7        1.0  0.4970143576370775  0.24499208125324398  0.5131628504635017  1.0000
  C   C8        1.0  0.500987349004248  0.9147042972977812  0.4861181129319192  1.0000
  C   C9        1.0  0.44787013782735835  0.05860438613300539  0.4254347065013349  1.0000
  C   C10       1.0  0.5002858927286128  0.07909253868084677  0.49719409748969656  1.0000
  C   C11       1.0  0.4580325277674434  0.04067075985847879  0.5793380103338279  1.0000
  C   C12       1.0  0.38705498208499733  0.5065770048105234  0.782828234729827  1.0000
  C   C13       1.0  0.4400154659756127  0.9490074830202742  0.56131335636492  1.0000
  C   C14       1.0  0.49971451017187013  0.1693371640424459  0.5048133841019791  1.0000
  C   C15       1.0  0.4995540466513475  0.8247673072767866  0.47879416507722544  1.0000
  C   C16       1.0  0.4968244707780301  0.3355112711201612  0.5169291977203089  1.0000
  C   C17       1.0  0.4954211645486097  0.7495895236828857  0.4724195732557063  1.0000
  C   C18       1.0  0.9401534101183273  0.5981650612387595  0.4795819688391134  1.0000
  C   C19       1.0  0.9525195365821448  0.44115670956156083  0.4594243746511708  1.0000
  C   C20       1.0  0.0559233987846497  0.4527950110203419  0.4371492424574371  1.0000
  C   C21       1.0  0.9069319035040948  0.5139178099487154  0.5148957715499165  1.0000
  C   C22       1.0  0.0426707497089112  0.6032564160934227  0.4900285262556281  1.0000
  C   C23       1.0  0.5492112864223986  0.5468510701235729  0.1366100564572932  1.0000
  C   C24       1.0  0.08500016991602882  0.5092557800042243  0.5055963782492157  1.0000
  C   C25       1.0  0.04282366020389361  0.4684192631551837  0.5872250928929148  1.0000
  C   C26       1.0  0.9328728259039566  0.4938521834185534  0.6014396376469548  1.0000
  C   C27       1.0  0.18481021277954574  0.5075778001810887  0.5002875114834852  1.0000
  C   C28       1.0  0.5383762138596992  0.47621621850614543  0.3509088934394526  1.0000
  C   C29       1.0  0.8078057702815827  0.5109903953113315  0.51637021693476  1.0000
  C   C30       1.0  0.46027306985027394  0.5416645830157734  0.7365226795438602  1.0000
  C   C31       1.0  0.5240736067830128  0.5825289150821146  0.7735539298032563  1.0000
  C   C32       1.0  0.5168421164948854  0.5829492967415247  0.8551327697141318  1.0000
  C   C33       1.0  0.44787804662057346  0.5423071578103558  0.9020854651665928  1.0000
  C   C34       1.0  0.5564029745800314  0.5455589287023699  0.2165415487661022  1.0000
  C   C35       1.0  0.3810649225596947  0.5062892798351015  0.8643153742700849  1.0000
  C   C36       1.0  0.5298973952124584  0.39882796563173867  0.2249647281393123  1.0000
  C   C37       1.0  0.5230073324969879  0.3989327808914709  0.144776955822806  1.0000
  C   C38       1.0  0.5292255769437517  0.4739669027634363  0.1002558300718945  1.0000
  C   C39       1.0  0.4534358711377566  0.5368601580776298  0.9877167793333683  1.0000
  C   C40       1.0  0.5154079698321326  0.47777122280543693  0.01659880985086912  1.0000
  I   I1        1.0  0.6302121617785236  0.6477137668561779  0.7114688149552322  1.0000
  I   I2        1.0  0.0655340799962829  0.7010937280060787  0.5892614376990225  1.0000
  I   I3        1.0  0.27435088514651806  0.44397138312023526  0.9285118689594114  1.0000
  I   I4        1.0  0.6896107315731259  0.8752466789672582  0.5731540160049278  1.0000
  I   I5        1.0  0.434128694153543  0.866871691873065  0.6647013985450485  1.0000
  I   I6        1.0  0.5833701056736588  0.6593181021587711  0.26641842296778145  1.0000
  I   I7        1.0  0.0736144760835913  0.5006306231255593  0.3140326705092491  1.0000
  I   I8        1.0  0.1417091993212338  0.3314140496531691  0.4210463886446334  1.0000
  I   I9        1.0  0.5164182956151109  0.2842681498706057  0.28992687333730055  1.0000
  I   I10       1.0  0.11373456034399247  0.5074757149513829  0.6922693534708131  1.0000
  I   I11       1.0  0.841530416872509  0.7102990133281679  0.5043330225172226  1.0000
  N   N1        1.0  0.2646585828687194  0.5092403588441526  0.4919030709401895  1.0000
  N   N2        1.0  0.8890575299758724  0.42267508227166656  0.6391664431404607  1.0000
  N   N3        1.0  0.0588066453960323  0.3800545135858257  0.5873408168741391  1.0000
  N   N4        1.0  0.5600406610779558  0.4095305373871199  0.9717321736787382  1.0000
  N   N5        1.0  0.38538324222544423  0.5882155810408561  0.0339106279699095  1.0000
  N   N6        1.0  0.731555789903652  0.49676712033505765  0.51497904853818  1.0000
  N   N7        1.0  0.4967312524666739  0.09775929964494168  0.3544043552846645  1.0000
  N   N8        1.0  0.6473015661975765  0.9131274700827774  0.4014238066870917  1.0000
  N   N9        1.0  0.36940646583075687  0.08582712710578727  0.6069822606145934  1.0000
  N   N10       1.0  0.35169894440588934  0.09290920919384858  0.4374679569024096  1.0000
  N   N11       1.0  0.5247765681722711  0.05030913849380878  0.6353125618183101  1.0000
  N   N12       1.0  0.0909016261892859  0.6389808326271762  0.4244004321846333  1.0000
  N   N13       1.0  0.8976934867788559  0.5640628912683638  0.6500911159555899  1.0000
  O   O1        1.0  0.4129318334897789  0.6318731607502952  0.47507539820576744  1.0000
  O   O2        1.0  0.5684139450809838  0.6166722857665333  0.48565432530649116  1.0000
  O   O3        1.0  0.39672493561785416  0.5323877661427616  0.6165696992362584  1.0000
  O   O4        1.0  0.5521413495038205  0.5039182693741039  0.6189541599974858  1.0000
  O   O5        1.0  0.4175821773170156  0.377857211747603  0.523346878425457  1.0000
  O   O6        1.0  0.5760866325399194  0.3638921021360203  0.51224311726736  1.0000
  O   O7        1.0  0.45596468710554927  0.48175381421988556  0.3855232229733048  1.0000
  O   O8        1.0  0.6130607005166196  0.47540904189548167  0.3818885223690884  1.0000
