data_image0
_chemical_formula_structural       Zn4H39C54N11O20
_chemical_formula_sum              "Zn4 H39 C54 N11 O20"
_cell_length_a       9.741299470769567
_cell_length_b       11.071613981736967
_cell_length_c       22.28547776980448
_cell_angle_alpha    89.72166577676934
_cell_angle_beta     88.93807792255518
_cell_angle_gamma    89.66129633213728

_space_group_name_H-M_alt    "P 1"
_space_group_IT_number       1

loop_
  _space_group_symop_operation_xyz
  'x, y, z'

loop_
  _atom_site_type_symbol
  _atom_site_label
  _atom_site_symmetry_multiplicity
  _atom_site_fract_x
  _atom_site_fract_y
  _atom_site_fract_z
  _atom_site_occupancy
  Zn  Zn1       1.0  0.6445762039475085  0.5034579573567939  0.49589263158579655  1.0000
  Zn  Zn2       1.0  0.35861959563935397  0.5001787531645617  0.5009617605176828  1.0000
  Zn  Zn3       1.0  0.3514176728053614  0.5110382868318767  0.9949315477039917  1.0000
  Zn  Zn4       1.0  0.6384465915012428  0.5052284730402475  0.996787297427339  1.0000
  H   H1        1.0  0.143647345412937  0.3680467421845534  0.4323385646127703  1.0000
  H   H2        1.0  0.10728707690537932  0.6118263761540063  0.6311711987949876  1.0000
  H   H3        1.0  0.1271728243839831  0.7342938257228723  0.5789879873110378  1.0000
  H   H4        1.0  0.8688059019897736  0.7447680179709124  0.5684281518450547  1.0000
  H   H5        1.0  0.8493084270953658  0.6240814095259496  0.6212449671139736  1.0000
  H   H6        1.0  0.7137226216178761  0.8786258397385465  0.49873318240831566  1.0000
  H   H7        1.0  0.1729549022552561  0.9003399859349344  0.45716636813371275  1.0000
  H   H8        1.0  0.16907921374929205  0.9064044453405344  0.5372765407736961  1.0000
  H   H9        1.0  0.18370474897783143  0.13183069353211607  0.533360033750938  1.0000
  H   H10       1.0  0.19089502917113782  0.12705423684314346  0.45329106324373913  1.0000
  H   H11       1.0  0.6868886937279797  0.3378564629962142  0.8601614833287811  1.0000
  H   H12       1.0  0.69075634034008  0.3276591390206248  0.6366607129432396  1.0000
  H   H13       1.0  0.34524584328308805  0.6207202876050104  0.6894108026447583  1.0000
  H   H14       1.0  0.341250945616224  0.6247286762660521  0.8016340338506467  1.0000
  H   H15       1.0  0.27704664223634984  0.49609535598542454  0.1913174360650629  1.0000
  H   H16       1.0  0.8234941851956351  0.42087533800292215  0.1892448065437691  1.0000
  H   H17       1.0  0.8141550788966967  0.581921803595769  0.189950803258057  1.0000
  H   H18       1.0  0.8095451505645955  0.5772921888743596  0.3033898590041275  1.0000
  H   H19       1.0  0.818264749428799  0.41657599361072084  0.3013685603174281  1.0000
  H   H20       1.0  0.856423663263243  0.38424324049468345  0.0681057777492029  1.0000
  H   H21       1.0  0.8799014736436492  0.6061955512071011  0.861374735040279  1.0000
  H   H22       1.0  0.8658909734288116  0.7334818904887965  0.9102876733697937  1.0000
  H   H23       1.0  0.1253898087570917  0.74021012790125  0.916357972803496  1.0000
  H   H24       1.0  0.13845443654106762  0.6122010108038294  0.8678845571029254  1.0000
  H   H25       1.0  0.2794807537035738  0.8882212178320541  0.9906975338386914  1.0000
  H   H26       1.0  0.8160166831130625  0.9000626263564584  0.0403925576348172  1.0000
  H   H27       1.0  0.8267840176366335  0.905440354558138  0.9603217100953926  1.0000
  H   H28       1.0  0.815205102776872  0.1311805916690645  0.962553304443773  1.0000
  H   H29       1.0  0.8005955372860569  0.12760416661224377  0.0424679478399952  1.0000
  H   H30       1.0  0.7715991311082817  0.3776828458643848  0.40559250151709136  1.0000
  H   H31       1.0  0.9280339140952591  0.30341310760839235  0.3897041690808577  1.0000
  H   H32       1.0  0.7574170937791892  0.2002532565777244  0.5090648639546629  1.0000
  H   H33       1.0  0.8336769089804505  0.060548531222039494  0.5171748963909905  1.0000
  H   H34       1.0  0.2440611812326168  0.518657323430162  0.3516257451007688  1.0000
  H   H35       1.0  0.16101068149993128  0.5222010746814191  0.2833850336825989  1.0000
  H   H36       1.0  0.22961618628048802  0.39437442835228603  0.09134677659653079  1.0000
  H   H37       1.0  0.0737547891266672  0.322579365506634  0.1107932244953815  1.0000
  H   H38       1.0  0.2384109827798468  0.2120403254095038  0.9803455840223944  1.0000
  H   H39       1.0  0.15942321767189327  0.07209618675566529  0.9735153115520419  1.0000
  C   C1        1.0  0.4921939614849081  0.7359012840220132  0.4981785800176509  1.0000
  C   C2        1.0  0.5084851528099464  0.4964297294990913  0.6161396604872849  1.0000
  C   C3        1.0  0.5056874052740455  0.2651626214155201  0.49800180714010617  1.0000
  C   C4        1.0  0.49674809166584316  0.4946670018104624  0.3786182454497649  1.0000
  C   C5        1.0  0.49942654269883496  0.7420190932964844  0.9963418343502041  1.0000
  C   C6        1.0  0.49718796497680284  0.5066086385687285  0.877712250032438  1.0000
  C   C7        1.0  0.49133258702471505  0.2710780936098871  0.9936954189813746  1.0000
  C   C8        1.0  0.49845258623791716  0.4966888151666211  0.1151286682918169  1.0000
  C   C9        1.0  0.06884177286335812  0.5612774917132767  0.5372978026258792  1.0000
  C   C10       1.0  0.9355524361278358  0.42909952704946613  0.4565098364477222  1.0000
  C   C11       1.0  0.9276233702131763  0.565768972065058  0.5322853681330527  1.0000
  C   C12       1.0  0.0814624341670438  0.4254575357122193  0.4619105873269759  1.0000
  C   C13       1.0  0.07211948396691531  0.6500159785312789  0.5885216555566828  1.0000
  C   C14       1.0  0.9095647441556877  0.6565296905259784  0.5823973919585583  1.0000
  C   C15       1.0  0.4941529274855512  0.8706626088809769  0.49820481803573086  1.0000
  C   C16       1.0  0.5069055376393762  0.13178093603200838  0.49705255722336256  1.0000
  C   C17       1.0  0.3752993203254534  0.9423218256818089  0.4971071327898286  1.0000
  C   C18       1.0  0.6294685653169553  0.05944093764023958  0.498991686965546  1.0000
  C   C19       1.0  0.3837538456314817  0.0676133585661773  0.4957778628720177  1.0000
  C   C20       1.0  0.6192538948535217  0.9320622246587715  0.49882276224851546  1.0000
  C   C21       1.0  0.21954715306233652  0.9422705624751938  0.4964555830800848  1.0000
  C   C22       1.0  0.22934291542894408  0.0847195604909956  0.49447527144357645  1.0000
  C   C23       1.0  0.5033617500696437  0.49608534201209403  0.8105374322797871  1.0000
  C   C24       1.0  0.5975990799321238  0.41709639055974895  0.7801154236321537  1.0000
  C   C25       1.0  0.41350402361904764  0.5661904366228612  0.7775425088696294  1.0000
  C   C26       1.0  0.687161052210989  0.33796230515005726  0.8113556062826532  1.0000
  C   C27       1.0  0.7724948904497992  0.25948023739189807  0.7808141594192506  1.0000
  C   C28       1.0  0.5077396383495555  0.4907093215031324  0.6834522351581994  1.0000
  C   C29       1.0  0.4157087284143017  0.563886935688444  0.7146247310312717  1.0000
  C   C30       1.0  0.5985590907213805  0.4135670742925797  0.7155795254902626  1.0000
  C   C31       1.0  0.6873097130141731  0.33047341007004855  0.6854965676340754  1.0000
  C   C32       1.0  0.7725296312201878  0.2553912595515158  0.717235899241963  1.0000
  C   C33       1.0  0.4966756390660122  0.4939458163372378  0.1821118545839653  1.0000
  C   C34       1.0  0.4930838077428064  0.49178061490125197  0.3122040144979366  1.0000
  C   C35       1.0  0.6174221047539064  0.4935494868100818  0.21500186416380984  1.0000
  C   C36       1.0  0.3681963441822802  0.4938431316395864  0.27896403173112816  1.0000
  C   C37       1.0  0.6140949675451209  0.4916208521356609  0.2773902996994834  1.0000
  C   C38       1.0  0.37356783014107725  0.49372055541927296  0.2154661523222359  1.0000
  C   C39       1.0  0.7725572404287961  0.49912549828103897  0.21051612543401887  1.0000
  C   C40       1.0  0.7694114253980189  0.4964669367088773  0.2814382689677685  1.0000
  C   C41       1.0  0.9251596870751655  0.5635636953809993  0.9560547366248784  1.0000
  C   C42       1.0  0.06316591743237149  0.4401932137642391  0.0399259109973116  1.0000
  C   C43       1.0  0.06652644649140882  0.567136842499174  0.9594979252001677  1.0000
  C   C44       1.0  0.9171351158677297  0.43676770660771774  0.0358505363296828  1.0000
  C   C45       1.0  0.9190380872606456  0.647206808540659  0.9023610015692823  1.0000
  C   C46       1.0  0.0820287794563015  0.6514449532042476  0.9062101124161399  1.0000
  C   C47       1.0  0.4985575278448238  0.8766496964775142  0.9947126134829176  1.0000
  C   C48       1.0  0.4888451770623022  0.1377621977975707  0.9940338571911838  1.0000
  C   C49       1.0  0.6180789731860017  0.9459014998302068  0.9968721740095673  1.0000
  C   C50       1.0  0.36556916276173723  0.06775765000301699  0.9907057857949011  1.0000
  C   C51       1.0  0.6110960316559328  0.07132656136622018  0.9971362215526084  1.0000
  C   C52       1.0  0.3742738328342199  0.940153505875216  0.9916439490420927  1.0000
  C   C53       1.0  0.7734805095947338  0.9427497271479482  9.690530189489935e-05  1.0000
  C   C54       1.0  0.7653883174122313  0.08544143598048488  0.0009604440803628003  1.0000
  N   N1        1.0  0.14841465028337814  0.49198661553796086  0.5018667413658235  1.0000
  N   N2        1.0  0.8563090651398325  0.5020677059507931  0.49298840389967313  1.0000
  N   N3        1.0  0.8479223139859615  0.4986751353721602  0.9943852120957927  1.0000
  N   N4        1.0  0.1402118827203154  0.5076504651340059  0.00011410708239619995  1.0000
  N   N5        1.0  0.8725676847844285  0.3613701808699189  0.41542784382969694  1.0000
  N   N6        1.0  0.7579028624061125  0.11072283801947688  0.4986803131655008  1.0000
  N   N7        1.0  0.2415065967146717  0.4928452378909397  0.3077646406104008  1.0000
  N   N8        1.0  0.1278756460362658  0.3779596467081703  0.0832221976099774  1.0000
  N   N9        1.0  0.2383442858418192  0.12160037839013428  0.9888250482358955  1.0000
  N   N10       1.0  0.8508013578607176  0.1718932092265817  0.8167029686963543  1.0000
  N   N11       1.0  0.8723462317813073  0.181597783375274  0.683035591201758  1.0000
  O   O1        1.0  0.6070058576858556  0.6815538886800069  0.48947203401874606  1.0000
  O   O2        1.0  0.37662329981460374  0.684655261123133  0.5066778098990312  1.0000
  O   O3        1.0  0.3922025003391241  0.48758048960785766  0.5917809026959445  1.0000
  O   O4        1.0  0.6239306984611376  0.5119340636484538  0.5897699388341522  1.0000
  O   O5        1.0  0.39082495019179214  0.3185726822906716  0.49050370914093105  1.0000
  O   O6        1.0  0.6192931987168676  0.3207736597903549  0.5068117675522856  1.0000
  O   O7        1.0  0.6126821420557177  0.4760041645449817  0.40357738506154556  1.0000
  O   O8        1.0  0.38540090997612714  0.5171221645102122  0.40799753085399704  1.0000
  O   O9        1.0  0.38307026985725656  0.6894829618535424  0.0005351269493515999  1.0000
  O   O10       1.0  0.615880943320441  0.6892181801726877  0.9936513277496813  1.0000
  O   O11       1.0  0.6107939284888034  0.500476049212601  0.9048311318708783  1.0000
  O   O12       1.0  0.3790275208529437  0.5220796805917588  0.9015255472648035  1.0000
  O   O13       1.0  0.6073174279103953  0.3221872706879623  0.9997739559449385  1.0000
  O   O14       1.0  0.3774611519092801  0.328801713258585  0.9869879375322411  1.0000
  O   O15       1.0  0.3839747254938501  0.48713820344780595  0.0882486587876343  1.0000
  O   O16       1.0  0.6148322048441416  0.5090275289216918  0.08928273413415157  1.0000
  O   O17       1.0  0.9069924690660117  0.21005935296904002  0.8622794590443376  1.0000
  O   O18       1.0  0.8505931534223521  0.06542620685283398  0.7999162291000416  1.0000
  O   O19       1.0  0.832499551846631  0.1337620429466924  0.6362876054539726  1.0000
  O   O20       1.0  0.9907279367857172  0.1762487517127695  0.702300421982116  1.0000
