data_image0
_chemical_formula_structural       Zn2H24C30N6O10
_chemical_formula_sum              "Zn2 H24 C30 N6 O10"
_cell_length_a       9.499526805874442
_cell_length_b       9.435620963084894
_cell_length_c       9.67645332605985
_cell_angle_alpha    90.87650357736308
_cell_angle_beta     100.44950782681454
_cell_angle_gamma    112.60339296443647

_space_group_name_H-M_alt    "P 1"
_space_group_IT_number       1

loop_
  _space_group_symop_operation_xyz
  'x, y, z'

loop_
  _atom_site_type_symbol
  _atom_site_label
  _atom_site_symmetry_multiplicity
  _atom_site_fract_x
  _atom_site_fract_y
  _atom_site_fract_z
  _atom_site_occupancy
  Zn  Zn1       1.0  0.846068187119144  0.9996579789200126  0.06178548704606611  1.0000
  Zn  Zn2       1.0  0.15393360818308824  0.00034361865847639897  0.938212825827854  1.0000
  H   H1        1.0  0.35573134897082076  0.6938562774342429  0.8564436159803462  1.0000
  H   H2        1.0  0.6442675345033991  0.30614075225892634  0.14355930413562132  1.0000
  H   H3        1.0  0.4207545604733696  0.553840857891032  0.9319373218421704  1.0000
  H   H4        1.0  0.5792432573863807  0.4461561854174364  0.06806644153498811  1.0000
  H   H5        1.0  0.3400539566347122  0.4376718185908717  0.11945444040371461  1.0000
  H   H6        1.0  0.6599472589435964  0.5623310144140348  0.8805541143458484  1.0000
  H   H7        1.0  0.15330028013978858  0.37583680805488484  0.2822375943354345  1.0000
  H   H8        1.0  0.8466966583783274  0.624166033549635  0.7177681296930485  1.0000
  H   H9        1.0  0.9808049061506667  0.5239955722763768  0.2745279613382507  1.0000
  H   H10       1.0  0.019192484185964552  0.47600838412891744  0.7254726858511447  1.0000
  H   H11       1.0  0.16335650423388873  0.0480364017264634  0.28090229031776903  1.0000
  H   H12       1.0  0.8366416180692442  0.9519640454611961  0.7190932895691091  1.0000
  H   H13       1.0  0.7878040779752951  0.16356601298019063  0.3310300945093019  1.0000
  H   H14       1.0  0.21219512697832246  0.8364344740973381  0.6689718798431699  1.0000
  H   H15       1.0  0.02029171549103381  0.26561470747697774  0.580167243430104  1.0000
  H   H16       1.0  0.9797112903670921  0.7343845797642033  0.4198322988728549  1.0000
  H   H17       1.0  0.32117160324433774  0.10999824127674884  0.5396393219605145  1.0000
  H   H18       1.0  0.6788283288083434  0.8899987212959529  0.4603555171674998  1.0000
  H   H19       1.0  0.2618225863556702  0.20335656380806455  0.6639414189414126  1.0000
  H   H20       1.0  0.7381793465868327  0.7966427141176311  0.3360558647398193  1.0000
  H   H21       1.0  0.48981561177492233  0.2594950043319529  0.3815235221730831  1.0000
  H   H22       1.0  0.5101885973379441  0.7405019496411358  0.6184741476760038  1.0000
  H   H23       1.0  0.3264840916258296  0.48351625104005097  0.6685359635417072  1.0000
  H   H24       1.0  0.6735205814741433  0.5164818559517883  0.3314617992731357  1.0000
  C   C1        1.0  0.5570774955788879  0.7905835026203151  0.024394774148241462  1.0000
  C   C2        1.0  0.442924447098477  0.20941580587975753  0.9756066453768638  1.0000
  C   C3        1.0  0.40255405461423527  0.6586818866521683  0.9556894542881338  1.0000
  C   C4        1.0  0.597444224798899  0.3413163020314586  0.04431336809380327  1.0000
  C   C5        1.0  0.27014598746871604  0.504366108479914  0.1284692614428309  1.0000
  C   C6        1.0  0.7298556896629763  0.4956378699001434  0.8715383523115178  1.0000
  C   C7        1.0  0.1649480566146764  0.46949874551793874  0.2158767580705856  1.0000
  C   C8        1.0  0.8350468761461798  0.5305017654464025  0.7841244534827467  1.0000
  C   C9        1.0  0.07138628085049  0.5538214808997709  0.21227162045767053  1.0000
  C   C10       1.0  0.9286132455825183  0.44618246356212415  0.7877294081312982  1.0000
  C   C11       1.0  0.08628475626692725  0.6742114399696816  0.1277903985859368  1.0000
  C   C12       1.0  0.9137132381307964  0.3257913574451621  0.8722103463374964  1.0000
  C   C13       1.0  0.20390540826323894  0.7163713364889687  0.043232822361638085  1.0000
  C   C14       1.0  0.7960942606774779  0.2836303036073176  0.9567692449565823  1.0000
  C   C15       1.0  0.9738728972165447  0.7511795406237384  0.1257370042064991  1.0000
  C   C16       1.0  0.026125092313748204  0.24882324150391363  0.8742616727949938  1.0000
  C   C17       1.0  0.09008786859782701  0.09093000172496352  0.3273226791767101  1.0000
  C   C18       1.0  0.9099113266209216  0.9090704547781814  0.672675159331888  1.0000
  C   C19       1.0  0.900282215816411  0.15593564305948598  0.35812161900148715  1.0000
  C   C20       1.0  0.09971805231796091  0.8440648227591512  0.6418784781288309  1.0000
  C   C21       1.0  0.012459400049095832  0.20709836644748958  0.4800710703551588  1.0000
  C   C22       1.0  0.987542537760838  0.792900926765391  0.5199282812480063  1.0000
  C   C23       1.0  0.2814370818449845  0.20261132798221845  0.5559236172854582  1.0000
  C   C24       1.0  0.7185643846767037  0.7973867892811272  0.4440725394690545  1.0000
  C   C25       1.0  0.3977225293671865  0.3560667708957085  0.5293745614049215  1.0000
  C   C26       1.0  0.6022800052026868  0.6439313403959377  0.470621786049378  1.0000
  C   C27       1.0  0.4951872163015026  0.3650814309273259  0.43445844401108497  1.0000
  C   C28       1.0  0.5048174592321856  0.6349166837081057  0.5655403527647209  1.0000
  C   C29       1.0  0.4030327104008934  0.4919002370157984  0.5946858973739992  1.0000
  C   C30       1.0  0.5969704282300725  0.508096715285397  0.4053105478143379  1.0000
  N   N1        1.0  0.2872176761687939  0.6211315947374558  0.04482912180449719  1.0000
  N   N2        1.0  0.7127819952056386  0.37887005300242294  0.9551739794746864  1.0000
  N   N3        1.0  0.9500311724310819  0.08314069938211331  0.2642427227817662  1.0000
  N   N4        1.0  0.04996695717319717  0.9168597707363305  0.7357559589880082  1.0000
  N   N5        1.0  0.13103605715264877  0.1639120323929291  0.45872497900527515  1.0000
  N   N6        1.0  0.8689652717287617  0.836088404523217  0.541272206941926  1.0000
  O   O1        1.0  0.6593166016822494  0.8294706233425018  0.9446946263818532  1.0000
  O   O2        1.0  0.3406850170820093  0.170525220129619  0.05530670494579228  1.0000
  O   O3        1.0  0.576714205823045  0.8488811883077433  0.1460779915935646  1.0000
  O   O4        1.0  0.4232872728672207  0.15111696717358575  0.8539233349657919  1.0000
  O   O5        1.0  0.2382544633102556  0.8252235962318154  0.9651638917704943  1.0000
  O   O6        1.0  0.7617447343422087  0.17477686791492894  0.03483498069907396  1.0000
  O   O7        1.0  0.9973150121450872  0.8755879288920881  0.06054275455406346  1.0000
  O   O8        1.0  0.002690780069365003  0.12441828410519662  0.9394583795043657  1.0000
  O   O9        1.0  0.8627648049511194  0.6942830110274657  0.18751051295203064  1.0000
  O   O10       1.0  0.13723103631419786  0.3057197448256162  0.8124826128450521  1.0000
