data_image0
_chemical_formula_structural       Tm2Co2H32C32N20O12
_chemical_formula_sum              "Tm2 Co2 H32 C32 N20 O12"
_cell_length_a       10.021537085031868
_cell_length_b       10.522022964045705
_cell_length_c       12.41845419911271
_cell_angle_alpha    73.83834211647103
_cell_angle_beta     76.20520498035886
_cell_angle_gamma    71.2959213149371

_space_group_name_H-M_alt    "P 1"
_space_group_IT_number       1

loop_
  _space_group_symop_operation_xyz
  'x, y, z'

loop_
  _atom_site_type_symbol
  _atom_site_label
  _atom_site_symmetry_multiplicity
  _atom_site_fract_x
  _atom_site_fract_y
  _atom_site_fract_z
  _atom_site_occupancy
  Tm  Tm1       1.0  0.4013764482165953  0.31240675497262055  0.29150290651803346  1.0000
  Tm  Tm2       1.0  0.5986229001823916  0.6875941885859118  0.7084945858168723  1.0000
  Co  Co1       1.0  0.3423809738532952  0.2938261897683105  0.737258354504732  1.0000
  Co  Co2       1.0  0.6576291318229295  0.7061594661847082  0.262742453774905  1.0000
  H   H1        1.0  0.2871456652689588  0.7535155280271438  0.543773228556752  1.0000
  H   H2        1.0  0.7128479007914378  0.2464874355820967  0.45622887982909793  1.0000
  H   H3        1.0  0.33249896032676685  0.9027812619073429  0.021996296520903527  1.0000
  H   H4        1.0  0.6674998082742575  0.0972248990116853  0.9780040628641514  1.0000
  H   H5        1.0  0.12603697989707288  0.5139884985071106  0.09617860487837501  1.0000
  H   H6        1.0  0.8739635863793465  0.4860186591854472  0.9038163444664207  1.0000
  H   H7        1.0  0.4781202703394031  0.6530173702555617  0.06708075982999159  1.0000
  H   H8        1.0  0.5218761445367832  0.34698978132843916  0.9329197985628638  1.0000
  H   H9        1.0  0.012781992422006236  0.6812854154794438  0.2963196082445305  1.0000
  H   H10       1.0  0.9872178193203424  0.318720741217021  0.7036789466251747  1.0000
  H   H11       1.0  0.36373202210061345  0.5426918777728105  0.46027428438986817  1.0000
  H   H12       1.0  0.636264567558449  0.45731118816275557  0.5397304555165903  1.0000
  H   H13       1.0  0.9671189528108926  0.7575991744970737  0.045317576793834684  1.0000
  H   H14       1.0  0.0328805597416775  0.24240799891744302  0.9546799815729727  1.0000
  H   H15       1.0  0.9208936478894499  0.8983701966521026  0.37103173657990834  1.0000
  H   H16       1.0  0.07910225073072749  0.1016317992909705  0.6289717818114652  1.0000
  H   H17       1.0  0.4183331486550799  0.08580012531081851  0.18604487853266244  1.0000
  H   H18       1.0  0.5816701632420517  0.9141978244222886  0.8139550168048898  1.0000
  H   H19       1.0  0.36497079655811143  0.22628591351406874  0.10039618611918398  1.0000
  H   H20       1.0  0.6350370374232953  0.7737141520369377  0.8995999341958267  1.0000
  H   H21       1.0  0.7113430577975919  0.2639539269272931  0.24644634367286497  1.0000
  H   H22       1.0  0.28865911829890223  0.7360409235997879  0.7535561276707482  1.0000
  H   H23       1.0  0.6975328585473193  0.11247875342272813  0.25465832192738697  1.0000
  H   H24       1.0  0.3024652402266453  0.8875160104999865  0.7453441269176223  1.0000
  H   H25       1.0  0.39612989624234274  0.010615108017404402  0.3677694218809933  1.0000
  H   H26       1.0  0.6038751312533891  0.9893807235612255  0.6322250304003489  1.0000
  H   H27       1.0  0.3863537658993578  0.06213684624724889  0.4785271071668972  1.0000
  H   H28       1.0  0.6136074197654012  0.9378818778922947  0.5214643357270105  1.0000
  H   H29       1.0  0.1675414416320464  0.20579268014064667  0.28660334558423967  1.0000
  H   H30       1.0  0.8324652882963121  0.7942042517061195  0.7133929372168383  1.0000
  H   H31       1.0  0.0836820551085822  0.3555883229217756  0.3094462095866959  1.0000
  H   H32       1.0  0.916317272172108  0.6444023396305382  0.6905578117499117  1.0000
  C   C1        1.0  0.38036823242515533  0.2974848157637667  0.5828511805279887  1.0000
  C   C2        1.0  0.6196299615915919  0.7025098446643341  0.4171440277570397  1.0000
  C   C3        1.0  0.5775941671887637  0.5645183018863449  0.277327341266961  1.0000
  C   C4        1.0  0.42240785533667946  0.4354703072853426  0.7226742595380884  1.0000
  C   C5        1.0  0.30015022219535575  0.28161141005164575  0.893816055049818  1.0000
  C   C6        1.0  0.6998515514227321  0.7183916692693089  0.10618207579990716  1.0000
  C   C7        1.0  0.3649369648436861  0.684486413412543  0.06279494405101355  1.0000
  C   C8        1.0  0.6350605541323162  0.3155135678706671  0.9372103718441451  1.0000
  C   C9        1.0  0.5183235297089581  0.16318408462067419  0.7468170204485743  1.0000
  C   C10       1.0  0.48169203795102083  0.8368005909984929  0.2531797842905519  1.0000
  C   C11       1.0  0.26808602135550796  0.6251562834542882  0.4449652073295737  1.0000
  C   C12       1.0  0.7319129326109248  0.37484578031690324  0.5550385290624218  1.0000
  C   C13       1.0  0.26751127541363917  0.14618010526279332  0.7554871050346532  1.0000
  C   C14       1.0  0.7324870828034447  0.8538104810162749  0.2445130892706473  1.0000
  C   C15       1.0  0.17013752502404603  0.4304751558680947  0.7212854314065067  1.0000
  C   C16       1.0  0.8298671926993748  0.5695217039279896  0.2787088288786065  1.0000
  C   C17       1.0  0.22320848232904933  0.7409542899279415  0.4897680006494624  1.0000
  C   C18       1.0  0.7767868576582231  0.2590529003768296  0.5102367757787292  1.0000
  C   C19       1.0  0.13859610804414044  0.848791932311464  0.03168259009247979  1.0000
  C   C20       1.0  0.8614045801025011  0.1512111972296566  0.9683205632992509  1.0000
  C   C21       1.0  0.09731364278819399  0.8417103862391357  0.46472171298344017  1.0000
  C   C22       1.0  0.9026880461696508  0.1582927850770304  0.535282853919604  1.0000
  C   C23       1.0  0.1631898925817623  0.6053373289374946  0.07719806273829728  1.0000
  C   C24       1.0  0.8368114256920407  0.39466373266932914  0.9228046701392358  1.0000
  C   C25       1.0  0.2836373284979601  0.8193556434583299  0.03763755004561625  1.0000
  C   C26       1.0  0.716364381624949  0.18064750485903858  0.9623654078440964  1.0000
  C   C27       1.0  0.07928639607037978  0.7383721000642467  0.04990950427543337  1.0000
  C   C28       1.0  0.9207128994159604  0.2616289009912904  0.9500920105927972  1.0000
  C   C29       1.0  0.06652085736573103  0.706275964751427  0.35062627990715356  1.0000
  C   C30       1.0  0.9334738339127783  0.2937301095632421  0.6493740569792975  1.0000
  C   C31       1.0  0.018621520172104136  0.8223145334845726  0.39361182552513435  1.0000
  C   C32       1.0  0.9813742725759976  0.1776978814575401  0.6063948179445262  1.0000
  N   N1        1.0  0.30356024278766114  0.5798423572287205  0.08513677567618315  1.0000
  N   N2        1.0  0.6964405591833653  0.42016385274219203  0.9148639972115047  1.0000
  N   N3        1.0  0.19009546532717542  0.6088661426920722  0.37620127544965937  1.0000
  N   N4        1.0  0.8099026122349643  0.3911389482344703  0.6237978624203108  1.0000
  N   N5        1.0  0.4040469742556426  0.2923731902809337  0.48683890008738456  1.0000
  N   N6        1.0  0.5959450561559335  0.7076213919879352  0.513159894729732  1.0000
  N   N7        1.0  0.5291912479398704  0.47487369706995236  0.28263324536222706  1.0000
  N   N8        1.0  0.4708156144412357  0.5251191951259886  0.7173704369791236  1.0000
  N   N9        1.0  0.05854689472073478  0.9568307081858972  0.5121754796106971  1.0000
  N   N10       1.0  0.9414500470407671  0.043171283534619  0.48782623426533434  1.0000
  N   N11       1.0  0.06697973638607381  0.5220723600787593  0.7101985083083091  1.0000
  N   N12       1.0  0.9330240520671682  0.4779172803646645  0.2898000959764814  1.0000
  N   N13       1.0  0.6263957248449541  0.07533854389939171  0.7451297062162467  1.0000
  N   N14       1.0  0.37360780411840727  0.9246655781926876  0.2548662326198752  1.0000
  N   N15       1.0  0.23305451051879794  0.0474091868708157  0.7621978841904208  1.0000
  N   N16       1.0  0.7669444858245171  0.952582526897757  0.23780755416328242  1.0000
  N   N17       1.0  0.27340897687886206  0.27669692588752787  0.991849677994864  1.0000
  N   N18       1.0  0.7265924763843826  0.7233071931502835  0.008149065365287816  1.0000
  N   N19       1.0  0.06136759025174133  0.9885592651920949  0.012058946202394144  1.0000
  N   N20       1.0  0.9386274505457449  0.011448941830728594  0.9879448337229063  1.0000
  O   O1        1.0  0.4260342280545116  0.18138178830598406  0.1618808308079736  1.0000
  O   O2        1.0  0.5739675455635761  0.8186212910149706  0.8381173000417518  1.0000
  O   O3        1.0  0.37985699266086936  0.4515240164020041  0.11461703619664829  1.0000
  O   O4        1.0  0.6201377489468314  0.5484852073388637  0.8853857472257544  1.0000
  O   O5        1.0  0.22814417745126284  0.500699954003075  0.3323055124731198  1.0000
  O   O6        1.0  0.7718564603661876  0.4993000261118539  0.6676951943826664  1.0000
  O   O7        1.0  0.6453394915864409  0.20725577333677586  0.2702234653461133  1.0000
  O   O8        1.0  0.35465876334203017  0.7927420250181214  0.7297733849681903  1.0000
  O   O9        1.0  0.17496618946418604  0.2782338399450169  0.31741070832473633  1.0000
  O   O10       1.0  0.8250335296656103  0.7217589093178417  0.6825935380240581  1.0000
  O   O11       1.0  0.42336521470319605  0.0750587796035305  0.3973722770602349  1.0000
  O   O12       1.0  0.5766389655991516  0.924932947550424  0.6026265522367282  1.0000
