data_image0
_chemical_formula_structural       Al2H36C48N12O12
_chemical_formula_sum              "Al2 H36 C48 N12 O12"
_cell_length_a       3.95251712193108
_cell_length_b       29.17686072487762
_cell_length_c       29.17714607502772
_cell_angle_alpha    120.00303581170115
_cell_angle_beta     89.99488301738084
_cell_angle_gamma    89.99795222205292

_space_group_name_H-M_alt    "P 1"
_space_group_IT_number       1

loop_
  _space_group_symop_operation_xyz
  'x, y, z'

loop_
  _atom_site_type_symbol
  _atom_site_label
  _atom_site_symmetry_multiplicity
  _atom_site_fract_x
  _atom_site_fract_y
  _atom_site_fract_z
  _atom_site_occupancy
  Al  Al1       1.0  3.725805738239996e-05  0.49997831246537316  0.5000098783017393  1.0000
  Al  Al2       1.0  0.9996642912020591  0.16665792461804332  0.8333437832080222  1.0000
  H   H1        1.0  0.2099171036328116  0.22771093493815892  0.647236474074404  1.0000
  H   H2        1.0  0.7897961355376283  0.35272460851134474  0.7722462744625248  1.0000
  H   H3        1.0  0.7888681755325918  0.31378020424167363  0.5609804270999774  1.0000
  H   H4        1.0  0.21111013316311042  0.43898252369027085  0.6861928978314965  1.0000
  H   H5        1.0  0.20977218023841712  0.9194820157843536  0.7722427371259073  1.0000
  H   H6        1.0  0.7897558593985821  0.9194916213134688  0.6472343200100782  1.0000
  H   H7        1.0  0.7887990226516591  0.7471832201845388  0.6861980365988387  1.0000
  H   H8        1.0  0.21123940053851697  0.7471597663796743  0.5609675662141315  1.0000
  H   H9        1.0  0.2098112997705428  0.35281201607566  0.08048983724982857  1.0000
  H   H10       1.0  0.7897285186281239  0.22781246944153105  0.08052240351621259  1.0000
  H   H11       1.0  0.7886480976500679  0.4391256040284901  0.25285954264515453  1.0000
  H   H12       1.0  0.21111814640747886  0.31386666079473713  0.25279356236696776  1.0000
  H   H13       1.0  0.10766424090100908  0.15407189893213066  0.7141312808876847  1.0000
  H   H14       1.0  0.9984718043347414  0.1614443851878492  0.661174156218948  1.0000
  H   H15       1.0  0.8916861382827291  0.2858619451956628  0.8459196607472778  1.0000
  H   H16       1.0  0.0008139874793328999  0.3388237442394697  0.8385402537142568  1.0000
  H   H17       1.0  0.8916350722744253  0.3806963152473912  0.48736788256125874  1.0000
  H   H18       1.0  0.0002733343092912999  0.3277055395857006  0.49471453592673953  1.0000
  H   H19       1.0  0.10840246587213902  0.5126174918790269  0.6193016680849511  1.0000
  H   H20       1.0  0.9997250657122619  0.5052581492754555  0.6722792755701122  1.0000
  H   H21       1.0  0.10769039792490531  0.06002714949914899  0.8459114368251337  1.0000
  H   H22       1.0  0.998365173194962  0.9996956279015734  0.8385333236121044  1.0000
  H   H23       1.0  0.8918372508384208  0.060022329229361925  0.7141219415875001  1.0000
  H   H24       1.0  0.0009199097643203994  0.9996929607342224  0.6611609362829753  1.0000
  H   H25       1.0  0.8915496835231308  0.6066502051301158  0.6193008494607002  1.0000
  H   H26       1.0  0.00017437291735690003  0.6669808918703949  0.6722831505525662  1.0000
  H   H27       1.0  0.10855852255495789  0.6066345722900267  0.4873695774281331  1.0000
  H   H28       1.0  0.9999172406645369  0.6669541198078123  0.4947062610670231  1.0000
  H   H29       1.0  0.10753344922727588  0.2858754857836488  0.9399570203079152  1.0000
  H   H30       1.0  0.998356078036828  0.3388486371671959  0.00028474574103393385  1.0000
  H   H31       1.0  0.8916049787482548  0.15409975850248264  0.9399865831265332  1.0000
  H   H32       1.0  0.0007662228371927001  0.16148633017576938  0.000318573445788707  1.0000
  H   H33       1.0  0.8915441351135911  0.5126592748664508  0.3933929010616098  1.0000
  H   H34       1.0  0.00011691818405519992  0.5053546744713486  0.3330676716616382  1.0000
  H   H35       1.0  0.10856114934061618  0.3806987646781224  0.39332715026834825  1.0000
  H   H36       1.0  0.9998619367326355  0.32773820410586296  0.3329878928865639  1.0000
  C   C1        1.0  0.5000513084487466  0.4584695530042069  0.416967370995522  1.0000
  C   C2        1.0  0.5000070654760052  0.4584607860894891  0.5415362650689275  1.0000
  C   C3        1.0  0.5000241289485672  0.5830322508493422  0.5415355887102392  1.0000
  C   C4        1.0  0.49976026902449167  0.20814242967230717  0.791816826644805  1.0000
  C   C5        1.0  0.4997836701895578  0.083636840195787  0.7918414282832914  1.0000
  C   C6        1.0  0.4997210896197259  0.20819028748709206  0.9163517183781239  1.0000
  C   C7        1.0  0.49977580978693936  0.23703437373620767  0.76291447939834  1.0000
  C   C8        1.0  0.32940911445282245  0.21612539022243746  0.7128689919325311  1.0000
  C   C9        1.0  0.3398254159571863  0.24380204777106934  0.685113174009139  1.0000
  C   C10       1.0  0.4999128378898731  0.2931449422656057  0.7067864973873982  1.0000
  C   C11       1.0  0.6598812144217305  0.31483387484898634  0.7561413493020839  1.0000
  C   C12       1.0  0.6699683277954519  0.287098186502334  0.7838420421546675  1.0000
  C   C13       1.0  0.4999029183181278  0.3212341401589498  0.6787170428911153  1.0000
  C   C14       1.0  0.49988214699994415  0.3453661567252766  0.6545717887112872  1.0000
  C   C15       1.0  0.4999784867015222  0.3734486118496961  0.626511816958555  1.0000
  C   C16       1.0  0.6593408198473439  0.3517020521632191  0.5771040665244912  1.0000
  C   C17       1.0  0.6697444312713827  0.37946599156429534  0.5494398831637071  1.0000
  C   C18       1.0  0.4999814074531556  0.4295634640664971  0.5704316514181899  1.0000
  C   C19       1.0  0.3301952210247094  0.4505375677970135  0.6205201704459782  1.0000
  C   C20       1.0  0.3405757968680447  0.42285681303234657  0.6482666935321504  1.0000
  C   C21       1.0  0.499772276634161  0.025843126293310106  0.7629310935733289  1.0000
  C   C22       1.0  0.3293559244594206  0.9967122962385275  0.7838418665929228  1.0000
  C   C23       1.0  0.33963601956784834  0.9412867221319203  0.7561586835959987  1.0000
  C   C24       1.0  0.49982893384954946  0.9136306372670048  0.706816473781565  1.0000
  C   C25       1.0  0.6598315520589464  0.9412839878775258  0.6851212248693627  1.0000
  C   C26       1.0  0.6699612179345139  0.9967093616952241  0.7128611436226323  1.0000
  C   C27       1.0  0.49986767797812337  0.8574640498612993  0.6787207806417969  1.0000
  C   C28       1.0  0.49992694560377515  0.8091787920836778  0.6545844858939418  1.0000
  C   C29       1.0  0.5000314642224026  0.7530195963351146  0.6265060779389842  1.0000
  C   C30       1.0  0.6593367401774018  0.7253653355515153  0.6482692564058183  1.0000
  C   C31       1.0  0.6697231216017414  0.6699346440329136  0.6205089293095938  1.0000
  C   C32       1.0  0.49999252059188126  0.6408249721349789  0.5704188114372357  1.0000
  C   C33       1.0  0.3302630783830408  0.6699281191099755  0.5494341361931278  1.0000
  C   C34       1.0  0.3406761334524546  0.725355879386768  0.5770921459772039  1.0000
  C   C35       1.0  0.4997270680991121  0.2370975236024933  0.9741445385674442  1.0000
  C   C36       1.0  0.3293702947853845  0.287157387209774  0.003272712577562194  1.0000
  C   C37       1.0  0.33975029647157123  0.31493115319361914  0.058704823733869246  1.0000
  C   C38       1.0  0.49987015330759016  0.29326502363399237  0.08637812961154617  1.0000
  C   C39       1.0  0.6598262403070478  0.24390183092636863  0.05872409891200195  1.0000
  C   C40       1.0  0.6699293798915277  0.21618907183722766  0.0032943711896180816  1.0000
  C   C41       1.0  0.4998134947530488  0.32136444844244483  0.142545920734193  1.0000
  C   C42       1.0  0.49980029942604187  0.34552919109240315  0.1908207664737347  1.0000
  C   C43       1.0  0.49982714544534446  0.3735682237200848  0.24697011506803082  1.0000
  C   C44       1.0  0.6591992036347775  0.42297408153505966  0.2746402745827936  1.0000
  C   C45       1.0  0.6696095811855826  0.45061642123427953  0.3300763066407982  1.0000
  C   C46       1.0  0.49994159480718287  0.42960417584809096  0.3591697112886365  1.0000
  C   C47       1.0  0.3301792344920215  0.37952153047798015  0.33004118935082266  1.0000
  C   C48       1.0  0.34052020038078007  0.3517900312863489  0.27460894678198144  1.0000
  N   N1        1.0  0.1722570613181773  0.16752143175335016  0.6892118341729301  1.0000
  N   N2        1.0  0.8270600374506428  0.31077207163122006  0.832455521120231  1.0000
  N   N3        1.0  0.8266020373587466  0.3557719365946497  0.5007998953932642  1.0000
  N   N4        1.0  0.17341819073251227  0.4991813918546768  0.6442211580800078  1.0000
  N   N5        1.0  0.17222294838690294  0.02164980049624891  0.8324489937182237  1.0000
  N   N6        1.0  0.8271645999679225  0.02165146476266245  0.6892109400382013  1.0000
  N   N7        1.0  0.8265201761984499  0.6450044043346495  0.644218469266754  1.0000
  N   N8        1.0  0.17355863261818166  0.6449832067099097  0.5007974361481475  1.0000
  N   N9        1.0  0.17216056515881212  0.3108035818127847  0.9783228671338621  1.0000
  N   N10       1.0  0.8270120946637008  0.16757545430196785  0.9783625324400091  1.0000
  N   N11       1.0  0.8264803838836768  0.49925411389201463  0.35504467920332433  1.0000
  N   N12       1.0  0.17352233541504347  0.3557968258383609  0.35496576033947497  1.0000
  O   O1        1.0  0.7322762996070153  0.5577601544045478  0.5511970819173159  1.0000
  O   O2        1.0  0.7323491121081885  0.4933907686579956  0.44223820245530016  1.0000
  O   O3        1.0  0.7323142890901123  0.4488026992105602  0.5066074471705306  1.0000
  O   O4        1.0  0.26774078539528995  0.5577595533650451  0.5066136855337362  1.0000
  O   O5        1.0  0.26767674947581105  0.49339068483971726  0.5511951367284739  1.0000
  O   O6        1.0  0.26773693001820226  0.4488007194773402  0.44223241560965226  1.0000
  O   O7        1.0  0.7320133037173804  0.17325066347753185  0.8910917696242251  1.0000
  O   O8        1.0  0.7320380032242537  0.2178069171291882  0.8267461143082004  1.0000
  O   O9        1.0  0.732068388434449  0.10890382534578434  0.7821795784084387  1.0000
  O   O10       1.0  0.2673897934637921  0.21783739951084855  0.8910795898221692  1.0000
  O   O11       1.0  0.2675048211939455  0.10891538414800564  0.8267739213537271  1.0000
  O   O12       1.0  0.26746514534052324  0.17321395034969803  0.7821585775324494  1.0000
