data_image0
_chemical_formula_structural       Yb2P2H6C2O12
_chemical_formula_sum              "Yb2 P2 H6 C2 O12"
_cell_length_a       6.381639546448499
_cell_length_b       6.813447991585684
_cell_length_c       8.051139515586893
_cell_angle_alpha    114.31385794627127
_cell_angle_beta     101.12926023405136
_cell_angle_gamma    90.20550267171292

_space_group_name_H-M_alt    "P 1"
_space_group_IT_number       1

loop_
  _space_group_symop_operation_xyz
  'x, y, z'

loop_
  _atom_site_type_symbol
  _atom_site_label
  _atom_site_symmetry_multiplicity
  _atom_site_fract_x
  _atom_site_fract_y
  _atom_site_fract_z
  _atom_site_occupancy
  Yb  Yb1       1.0  0.1139862757844625  0.21831081691787804  0.9355319215969546  1.0000
  Yb  Yb2       1.0  0.8860100369695374  0.7816830123586558  0.06446313264935813  1.0000
  P   P1        1.0  0.6670782728440371  0.252862282740459  0.009294529096180802  1.0000
  P   P2        1.0  0.33291173937352886  0.7471291794011777  0.9906920071292973  1.0000
  H   H1        1.0  0.6551687945215151  0.338834304728934  0.19873746870761272  1.0000
  H   H2        1.0  0.34483115264431063  0.6611578526117867  0.801260419655371  1.0000
  H   H3        1.0  0.1297842668902831  0.285345906390809  0.3041306294410973  1.0000
  H   H4        1.0  0.8702392074410809  0.7146848992988312  0.6958557635363506  1.0000
  H   H5        1.0  0.1371033643317574  0.5165400301807281  0.3054007883517045  1.0000
  H   H6        1.0  0.8629224521141267  0.4834348834970825  0.6945854482117824  1.0000
  C   C1        1.0  0.993059444028802  0.1114567539141404  0.4989246404728931  1.0000
  C   C2        1.0  0.006941061292508317  0.8885419332731318  0.5010843650629013  1.0000
  O   O1        1.0  0.8046966696512216  0.05753683944865878  0.9697106619415194  1.0000
  O   O2        1.0  0.19530028522400766  0.9424642092923249  0.030287355227081005  1.0000
  O   O3        1.0  0.4399453198823978  0.19725367739236802  0.8923417770259691  1.0000
  O   O4        1.0  0.5600596653062127  0.8027406608963831  0.10765775466489201  1.0000
  O   O5        1.0  0.8051892564847022  0.4174876822701563  0.978442828693062  1.0000
  O   O6        1.0  0.19480418507882288  0.5825082283622012  0.021553525129249407  1.0000
  O   O7        1.0  0.013490482808322232  0.27048466890379075  0.6562157905136206  1.0000
  O   O8        1.0  0.9865022812312104  0.729515297927108  0.34377656276922164  1.0000
  O   O9        1.0  0.03688520998387899  0.8842503269026595  0.6593021987170999  1.0000
  O   O10       1.0  0.963110279043448  0.1157604320786447  0.3407042146424288  1.0000
  O   O11       1.0  0.1974607793801297  0.3748340136728174  0.2545854980954871  1.0000
  O   O12       1.0  0.8025115504631158  0.6251777641772167  0.7454485692213952  1.0000
