data_image0
_chemical_formula_structural       Al4H44C64O20
_chemical_formula_sum              "Al4 H44 C64 O20"
_cell_length_a       6.681487007438191
_cell_length_b       17.507201743650864
_cell_length_c       21.119549176137312
_cell_angle_alpha    107.61744165772994
_cell_angle_beta     90.00194004671748
_cell_angle_gamma    90.00702656368014

_space_group_name_H-M_alt    "P 1"
_space_group_IT_number       1

loop_
  _space_group_symop_operation_xyz
  'x, y, z'

loop_
  _atom_site_type_symbol
  _atom_site_label
  _atom_site_symmetry_multiplicity
  _atom_site_fract_x
  _atom_site_fract_y
  _atom_site_fract_z
  _atom_site_occupancy
  Al  Al1       1.0  0.8852146866265685  0.5001857125106638  0.5004405981019814  1.0000
  Al  Al2       1.0  0.3852210098223807  0.49979822481513747  0.4995400083389043  1.0000
  Al  Al3       1.0  0.35777800799171905  0.9998327643910299  0.999738082745118  1.0000
  Al  Al4       1.0  0.8577956336907563  0.00011976071392179999  0.00011774757718539999  1.0000
  H   H1        1.0  0.43296984801511224  0.252162044175101  0.6907751923873846  1.0000
  H   H2        1.0  0.9327067460539027  0.7480871884051652  0.30936645450280753  1.0000
  H   H3        1.0  0.8650139270615542  0.15755613533891474  0.7437760045558405  1.0000
  H   H4        1.0  0.36467483174264  0.8423843171685661  0.25618043869648227  1.0000
  H   H5        1.0  0.095270732163705  0.11257394671935828  0.7132643261132542  1.0000
  H   H6        1.0  0.5948106473053514  0.8874673231472555  0.2867491878348715  1.0000
  H   H7        1.0  0.10554377908632523  0.18675560522510176  0.6379062713981013  1.0000
  H   H8        1.0  0.6051258410912795  0.8133060737215912  0.3621146114301652  1.0000
  H   H9        1.0  0.8746028820943652  0.23147467856333032  0.6690105417417911  1.0000
  H   H10       1.0  0.3743241110242863  0.7684695847013996  0.33095643971387284  1.0000
  H   H11       1.0  0.8441268980954606  0.27826200383072575  0.8280358723878295  1.0000
  H   H12       1.0  0.34415339301432374  0.7216336139071727  0.17189243070815505  1.0000
  H   H13       1.0  0.0985325904327823  0.40447691822370047  0.8019289752212302  1.0000
  H   H14       1.0  0.5987702355459845  0.5955641371201352  0.1981043270524339  1.0000
  H   H15       1.0  0.4050694491124888  0.27262630695671664  0.8339872632487583  1.0000
  H   H16       1.0  0.9050251601441347  0.7275220905201818  0.1661237403783318  1.0000
  H   H17       1.0  0.4257389790070932  0.3415642541272206  0.7573634575305377  1.0000
  H   H18       1.0  0.9258374495232147  0.6586606857435768  0.2427915305742516  1.0000
  H   H19       1.0  0.8700603819308982  0.36363763906831537  0.7649078690444354  1.0000
  H   H20       1.0  0.370179921291232  0.6363049686868435  0.23505212414780627  1.0000
  H   H21       1.0  0.4163507597298803  0.12784135384592327  0.6598457353329223  1.0000
  H   H22       1.0  0.5932535009853269  0.9986339923581793  0.6327949444129431  1.0000
  H   H23       1.0  0.7477817152989273  0.9528584132961482  0.722667014588076  1.0000
  H   H24       1.0  0.7265362018527526  0.04070507004504986  0.8405231778799162  1.0000
  H   H25       1.0  0.5472772008528324  0.1694408421977158  0.8675236433565984  1.0000
  H   H26       1.0  0.9158811851689634  0.8724130701396575  0.3402424859108777  1.0000
  H   H27       1.0  0.09279594910049842  0.0016416408351673816  0.3672704055377806  1.0000
  H   H28       1.0  0.24752072032678293  0.04735202542300239  0.2773988984501656  1.0000
  H   H29       1.0  0.22657499008342089  0.9594235726606113  0.15957174463763824  1.0000
  H   H30       1.0  0.047338922156932  0.8306407631860182  0.13258386516562837  1.0000
  H   H31       1.0  0.8054580144476233  0.28992631978600497  0.9374459747936184  1.0000
  H   H32       1.0  0.8876785804733487  0.354934512869832  0.055948275614049706  1.0000
  H   H33       1.0  0.18536275957610832  0.44494335301273935  0.08682055204137379  1.0000
  H   H34       1.0  0.3941056905956017  0.47092432793980515  0.9975941480993455  1.0000
  H   H35       1.0  0.3100132802724715  0.40748010283108727  0.8798909810983843  1.0000
  H   H36       1.0  0.30585140609442624  0.7100126233071293  0.062451040670168795  1.0000
  H   H37       1.0  0.3884953696104391  0.6450729541564043  0.9439779440685994  1.0000
  H   H38       1.0  0.686317445292829  0.555160082033197  0.9132162228749647  1.0000
  H   H39       1.0  0.8947122012300142  0.5291874751536625  0.0025205677412856006  1.0000
  H   H40       1.0  0.8102373211987698  0.5925803959273138  0.12018788771398187  1.0000
  H   H41       1.0  0.6350690670626167  0.40302184959787707  0.5064582338509211  1.0000
  H   H42       1.0  0.135106757946005  0.5970164508928661  0.4936228213836458  1.0000
  H   H43       1.0  0.6072948806850037  0.10564642658984978  0.0230978724421362  1.0000
  H   H44       1.0  0.1071912945153173  0.8944455438667516  0.9790173706877638  1.0000
  C   C1        1.0  0.6358263786806901  0.5764398114243078  0.4218593405743149  1.0000
  C   C2        1.0  0.13595834545073157  0.42354784153674524  0.5781290163975399  1.0000
  C   C3        1.0  0.6345317576397137  0.6111303049298868  0.6011102559494502  1.0000
  C   C4        1.0  0.1342177140157759  0.3888576153787184  0.39886870648543754  1.0000
  C   C5        1.0  0.1312564968266088  0.3262474306773981  0.3360986069277487  1.0000
  C   C6        1.0  0.631452405769295  0.673746365634706  0.6638621505915765  1.0000
  C   C7        1.0  0.12439651023512971  0.2733954700283263  0.2828512511527421  1.0000
  C   C8        1.0  0.6245609710192215  0.7266170620906607  0.717111723989028  1.0000
  C   C9        1.0  0.11713599115743993  0.2153794240976765  0.22391819332018773  1.0000
  C   C10       1.0  0.61721995725798  0.7846494136731365  0.7760281884025773  1.0000
  C   C11       1.0  0.11033758897418271  0.16302110553601779  0.17037250450093916  1.0000
  C   C12       1.0  0.6102968675221163  0.8370184480572788  0.8295443546580402  1.0000
  C   C13       1.0  0.3456549421064637  0.23531835903379053  0.7860222825810367  1.0000
  C   C14       1.0  0.845526020044943  0.7648347901716332  0.21407087758732493  1.0000
  C   C15       1.0  0.019659953821467  0.17048389075917206  0.7332637658762095  1.0000
  C   C16       1.0  0.5193233095046708  0.82952538769959  0.2667345679806772  1.0000
  C   C17       1.0  0.026341820606077704  0.21947654239193776  0.6837125751751499  1.0000
  C   C18       1.0  0.5260486424971731  0.780542757840095  0.31629241974842864  1.0000
  C   C19       1.0  0.1371939760441521  0.38137356859844823  0.626953379088306  1.0000
  C   C20       1.0  0.6371590596875906  0.6186596015227652  0.3730629206130018  1.0000
  C   C21       1.0  0.1213032552960982  0.2175533377405259  0.7994401939714565  1.0000
  C   C22       1.0  0.621167669144981  0.7825085053938067  0.20058629481066959  1.0000
  C   C23       1.0  0.3489661371030551  0.2839694763738122  0.7357092582680592  1.0000
  C   C24       1.0  0.84886006491778  0.7162107741423823  0.26440167912400625  1.0000
  C   C25       1.0  0.1342801686543709  0.300473362562137  0.7154983082907479  1.0000
  C   C26       1.0  0.6341744958466294  0.6995952161450204  0.2845392981862673  1.0000
  C   C27       1.0  0.0193460559900203  0.34788812603234476  0.7789055719684939  1.0000
  C   C28       1.0  0.5194291700990377  0.6521218587803048  0.22108980972889464  1.0000
  C   C29       1.0  0.0004345485473465001  0.298185279500359  0.828120756836512  1.0000
  C   C30       1.0  0.5005077697284719  0.7017982581044819  0.17185866621033338  1.0000
  C   C31       1.0  0.13841140388803547  0.34545661697006114  0.6680260867295686  1.0000
  C   C32       1.0  0.6383243491798325  0.6546072192337603  0.33201148423577814  1.0000
  C   C33       1.0  0.1111699379046129  0.1716645988819819  0.8458951213069738  1.0000
  C   C34       1.0  0.6110449950212669  0.8283508043492418  0.154096400430312  1.0000
  C   C35       1.0  0.1079801718542441  0.13361664100722942  0.8853184961359445  1.0000
  C   C36       1.0  0.6078603890447951  0.866307240759312  0.1146023104363962  1.0000
  C   C37       1.0  0.6080800499026964  0.8973036374475141  0.8934351773847167  1.0000
  C   C38       1.0  0.10809583593920992  0.10277526288287218  0.10646454423661568  1.0000
  C   C39       1.0  0.6075604774811723  0.9123461530965213  0.06888517122106208  1.0000
  C   C40       1.0  0.10771280948090832  0.08750249128811297  0.9309760905320275  1.0000
  C   C41       1.0  0.4672918289603913  0.15859446055889487  0.7660793079810232  1.0000
  C   C42       1.0  0.4832785458704906  0.10936158472281925  0.7000398301433747  1.0000
  C   C43       1.0  0.5833918329764459  0.035925906830612996  0.6844900305547411  1.0000
  C   C44       1.0  0.6697821783045868  0.01020939478038227  0.7347704633092603  1.0000
  C   C45       1.0  0.6573153890468788  0.05890459457683044  0.8006181670886361  1.0000
  C   C46       1.0  0.5576016822458314  0.13228121076583213  0.8158005518002013  1.0000
  C   C47       1.0  0.9670760285280977  0.8415848291216931  0.23401214495065398  1.0000
  C   C48       1.0  0.9829340395985326  0.8908625628689748  0.3000476131012277  1.0000
  C   C49       1.0  0.0830631561405966  0.9643046953483889  0.3155828488552075  1.0000
  C   C50       1.0  0.16958041025588239  0.9899810109424864  0.26529822325642277  1.0000
  C   C51       1.0  0.1572458150792713  0.9412433605278849  0.19946695338020956  1.0000
  C   C52       1.0  0.05752337312981131  0.8678550299297498  0.1842941622163536  1.0000
  C   C53       1.0  0.0520744848813237  0.3428609994733377  0.8996747807808488  1.0000
  C   C54       1.0  0.9346795837543669  0.32980680706783955  0.9506152327984478  1.0000
  C   C55       1.0  0.9814632076489931  0.3660961978389992  0.017388048595691395  1.0000
  C   C56       1.0  0.14782912030029388  0.41654666524207323  0.034682172317431495  1.0000
  C   C57       1.0  0.2651370377846121  0.4309886312901836  0.98474395962166  1.0000
  C   C58       1.0  0.2169507648582183  0.39461414636303255  0.9179375025975035  1.0000
  C   C59       1.0  0.5523702536999622  0.6571471086671322  0.10031549041279669  1.0000
  C   C60       1.0  0.4351471663038211  0.6701886257547114  0.049334497437762095  1.0000
  C   C61       1.0  0.48216303442225694  0.6339272316416568  0.9825769798744304  1.0000
  C   C62       1.0  0.6485938717381146  0.5835278727462949  0.9653393889159145  1.0000
  C   C63       1.0  0.7657158102461068  0.569096062565727  0.0153254539919772  1.0000
  C   C64       1.0  0.7173083033286717  0.6054434306994664  0.08211068667401378  1.0000
  O   O1        1.0  0.4642006898795117  0.587177670238546  0.5760407684748968  1.0000
  O   O2        1.0  0.963855687175972  0.41298512546649846  0.4237521002767578  1.0000
  O   O3        1.0  0.8054716659429887  0.5603478589324312  0.44234959510582433  1.0000
  O   O4        1.0  0.3056912127694105  0.4398740014671174  0.5578312081798841  1.0000
  O   O5        1.0  0.8062233638264332  0.5871581265239455  0.5773701805313464  1.0000
  O   O6        1.0  0.3059016859108112  0.4126476268188881  0.42277841817376327  1.0000
  O   O7        1.0  0.9653694266051573  0.44031275915151724  0.5587587077110924  1.0000
  O   O8        1.0  0.46514577881207236  0.5594000221559482  0.4409964538264576  1.0000
  O   O9        1.0  0.6352711111607903  0.45268401681392584  0.49511734575802535  1.0000
  O   O10       1.0  0.1353072890624816  0.5472914419020396  0.5048653667637594  1.0000
  O   O11       1.0  0.7778269422185461  0.9303505093728645  0.05012878384442129  1.0000
  O   O12       1.0  0.2779543249226819  0.06938307138679525  0.9496326141203539  1.0000
  O   O13       1.0  0.43716613883710653  0.9199732573651432  0.9186125278268092  1.0000
  O   O14       1.0  0.9370907698581592  0.08003765466019527  0.0813409443481561  1.0000
  O   O15       1.0  0.4367952466230634  0.930720417687496  0.0505722064639116  1.0000
  O   O16       1.0  0.9369886623443977  0.06917885832849188  0.9493522180610938  1.0000
  O   O17       1.0  0.2786650622279653  0.07911458017649409  0.08133762173928011  1.0000
  O   O18       1.0  0.7786534858212165  0.9210517413062501  0.9185180034869657  1.0000
  O   O19       1.0  0.6076634647624034  0.04764864112213021  0.0095286475718055  1.0000
  O   O20       1.0  0.10761437175849413  0.9523269128859366  0.9904829048802882  1.0000
