data_image0
_chemical_formula_structural       ZnH22C12N4O8
_chemical_formula_sum              "Zn1 H22 C12 N4 O8"
_cell_length_a       7.890064280605978
_cell_length_b       8.517965245674203
_cell_length_c       8.518054066294333
_cell_angle_alpha    95.85425296316633
_cell_angle_beta     112.79542164088038
_cell_angle_gamma    112.79507974475483

_space_group_name_H-M_alt    "P 1"
_space_group_IT_number       1

loop_
  _space_group_symop_operation_xyz
  'x, y, z'

loop_
  _atom_site_type_symbol
  _atom_site_label
  _atom_site_symmetry_multiplicity
  _atom_site_fract_x
  _atom_site_fract_y
  _atom_site_fract_z
  _atom_site_occupancy
  Zn  Zn1       1.0  0.5000002764937294  0.3478783078068871  0.652125515777712  1.0000
  H   H1        1.0  0.028795394511710953  0.3128002207879418  0.47891603388546145  1.0000
  H   H2        1.0  0.971202709140556  0.5210809109504312  0.6871916313773525  1.0000
  H   H3        1.0  0.4241120500873309  0.07366705309890159  0.43037255150129994  1.0000
  H   H4        1.0  0.5758926081327047  0.569633453995671  0.9263331418471097  1.0000
  H   H5        1.0  0.6702384237105364  0.21378309754426544  0.500184316129527  1.0000
  H   H6        1.0  0.3297671278132413  0.4998187072332811  0.7862202745281124  1.0000
  H   H7        1.0  0.838514319987361  0.9979312532550325  0.946725838956624  1.0000
  H   H8        1.0  0.1614901941461042  0.05327857757156809  0.0020732252960300006  1.0000
  H   H9        1.0  0.7342060041500176  0.016399389192528705  0.6423238473779663  1.0000
  H   H10       1.0  0.26580371714678114  0.35768212404084926  0.9836036117340258  1.0000
  H   H11       1.0  0.49627723645844674  0.9412839134350578  0.6516793932559537  1.0000
  H   H12       1.0  0.5037351932435145  0.3483293752789934  0.058723266746618215  1.0000
  H   H13       1.0  0.9526684661007181  0.3500509766539394  0.17947314222062255  1.0000
  H   H14       1.0  0.047323683941670046  0.8205286595595994  0.6499539984502577  1.0000
  H   H15       1.0  0.6450925199147052  0.11184758077239108  0.17350881038073146  1.0000
  H   H16       1.0  0.3549027827900062  0.8264889449116738  0.888152485553981  1.0000
  H   H17       1.0  0.9402944117948238  0.9637757644982514  0.37025171345170094  1.0000
  H   H18       1.0  0.05969581725641865  0.6297349535646504  0.03621099925076276  1.0000
  H   H19       1.0  0.7311713328595104  0.8561390952930809  0.14875415825069643  1.0000
  H   H20       1.0  0.2688174114865234  0.8512303013295223  0.14385148351489363  1.0000
  H   H21       1.0  0.6795228457169742  0.8878075282101391  0.3319837625566747  1.0000
  H   H22       1.0  0.3204663947340124  0.6680008637235133  0.11218262912688465  1.0000
  C   C1        1.0  0.7425306470515168  0.1794004447445801  0.859261624957952  1.0000
  C   C2        1.0  0.25747165925936605  0.14074168786465444  0.8206006923318229  1.0000
  C   C3        1.0  0.6303830164087005  0.06085624881598049  0.6664711134148009  1.0000
  C   C4        1.0  0.3696285483705425  0.33353522168951605  0.9391506428712617  1.0000
  C   C5        1.0  0.9393175204564271  0.21592446270719282  0.17162203598101666  1.0000
  C   C6        1.0  0.06068078785038727  0.8283813041651485  0.7840802834054516  1.0000
  C   C7        1.0  0.801102301519613  0.12843772514357712  0.259592705029668  1.0000
  C   C8        1.0  0.19889257726929804  0.7404048957869804  0.871561035895681  1.0000
  C   C9        1.0  0.15689980262114744  0.23546877806648334  0.2809260887264102  1.0000
  C   C10       1.0  0.8431002589017282  0.7190755727014134  0.7645290620921799  1.0000
  C   C11       1.0  0.7874269034001884  0.9482082719262905  0.27861027662231647  1.0000
  C   C12       1.0  0.21256490226507913  0.7213777718386895  0.05178167156061162  1.0000
  N   N1        1.0  0.5607924263749667  0.15601730554045193  0.5422750065023864  1.0000
  N   N2        1.0  0.4392145585292795  0.4577292748807409  0.843987920231733  1.0000
  N   N3        1.0  0.8428425698633929  0.11985938009433988  0.9850990450661783  1.0000
  N   N4        1.0  0.15716533140992084  0.0149063835456715  0.8801478802944658  1.0000
  O   O1        1.0  0.7366358738691048  0.3230317798284545  0.8953378509485717  1.0000
  O   O2        1.0  0.26337188793292654  0.10466115221891673  0.6769787651429198  1.0000
  O   O3        1.0  0.8755108427678524  0.2506756159416454  0.4278353173983689  1.0000
  O   O4        1.0  0.12448581594092192  0.5721648362559577  0.7493186873876992  1.0000
  O   O5        1.0  0.2505791472856345  0.34229699495521265  0.4396362277563454  1.0000
  O   O6        1.0  0.7494155815339453  0.5603703705135318  0.6577033831845897  1.0000
  O   O7        1.0  0.22582696771694094  0.14813386960825886  0.2195291396550871  1.0000
  O   O8        1.0  0.7741803386431841  0.7804753174890351  0.8518781531301444  1.0000
