data_image0
_chemical_formula_structural       Zn4H48C72N4O16
_chemical_formula_sum              "Zn4 H48 C72 N4 O16"
_cell_length_a       13.125756418995843
_cell_length_b       13.125742758446837
_cell_length_c       13.906992351080083
_cell_angle_alpha    106.77722044241659
_cell_angle_beta     106.77761561061162
_cell_angle_gamma    91.43740736999764

_space_group_name_H-M_alt    "P 1"
_space_group_IT_number       1

loop_
  _space_group_symop_operation_xyz
  'x, y, z'

loop_
  _atom_site_type_symbol
  _atom_site_label
  _atom_site_symmetry_multiplicity
  _atom_site_fract_x
  _atom_site_fract_y
  _atom_site_fract_z
  _atom_site_occupancy
  Zn  Zn1       1.0  0.1866691428288689  0.86621819053277  0.8644414598030252  1.0000
  Zn  Zn2       1.0  0.1337809608703253  0.8133251081749081  0.6355564503336595  1.0000
  Zn  Zn3       1.0  0.8133300032338866  0.13378528087164196  0.13555919246878995  1.0000
  Zn  Zn4       1.0  0.8662197798018099  0.18667536661079256  0.3644445453375198  1.0000
  H   H1        1.0  0.534720007104653  0.904691370207175  0.9510109620648421  1.0000
  H   H2        1.0  0.7268758316881402  0.9022592177149564  0.9633661857600443  1.0000
  H   H3        1.0  0.4452925607770268  0.8059728516914645  0.6121665809250559  1.0000
  H   H4        1.0  0.8673214219244018  0.8650063976077503  0.8737491819560289  1.0000
  H   H5        1.0  0.041752985093609106  0.9236951403174631  0.9839316802602482  1.0000
  H   H6        1.0  0.0099791182659033  0.9131659071509618  0.1488657452684592  1.0000
  H   H7        1.0  0.31925833787069285  0.7966124381239794  0.22678998619007723  1.0000
  H   H8        1.0  0.4096077453549469  0.8803472920752925  0.04857286578661047  1.0000
  H   H9        1.0  0.4231466586553481  0.7784419446660921  0.11170583413241526  1.0000
  H   H10       1.0  0.3484965166273639  0.7485835898545048  0.9745726169590725  1.0000
  H   H11       1.0  0.7809068163454073  0.7869283596931141  0.536197973717769  1.0000
  H   H12       1.0  0.5880879644868884  0.783112303948748  0.5230176330906744  1.0000
  H   H13       1.0  0.09530276106102063  0.46528213368695504  0.5489916032747787  1.0000
  H   H14       1.0  0.09774089057744821  0.273124987138246  0.5366303518762051  1.0000
  H   H15       1.0  0.1940249923345831  0.5547046957934826  0.8878342626607463  1.0000
  H   H16       1.0  0.1349958598559269  0.13267656767603603  0.6262434386593724  1.0000
  H   H17       1.0  0.07630349076394792  0.9582452283428397  0.5160657728956722  1.0000
  H   H18       1.0  0.08683483269306443  0.9900219636780961  0.3511348369013377  1.0000
  H   H19       1.0  0.20338899968650995  0.6807417192682409  0.27320830216534375  1.0000
  H   H20       1.0  0.1196520639744776  0.5903945459181372  0.4514254849710824  1.0000
  H   H21       1.0  0.2215585286768018  0.5768515027850755  0.3882928050678629  1.0000
  H   H22       1.0  0.2514174753831071  0.651501278978017  0.525426948445883  1.0000
  H   H23       1.0  0.21307229546976464  0.21909051019673606  0.9637990462398279  1.0000
  H   H24       1.0  0.21688601832110524  0.41190833974702923  0.9769814666217584  1.0000
  H   H25       1.0  0.46528314651832403  0.09530938840659789  0.048992194420321815  1.0000
  H   H26       1.0  0.273124925987311  0.0977444458852617  0.036636388038871794  1.0000
  H   H27       1.0  0.5547057754157337  0.1940249688670193  0.38783449735058184  1.0000
  H   H28       1.0  0.13267850446991503  0.1349963514791881  0.12624860953316394  1.0000
  H   H29       1.0  0.958246952441023  0.07630365512716251  0.01606936927521469  1.0000
  H   H30       1.0  0.9900240384908515  0.08683564755003907  0.8511376253794651  1.0000
  H   H31       1.0  0.6807431938687643  0.203388910984323  0.7732092985006959  1.0000
  H   H32       1.0  0.5903954051342524  0.1196526704512593  0.951430076535793  1.0000
  H   H33       1.0  0.5768524896113121  0.22155756416474046  0.8882966332323078  1.0000
  H   H34       1.0  0.6515034271748233  0.2514167977645556  0.0254288609019183  1.0000
  H   H35       1.0  0.21909150510833095  0.2130702390900723  0.4638004328138976  1.0000
  H   H36       1.0  0.4119119837835044  0.21688808813593852  0.47698456624699753  1.0000
  H   H37       1.0  0.9046963420586992  0.534714951157163  0.45100444978819354  1.0000
  H   H38       1.0  0.9022614192292837  0.7268716726133706  0.4633671656481724  1.0000
  H   H39       1.0  0.8059693197595694  0.4452950280715271  0.11216193280873196  1.0000
  H   H40       1.0  0.8650080423562727  0.8673210580304556  0.37375260717146813  1.0000
  H   H41       1.0  0.9236964347004957  0.04175276208329848  0.48393361952366115  1.0000
  H   H42       1.0  0.9131635084328309  0.009978240676424777  0.6488661623859143  1.0000
  H   H43       1.0  0.7966117271160869  0.3192563627901706  0.7267913295408661  1.0000
  H   H44       1.0  0.880348650757945  0.40960273112179385  0.5485724896189978  1.0000
  H   H45       1.0  0.7784429918619651  0.4231458703527478  0.6117061302857677  1.0000
  H   H46       1.0  0.7485832375499584  0.348494410353105  0.4745713192953502  1.0000
  H   H47       1.0  0.7869244353778555  0.7809087103403838  0.03620053883422967  1.0000
  H   H48       1.0  0.7831090901780584  0.5880890919542239  0.023015047122974946  1.0000
  C   C1        1.0  0.3626688694125093  0.8506374822861532  0.7725495510137391  1.0000
  C   C2        1.0  0.4788544913678123  0.8533919612077838  0.7798671220144796  1.0000
  C   C3        1.0  0.5589381625948775  0.8818005094835186  0.8798337980902743  1.0000
  C   C4        1.0  0.6654819442562357  0.8801300538011816  0.8863783608085355  1.0000
  C   C5        1.0  0.5078843799371598  0.8269681251107457  0.6882863797268682  1.0000
  C   C6        1.0  0.6971659534938014  0.8520125939161858  0.7934924393760168  1.0000
  C   C7        1.0  0.8058235315012395  0.8489747893887836  0.7976152547343318  1.0000
  C   C8        1.0  0.1017937165901373  0.8977718525091234  0.041593949316052266  1.0000
  C   C9        1.0  0.08438283148420568  0.8907489765165766  0.13333146011621722  1.0000
  C   C10       1.0  0.16247019483105166  0.8515221185254662  0.20144701949291755  1.0000
  C   C11       1.0  0.25530950068433367  0.8246807911014072  0.17441123683361337  1.0000
  C   C12       1.0  0.2689187647974762  0.8353586586906943  0.08170392913937966  1.0000
  C   C13       1.0  0.3684907692127695  0.8086647437187864  0.0530019503287278  1.0000
  C   C14       1.0  0.8359153691033185  0.8271236462693781  0.7068123730173994  1.0000
  C   C15       1.0  0.9523929835084318  0.8308965907916033  0.7151980265111887  1.0000
  C   C16       1.0  0.7561729696393584  0.8042708712905265  0.6069719107803663  1.0000
  C   C17       1.0  0.64934870528667  0.8026623011893791  0.5999833553376491  1.0000
  C   C18       1.0  0.6166844843329571  0.8268711453143637  0.6922632239642184  1.0000
  C   C19       1.0  0.1493497922974143  0.6373285894665841  0.727447380184401  1.0000
  C   C20       1.0  0.14660222555522043  0.5211441106752092  0.7201316187106954  1.0000
  C   C21       1.0  0.11819444888433141  0.4410625245099881  0.6201651576174143  1.0000
  C   C22       1.0  0.1198660551787185  0.334518572621576  0.6136204915516997  1.0000
  C   C23       1.0  0.17302679131729093  0.49211757792233624  0.811712917586071  1.0000
  C   C24       1.0  0.147989478480838  0.30283343539079516  0.7065035893167887  1.0000
  C   C25       1.0  0.15103066387894873  0.19417519095289745  0.7023833038878847  1.0000
  C   C26       1.0  0.1022295378801772  0.898204565000114  0.458405687443843  1.0000
  C   C27       1.0  0.10924941424460138  0.9156194930104321  0.3666705795545083  1.0000
  C   C28       1.0  0.14848072462402226  0.8375273287891074  0.2985502759412171  1.0000
  C   C29       1.0  0.17532012800864294  0.7446904413415965  0.3255865814964594  1.0000
  C   C30       1.0  0.1646421084843226  0.731080492123397  0.4182929553735378  1.0000
  C   C31       1.0  0.19133735775077548  0.631509782996737  0.4469960507357341  1.0000
  C   C32       1.0  0.17288594161955473  0.1640811017333093  0.7931796688206633  1.0000
  C   C33       1.0  0.16911405416130523  0.04761090925166661  0.7848095985580414  1.0000
  C   C34       1.0  0.1957322221638051  0.24382361360972746  0.8930247070375258  1.0000
  C   C35       1.0  0.1973385569717365  0.35064886617566776  0.9000111468932843  1.0000
  C   C36       1.0  0.17312819624958561  0.3833138962197112  0.8077330603884364  1.0000
  C   C37       1.0  0.6373327610923099  0.14936634439641946  0.2274648056989648  1.0000
  C   C38       1.0  0.5211454390297732  0.14660841301438404  0.220132191416468  1.0000
  C   C39       1.0  0.44106099640755053  0.11820059598738199  0.12016981907665784  1.0000
  C   C40       1.0  0.3345204008915559  0.11987219195786739  0.11362282028523646  1.0000
  C   C41       1.0  0.49211717861150817  0.1730332507913417  0.31171723382399813  1.0000
  C   C42       1.0  0.3028363965871179  0.14799203563890023  0.2065086627293624  1.0000
  C   C43       1.0  0.194178832449218  0.15103223289359852  0.2023872113360312  1.0000
  C   C44       1.0  0.8982086406278285  0.10223119826841298  0.9584088888938495  1.0000
  C   C45       1.0  0.9156187391346435  0.10925320440399128  0.8666738105507787  1.0000
  C   C46       1.0  0.8375321565842884  0.14848171940802501  0.7985545899263827  1.0000
  C   C47       1.0  0.7446904355158779  0.17531879596480593  0.8255893053879291  1.0000
  C   C48       1.0  0.731081983476642  0.1646426166478605  0.918298002171248  1.0000
  C   C49       1.0  0.6315107803994877  0.1913366232520346  0.9470002202687766  1.0000
  C   C50       1.0  0.16408377562500934  0.17288061675662195  0.29318777194049517  1.0000
  C   C51       1.0  0.047617426839885  0.16910503716891875  0.28481449832264616  1.0000
  C   C52       1.0  0.2438245764159461  0.1957308336061558  0.3930292775455371  1.0000
  C   C53       1.0  0.3506520282484189  0.19733975237387114  0.40001590422901495  1.0000
  C   C54       1.0  0.38331706887801437  0.17313339707407494  0.3077383603309798  1.0000
  C   C55       1.0  0.850646981028305  0.362674638300426  0.27255760456356637  1.0000
  C   C56       1.0  0.8533904525852306  0.4788553986658428  0.2798590478482622  1.0000
  C   C57       1.0  0.8818054600417325  0.5589346564320367  0.37983185620910825  1.0000
  C   C58       1.0  0.8801362684975446  0.6654804798573295  0.38637838993765433  1.0000
  C   C59       1.0  0.826968330181927  0.5078854174581977  0.18828365234465136  1.0000
  C   C60       1.0  0.8520120317870976  0.6971647204373639  0.2934933957695661  1.0000
  C   C61       1.0  0.8489732790119932  0.8058248542746682  0.29761843476801886  1.0000
  C   C62       1.0  0.897768786242402  0.10179245053988947  0.5415937337156648  1.0000
  C   C63       1.0  0.8907489161455403  0.0843791147040136  0.6333292699305274  1.0000
  C   C64       1.0  0.8515191995060081  0.16247145325861823  0.7014486091642027  1.0000
  C   C65       1.0  0.8246790068534152  0.2553090540923435  0.6744137214382205  1.0000
  C   C66       1.0  0.8353562192369637  0.2689196988342317  0.581705879483664  1.0000
  C   C67       1.0  0.8086641551860083  0.36848678958823905  0.553001948978455  1.0000
  C   C68       1.0  0.8271179521211777  0.8359188943723127  0.2068141335917417  1.0000
  C   C69       1.0  0.8308923879711045  0.9523966426421566  0.21520560757359414  1.0000
  C   C70       1.0  0.8042653068881833  0.7561749024724522  0.10697490316064061  1.0000
  C   C71       1.0  0.8026541511117031  0.6493514660463902  0.09998406268852729  1.0000
  C   C72       1.0  0.8268677001831222  0.6166836137169157  0.19226152821313044  1.0000
  N   N1        1.0  0.1908563330612125  0.8708009582695625  0.015521972124488984  1.0000
  N   N2        1.0  0.1292011159314299  0.8091426934142731  0.48447842600929647  1.0000
  N   N3        1.0  0.8091452241530277  0.1292012092541128  0.984481134112464  1.0000
  N   N4        1.0  0.870799621141991  0.19085460595380252  0.5155231559641962  1.0000
  O   O1        1.0  0.33925355766048443  0.8928828680284157  0.857179024408225  1.0000
  O   O2        1.0  0.29578783512467055  0.8051074759124147  0.6816661272251849  1.0000
  O   O3        1.0  0.97748167067666  0.8341746780582682  0.6335662614740939  1.0000
  O   O4        1.0  0.0183251430828193  0.8326908620101251  0.8030428635202256  1.0000
  O   O5        1.0  0.10710636305626761  0.6607472441854725  0.6428212699106339  1.0000
  O   O6        1.0  0.19488153429468721  0.7042112168960913  0.8183330644818697  1.0000
  O   O7        1.0  0.16582216502146  0.022518899669542198  0.8664310933414113  1.0000
  O   O8        1.0  0.16732568444538737  0.9816670786115794  0.6969544098412115  1.0000
  O   O9        1.0  0.6607479288716434  0.10710812748039442  0.14281675468993169  1.0000
  O   O10       1.0  0.7042104755932996  0.1948895262307033  0.3183311295042727  1.0000
  O   O11       1.0  0.022522212732866406  0.1658181711248972  0.36642849938016303  1.0000
  O   O12       1.0  0.9816675699337553  0.16731185400796283  0.19695226707320052  1.0000
  O   O13       1.0  0.892883150875271  0.3392566974779784  0.35717333186082817  1.0000
  O   O14       1.0  0.8051079348944656  0.2957847504982567  0.18165723123190253  1.0000
  O   O15       1.0  0.8341721810793246  0.9774872018244878  0.1335682583835407  1.0000
  O   O16       1.0  0.832690230641589  0.01832557074373398  0.3030463978973258  1.0000
