data_image0
_chemical_formula_structural       Na4H24C12N28O8
_chemical_formula_sum              "Na4 H24 C12 N28 O8"
_cell_length_a       8.447045748429698
_cell_length_b       8.446051463438717
_cell_length_c       12.374427706553364
_cell_angle_alpha    105.4616979242821
_cell_angle_beta     106.6476762134823
_cell_angle_gamma    100.94427621971624

_space_group_name_H-M_alt    "P 1"
_space_group_IT_number       1

loop_
  _space_group_symop_operation_xyz
  'x, y, z'

loop_
  _atom_site_type_symbol
  _atom_site_label
  _atom_site_symmetry_multiplicity
  _atom_site_fract_x
  _atom_site_fract_y
  _atom_site_fract_z
  _atom_site_occupancy
  Na  Na1       1.0  0.2540056281273523  0.003999945678359001  0.749947573717584  1.0000
  Na  Na2       1.0  0.7459940166950431  0.9959997343445294  0.250051904370906  1.0000
  Na  Na3       1.0  0.4999993382637271  0.9999985105597418  2.9158563590877935e-08  1.0000
  Na  Na4       1.0  0.9999996208414217  0.9999991141726594  0.500000834453381  1.0000
  H   H1        1.0  0.4320576958087586  0.3109950335099755  0.960722127694545  1.0000
  H   H2        1.0  0.3502334473282431  0.9713183070708098  0.5392532660899503  1.0000
  H   H3        1.0  0.5679415836158697  0.6890033669960686  0.0392762358653727  1.0000
  H   H4        1.0  0.6497674343476376  0.028681377169284903  0.4607464556971123  1.0000
  H   H5        1.0  0.5762737258215082  0.2873326585798779  0.9051352250084219  1.0000
  H   H6        1.0  0.3821492699634845  0.1711329088964888  0.5948403373172508  1.0000
  H   H7        1.0  0.4237271584340192  0.7126670290529233  0.09486368978578236  1.0000
  H   H8        1.0  0.6178503748589178  0.8288667711263925  0.4051591407712463  1.0000
  H   H9        1.0  0.10396977807722149  0.8526660472442272  0.9148472561968004  1.0000
  H   H10       1.0  0.9377896777941147  0.6890087474715686  0.58502429219795  1.0000
  H   H11       1.0  0.8960314715760731  0.14733491990541833  0.08515277312597658  1.0000
  H   H12       1.0  0.062207983901402045  0.31098834894416433  0.414977555091987  1.0000
  H   H13       1.0  0.17718274013060412  0.0546565981205376  0.9587736386661871  1.0000
  H   H14       1.0  0.09586918161737401  0.7182420634156088  0.5410830592527416  1.0000
  H   H15       1.0  0.8228160358157268  0.9453443605946957  0.041225903259451975  1.0000
  H   H16       1.0  0.9041276112020711  0.2817563116924688  0.45891885187434395  1.0000
  H   H17       1.0  0.798332637484144  0.8562608743451888  0.6841039721734247  1.0000
  H   H18       1.0  0.17213119523191986  0.6141594200949642  0.8159477557507413  1.0000
  H   H19       1.0  0.20166824677137637  0.14373881328761232  0.3158949426207727  1.0000
  H   H20       1.0  0.8278693184665471  0.38583898123557964  0.1840516585006071  1.0000
  H   H21       1.0  0.37725635568065746  0.5429535163939293  0.7215076389832047  1.0000
  H   H22       1.0  0.821326954934271  0.15559073163920797  0.7783355201694632  1.0000
  H   H23       1.0  0.6227440250965728  0.45704872944805425  0.278492454176721  1.0000
  H   H24       1.0  0.17867429213938377  0.8444102321177239  0.22166531614617915  1.0000
  C   C1        1.0  0.687614061140124  0.8193432022535204  0.7091949074790802  1.0000
  C   C2        1.0  0.11010959120188349  0.4783282826371503  0.7908118797426266  1.0000
  C   C3        1.0  0.3123859516596923  0.18065776067891187  0.29080487814512407  1.0000
  C   C4        1.0  0.8898936338393708  0.5216752579415099  0.20918820135728572  1.0000
  C   C5        1.0  0.4696358192146164  0.657783214608983  0.728538712179535  1.0000
  C   C6        1.0  0.9291243190735727  0.2409579127169152  0.7713266200393532  1.0000
  C   C7        1.0  0.5303622207768868  0.3422151782871481  0.27146021467467557  1.0000
  C   C8        1.0  0.07087816743320732  0.7590430586499295  0.22867365298198905  1.0000
  C   C9        1.0  0.6387473767662826  0.5072053626132343  0.6224049577637272  1.0000
  C   C10       1.0  0.8847269057685098  0.5162604586579462  0.8775173815309925  1.0000
  C   C11       1.0  0.36125190007869884  0.49279303450009576  0.3775942127890558  1.0000
  C   C12       1.0  0.11527645477362111  0.4837392408019809  0.12248121366748417  1.0000
  N   N1        1.0  0.47875537865582635  0.8195492436855859  0.7795021109343593  1.0000
  N   N2        1.0  0.03998621364085151  0.1991264126221424  0.7204096183081388  1.0000
  N   N3        1.0  0.5212462389748893  0.18045300637360379  0.22049822592413187  1.0000
  N   N4        1.0  0.9600137965793182  0.8008745469175835  0.2795909743089311  1.0000
  N   N5        1.0  0.6180205474412687  0.9222509932308043  0.7670291462035406  1.0000
  N   N6        1.0  0.15520229413104397  0.35091960941379335  0.7329828829723226  1.0000
  N   N7        1.0  0.3819799688368377  0.07774741149245298  0.23296946105494237  1.0000
  N   N8        1.0  0.8447985875448366  0.6490800748263011  0.267016838814733  1.0000
  N   N9        1.0  0.5992092494417633  0.650775872440086  0.6826498283015282  1.0000
  N   N10       1.0  0.9680171160857043  0.4164222059571826  0.8172607137709418  1.0000
  N   N11       1.0  0.40079076593769253  0.34922509388506023  0.317349150329825  1.0000
  N   N12       1.0  0.03198165470134029  0.5835787459726233  0.182740442140421  1.0000
  N   N13       1.0  0.7723656421643951  0.5223374345914208  0.5843322440871644  1.0000
  N   N14       1.0  0.9379643968385524  0.6879512130557828  0.915608675583229  1.0000
  N   N15       1.0  0.22763239782710804  0.4776609583047104  0.41566668276705326  1.0000
  N   N16       1.0  0.06203598135903834  0.3120510293934871  0.08439222456955518  1.0000
  N   N17       1.0  0.7683136053878881  0.359640765169047  0.5322362025992431  1.0000
  N   N18       1.0  0.8274324129962238  0.7360434193308832  0.9677370460190599  1.0000
  N   N19       1.0  0.2316856714571003  0.6403576319442834  0.46776296795353284  1.0000
  N   N20       1.0  0.1725684712593036  0.26395626830191776  0.03226186877513729  1.0000
  N   N21       1.0  0.638575430174292  0.25317041703050347  0.5390824212657961  1.0000
  N   N22       1.0  0.7141024754928366  0.5994553284693822  0.9608835146211586  1.0000
  N   N23       1.0  0.3614229752149853  0.7468292553824656  0.4609176201169873  1.0000
  N   N24       1.0  0.2858975373069796  0.4005456344630502  0.039116271003045676  1.0000
  N   N25       1.0  0.5526815779168004  0.34331875501942477  0.5962992073026923  1.0000
  N   N26       1.0  0.7469617291221127  0.4562967657116914  0.9036305109084208  1.0000
  N   N27       1.0  0.44731806690560205  0.6566809250034635  0.4037002707857979  1.0000
  N   N28       1.0  0.2530386516551175  0.5437054801302992  0.09636958225150492  1.0000
  O   O1        1.0  0.4782886886183348  0.22331307875826664  0.920075088385502  1.0000
  O   O2        1.0  0.3032029088348409  0.058210763141275386  0.5798966613186991  1.0000
  O   O3        1.0  0.5217084799174572  0.7766865894374887  0.07992470929871585  1.0000
  O   O4        1.0  0.6967967334079149  0.9417889134888995  0.4201036237626568  1.0000
  O   O5        1.0  0.19361658645060953  0.9461304886171719  0.9130726844900889  1.0000
  O   O6        1.0  0.03296606834544492  0.7804003023259084  0.5867227269281655  1.0000
  O   O7        1.0  0.8063850311801062  0.053871761442017885  0.08692765236839514  1.0000
  O   O8        1.0  0.9670315985093579  0.21959680087524444  0.41327750637605476  1.0000
