data_image0
_chemical_formula_structural       Mn2H22C18N18O4
_chemical_formula_sum              "Mn2 H22 C18 N18 O4"
_cell_length_a       6.456238136124127
_cell_length_b       10.471865763796265
_cell_length_c       10.471836385320712
_cell_angle_alpha    68.42954504355188
_cell_angle_beta     76.82551038290747
_cell_angle_gamma    76.82567001992682

_space_group_name_H-M_alt    "P 1"
_space_group_IT_number       1

loop_
  _space_group_symop_operation_xyz
  'x, y, z'

loop_
  _atom_site_type_symbol
  _atom_site_label
  _atom_site_symmetry_multiplicity
  _atom_site_fract_x
  _atom_site_fract_y
  _atom_site_fract_z
  _atom_site_occupancy
  Mn  Mn1       1.0  0.7499959013845227  0.4295774784184019  0.570423682558598  1.0000
  Mn  Mn2       1.0  0.2499972260711728  0.5704225327786787  0.42957698320168447  1.0000
  H   H1        1.0  0.6673189917055425  0.34807033873318005  0.3503114034110197  1.0000
  H   H2        1.0  0.8326812518010768  0.649685478483043  0.651932180278074  1.0000
  H   H3        1.0  0.3326820979015324  0.6519296562928787  0.6496862462174349  1.0000
  H   H4        1.0  0.1673174061136677  0.35031140861834587  0.3480698232436268  1.0000
  H   H5        1.0  0.7617652261122244  0.888784292903104  0.8605240542608568  1.0000
  H   H6        1.0  0.7382295911461013  0.13947604032420463  0.11121792310743218  1.0000
  H   H7        1.0  0.23823401332315086  0.1112167497777889  0.139475376263384  1.0000
  H   H8        1.0  0.2617667160128719  0.8605239692564409  0.8887832540298104  1.0000
  H   H9        1.0  0.7500030855790952  0.9077736847750587  0.09222431607635412  1.0000
  H   H10       1.0  0.2500016900456287  0.09222422841905602  0.9077745435096459  1.0000
  H   H11       1.0  0.7469210231157744  0.9969413029167741  0.480754816704028  1.0000
  H   H12       1.0  0.7530773576935345  0.519241602095171  0.0030624421350467167  1.0000
  H   H13       1.0  0.2530824838578738  0.0030618135116782  0.5192432507803062  1.0000
  H   H14       1.0  0.2469215505132425  0.48075424759399965  0.9969408650267796  1.0000
  H   H15       1.0  0.6033140052515336  0.9325797975052482  0.6514436927438182  1.0000
  H   H16       1.0  0.8966849571113897  0.3485544474360509  0.06742300396176391  1.0000
  H   H17       1.0  0.39668949885697197  0.0674233216187474  0.3485553290903455  1.0000
  H   H18       1.0  0.10331503320008295  0.651443483008194  0.9325803374828536  1.0000
  H   H19       1.0  0.8895411489482682  0.9032679508628334  0.6241920357753159  1.0000
  H   H20       1.0  0.6104583618596136  0.37580602093795074  0.09673524319283897  1.0000
  H   H21       1.0  0.1104641996016369  0.0967341259974148  0.3758071138627058  1.0000
  H   H22       1.0  0.389541631317016  0.6241919068107507  0.9032671439019494  1.0000
  C   C1        1.0  0.7526665123168712  0.11081690109227789  0.7541804845047864  1.0000
  C   C2        1.0  0.7473279991507127  0.2458191842821122  0.8891848713917127  1.0000
  C   C3        1.0  0.2473324710961649  0.8891851843919129  0.24581955107898057  1.0000
  C   C4        1.0  0.2526701553148172  0.7541797803392498  0.11081547919956587  1.0000
  C   C5        1.0  0.7570828300727612  0.9893760536468295  0.8703198105942674  1.0000
  C   C6        1.0  0.7429138624904186  0.12967850304162448  0.010626793028706073  1.0000
  C   C7        1.0  0.2429174971976167  0.0106270643980508  0.12967774551311348  1.0000
  C   C8        1.0  0.2570842919751115  0.8703204615797373  0.9893735575625727  1.0000
  C   C9        1.0  0.7500007079776124  0.00017807148453389987  0.9998212560152169  1.0000
  C   C10       1.0  0.2499990406372773  0.9998208882852994  0.00017791873979422176  1.0000
  C   C11       1.0  0.7437094487597447  0.1106361445014059  0.6147623385020324  1.0000
  C   C12       1.0  0.7562877554489661  0.3852360226530962  0.889366908187  1.0000
  C   C13       1.0  0.2562892843612587  0.8893669783950032  0.3852363934416088  1.0000
  C   C14       1.0  0.24371357871984148  0.6147629403518381  0.11063395378123175  1.0000
  C   C15       1.0  0.7469130360956412  0.9787610854050042  0.5904197175886594  1.0000
  C   C16       1.0  0.7530850760505385  0.4095769196108846  0.02124228429750735  1.0000
  C   C17       1.0  0.25308913561612917  0.021240990376135502  0.4095779663225869  1.0000
  C   C18       1.0  0.2469151731484232  0.5904199653345115  0.9787594977377552  1.0000
  N   N1        1.0  0.3867659078152245  0.4836005607680106  0.6394427780383936  1.0000
  N   N2        1.0  0.11322961838978064  0.360558904931736  0.5164004867474077  1.0000
  N   N3        1.0  0.6132269636181391  0.5164004932323678  0.3605584927814149  1.0000
  N   N4        1.0  0.8867685274802923  0.6394400677762492  0.4836027268933448  1.0000
  N   N5        1.0  0.3106619299239383  0.4074724678399733  0.7513342394291271  1.0000
  N   N6        1.0  0.18934280493672867  0.24865406275273466  0.5925359704946302  1.0000
  N   N7        1.0  0.6893419254692218  0.5925358254069479  0.24865422531866696  1.0000
  N   N8        1.0  0.8106574413970832  0.7513428248882049  0.40746676589046155  1.0000
  N   N9        1.0  0.242636431409494  0.33454528224718416  0.8594447623910708  1.0000
  N   N10       1.0  0.2573578858912811  0.1405595153360011  0.6654503937970446  1.0000
  N   N11       1.0  0.7573611386702551  0.6654495294902105  0.14055911554748948  1.0000
  N   N12       1.0  0.7426389275820638  0.8594384140291281  0.33455148192079065  1.0000
  N   N13       1.0  0.7499983745245514  0.23549037390479552  0.7645112666213548  1.0000
  N   N14       1.0  0.24999901760427423  0.7645117137353877  0.2354889904488502  1.0000
  N   N15       1.0  0.7231598981421994  0.23399205441283047  0.5231391394112421  1.0000
  N   N16       1.0  0.7768388147515777  0.4768595295549645  0.766010665206309  1.0000
  N   N17       1.0  0.2768372436945937  0.7660110706395642  0.47685981401883737  1.0000
  N   N18       1.0  0.2231609252678623  0.5231394383014988  0.23399137259819006  1.0000
  O   O1        1.0  0.7015042340261745  0.24346689642836591  0.391803874934304  1.0000
  O   O2        1.0  0.7984966762723857  0.608194259428643  0.7565367460039667  1.0000
  O   O3        1.0  0.2984995261046635  0.7565351798923245  0.6081945418403335  1.0000
  O   O4        1.0  0.2015014724628372  0.3918047105837985  0.24346551328696356  1.0000
