data_image0
_chemical_formula_structural       Hg4H32C40S4I8N8
_chemical_formula_sum              "Hg4 H32 C40 S4 I8 N8"
_cell_length_a       5.4853359869792575
_cell_length_b       11.929677887001342
_cell_length_c       21.531502264469786
_cell_angle_alpha    89.99996797549635
_cell_angle_beta     92.2046484966656
_cell_angle_gamma    90.00004452042481

_space_group_name_H-M_alt    "P 1"
_space_group_IT_number       1

loop_
  _space_group_symop_operation_xyz
  'x, y, z'

loop_
  _atom_site_type_symbol
  _atom_site_label
  _atom_site_symmetry_multiplicity
  _atom_site_fract_x
  _atom_site_fract_y
  _atom_site_fract_z
  _atom_site_occupancy
  Hg  Hg1       1.0  0.5152832899916718  0.6982021908498623  0.6390040162776317  1.0000
  Hg  Hg2       1.0  0.4847162864906451  0.19820198487845178  0.8609957454796557  1.0000
  Hg  Hg3       1.0  0.4847190070834699  0.3017976579312815  0.3609954988798663  1.0000
  Hg  Hg4       1.0  0.51528054279931  0.8017978639015199  0.1390041846265433  1.0000
  H   H1        1.0  0.9841799029474458  0.5993505224264055  0.5640827501325347  1.0000
  H   H2        1.0  0.0158176842707007  0.0993492372778704  0.9359170240953886  1.0000
  H   H3        1.0  0.0158223941283993  0.4006501646003358  0.4359167650248423  1.0000
  H   H4        1.0  0.9841791450185511  0.9006497732565037  0.0640829060109311  1.0000
  H   H5        1.0  0.2774472239533878  0.6475696789852491  0.4823570608586465  1.0000
  H   H6        1.0  0.7225502550395644  0.1475682269030258  0.0176435803274373  1.0000
  H   H7        1.0  0.7225550784912684  0.35243016979566016  0.517642918785242  1.0000
  H   H8        1.0  0.27744293621892513  0.852430783630247  0.9823572457265328  1.0000
  H   H9        1.0  0.8636490653634893  0.9522527953483717  0.448629999522865  1.0000
  H   H10       1.0  0.1363507354688167  0.4522527790444073  0.0513696398705363  1.0000
  H   H11       1.0  0.13635505609654788  0.0477470534330848  0.5513695321471985  1.0000
  H   H12       1.0  0.8636460884523203  0.547747907981396  0.9486298257491442  1.0000
  H   H13       1.0  0.6008757161629461  0.895619155353984  0.5366846427919967  1.0000
  H   H14       1.0  0.3991241949671717  0.3956179776942435  0.963315525569712  1.0000
  H   H15       1.0  0.39912658091289893  0.10438153167275738  0.4633148723653804  1.0000
  H   H16       1.0  0.6008744640765045  0.6043810328402017  0.036684885535557  1.0000
  H   H17       1.0  0.6261613200195553  0.6859279657751288  0.271002466255446  1.0000
  H   H18       1.0  0.3738325795534364  0.1859278539293499  0.22899859514515702  1.0000
  H   H19       1.0  0.3738336956252298  0.31407272124966573  0.728998376310841  1.0000
  H   H20       1.0  0.6261697175210017  0.8140711566061897  0.7710009200124689  1.0000
  H   H21       1.0  0.8835790782993624  0.696231677246054  0.3677567431559083  1.0000
  H   H22       1.0  0.1164184764896561  0.1962307340480365  0.1322434192761435  1.0000
  H   H23       1.0  0.11641957537689507  0.3037698480254249  0.6322432034626075  1.0000
  H   H24       1.0  0.8835856396001773  0.8037682764880497  0.86775564790765  1.0000
  H   H25       1.0  0.2858331412315565  0.9659572542073745  0.2833558345338147  1.0000
  H   H26       1.0  0.7141666878291771  0.4659581130645236  0.21664426532773717  1.0000
  H   H27       1.0  0.7141655070744831  0.0340434328187413  0.7166436475984312  1.0000
  H   H28       1.0  0.2858392633838847  0.5340400592258163  0.7833557473415241  1.0000
  H   H29       1.0  0.004838545898437001  0.9459609029154805  0.19014918167346911  1.0000
  H   H30       1.0  0.9951630795640583  0.4459617667732658  0.3098514050499119  1.0000
  H   H31       1.0  0.9951619267911056  0.05403810761974629  0.8098503169715912  1.0000
  H   H32       1.0  0.004839228248016501  0.5540355672706101  0.6901490390807297  1.0000
  C   C1        1.0  0.9666247464296092  0.6781238243042008  0.5384322487916791  1.0000
  C   C2        1.0  0.0333747858226019  0.17812168121252364  0.961566589880043  1.0000
  C   C3        1.0  0.03337573163014441  0.3218760244763956  0.4615677143396439  1.0000
  C   C4        1.0  0.9666256761279042  0.8218773293231721  0.038431979792243  1.0000
  C   C5        1.0  0.1295368164887734  0.7049307942040315  0.4925140745654346  1.0000
  C   C6        1.0  0.8704662259641509  0.2049294045221474  0.0074861348538136025  1.0000
  C   C7        1.0  0.8704654859551866  0.2950682163312806  0.5074859050785747  1.0000
  C   C8        1.0  0.1295360818514197  0.7950721207497295  0.9925143092762169  1.0000
  C   C9        1.0  0.09329949827534989  0.8044498369954097  0.45923653519062674  1.0000
  C   C10       1.0  0.9067018857848693  0.3044492647496283  0.0407636285372348  1.0000
  C   C11       1.0  0.906702809538828  0.1955500117852651  0.5407639089396525  1.0000
  C   C12       1.0  0.09329675178074129  0.6955497457857547  0.9592349246224855  1.0000
  C   C13       1.0  0.8983955105379452  0.8743487573440731  0.4739721262564771  1.0000
  C   C14       1.0  0.10160416572345808  0.37434707787470956  0.0260280004648124  1.0000
  C   C15       1.0  0.10160496752251189  0.125651929682121  0.5260278368747251  1.0000
  C   C16       1.0  0.8983926581976788  0.6256536091510938  0.9739714651548751  1.0000
  C   C17       1.0  0.7500340439755957  0.842365446177489  0.521808160095496  1.0000
  C   C18       1.0  0.2499675919771889  0.34236503916187644  0.9781911114197257  1.0000
  C   C19       1.0  0.2499719018686548  0.157633564358683  0.4781913880872537  1.0000
  C   C20       1.0  0.7500292319425482  0.657633971372725  0.021808354200203404  1.0000
  C   C21       1.0  0.7733125920733883  0.7475390409829289  0.2756466977254561  1.0000
  C   C22       1.0  0.22668505366255687  0.24753804369907334  0.22435391414981612  1.0000
  C   C23       1.0  0.22668789135728665  0.25246248428863544  0.724353729892016  1.0000
  C   C24       1.0  0.7733135946420829  0.7524609668358407  0.7756455679826786  1.0000
  C   C25       1.0  0.9177764728364649  0.7536917618205834  0.3298137663207754  1.0000
  C   C26       1.0  0.0822211777944162  0.2536932830086869  0.1701863792637823  1.0000
  C   C27       1.0  0.0822221754688783  0.24630808695993514  0.6701857158115985  1.0000
  C   C28       1.0  0.9177847734193421  0.7463057275272507  0.8298136334053582  1.0000
  C   C29       1.0  0.1050806272561502  0.8335269656564038  0.3339825784187127  1.0000
  C   C30       1.0  0.8949171565336725  0.33352710108971445  0.1660175437585778  1.0000
  C   C31       1.0  0.8949198454354885  0.1664745596156223  0.666016920225978  1.0000
  C   C32       1.0  0.1050833161572626  0.6664735859367141  0.8339819548862338  1.0000
  C   C33       1.0  0.14273223487946038  0.9024416838498863  0.2823978154892047  1.0000
  C   C34       1.0  0.8572674882413338  0.40244259219265643  0.2176023029949334  1.0000
  C   C35       1.0  0.8572664134272756  0.09755984142182682  0.7176016666429206  1.0000
  C   C36       1.0  0.1427311600661056  0.5975597713246614  0.782397179137071  1.0000
  C   C37       1.0  0.9867274766384921  0.8909671149306037  0.2302418718892554  1.0000
  C   C38       1.0  0.0132667649274723  0.3909676730695822  0.2697591293943375  1.0000
  C   C39       1.0  0.013265714621390099  0.10903357209387111  0.769758954164473  1.0000
  C   C40       1.0  0.9867319102254442  0.6090321757097641  0.7302426751699755  1.0000
  S   S1        1.0  0.2969374268877303  0.8464401390687898  0.4011198143511194  1.0000
  S   S2        1.0  0.7030640272095638  0.34643943637302504  0.09888033706531732  1.0000
  S   S3        1.0  0.7030648701874114  0.1535597097123542  0.5988797008063784  1.0000
  S   S4        1.0  0.296936456219008  0.6535595741617399  0.9011200905525172  1.0000
  I   I1        1.0  0.48072077213237197  0.4758785088850885  0.6123938276390177  1.0000
  I   I2        1.0  0.5192774377423105  0.9758784653643106  0.8876053717053692  1.0000
  I   I3        1.0  0.5192778815424859  0.5241213398951956  0.3876061189797468  1.0000
  I   I4        1.0  0.4807212105623292  0.0241205451706037  0.11239411042713239  1.0000
  I   I5        1.0  0.2823408562766545  0.8929701810547571  0.6596484244759253  1.0000
  I   I6        1.0  0.717660869450718  0.39296923980106874  0.8403512966885957  1.0000
  I   I7        1.0  0.7176614461687051  0.1070305059717569  0.3403515551678353  1.0000
  I   I8        1.0  0.2823359544697155  0.6070306089791371  0.1596481689312128  1.0000
  N   N1        1.0  0.7826579453266973  0.7458204991601676  0.5530610201873003  1.0000
  N   N2        1.0  0.2173453593496149  0.2458201121843899  0.9469387606335857  1.0000
  N   N3        1.0  0.21734617613473964  0.25418102611249077  0.44693851148252145  1.0000
  N   N4        1.0  0.7826532996954542  0.7541805748412642  0.05306165047144161  1.0000
  N   N5        1.0  0.8050328614818129  0.8154579209630269  0.2268259942938897  1.0000
  N   N6        1.0  0.19496672192410355  0.3154577014694411  0.2731746141801993  1.0000
  N   N7        1.0  0.1949657921944379  0.184543604308459  0.7731739523246262  1.0000
  N   N8        1.0  0.8050374049033593  0.684539632574982  0.7268253819766173  1.0000
