data_image0
_chemical_formula_structural       Zn4H14C48N4O16F14
_chemical_formula_sum              "Zn4 H14 C48 N4 O16 F14"
_cell_length_a       9.68938568411602
_cell_length_b       11.073883821689842
_cell_length_c       29.006033591490315
_cell_angle_alpha    90.13749074502091
_cell_angle_beta     89.66415830513823
_cell_angle_gamma    89.94544057984241

_space_group_name_H-M_alt    "P 1"
_space_group_IT_number       1

loop_
  _space_group_symop_operation_xyz
  'x, y, z'

loop_
  _atom_site_type_symbol
  _atom_site_label
  _atom_site_symmetry_multiplicity
  _atom_site_fract_x
  _atom_site_fract_y
  _atom_site_fract_z
  _atom_site_occupancy
  Zn  Zn1       1.0  0.6418368031136766  0.4957800420664426  0.4996846618228049  1.0000
  Zn  Zn2       1.0  0.36021934809772915  0.503378181155263  0.4997112292551833  1.0000
  Zn  Zn3       1.0  0.3583924016437408  0.4985298688838429  0.11745801223296583  1.0000
  Zn  Zn4       1.0  0.6399399810079629  0.5056447835193653  0.11744725293552703  1.0000
  H   H1        1.0  0.14455172136283778  0.36256584980866075  0.4529499913026597  1.0000
  H   H2        1.0  0.8570133719785814  0.6368018606173891  0.5453583750789335  1.0000
  H   H3        1.0  0.2887024317094101  0.8751819572291879  0.4990692014508157  1.0000
  H   H4        1.0  0.71263797523779  0.12413349892310072  0.5001995761225686  1.0000
  H   H5        1.0  0.2688153119755512  0.4989446158671668  0.9689582425193208  1.0000
  H   H6        1.0  0.714780529954517  0.5031359135640656  0.9714335852816378  1.0000
  H   H7        1.0  0.28545245990805773  0.5022970658693993  0.6456494474506158  1.0000
  H   H8        1.0  0.7314125908040054  0.49731810793131365  0.6480841019977319  1.0000
  H   H9        1.0  0.7224024176789783  0.503783231726146  0.2661010318684944  1.0000
  H   H10       1.0  0.2777894217419714  0.502260638105632  0.35106884765554014  1.0000
  H   H11       1.0  0.8561408979783706  0.3653108824787734  0.1641180961077211  1.0000
  H   H12       1.0  0.1426751929376806  0.6390082677862878  0.0718377902103668  1.0000
  H   H13       1.0  0.7115561595826279  0.8772319505767642  0.1176564286609292  1.0000
  H   H14       1.0  0.28772711223538033  0.1270255995215877  0.1169624776904925  1.0000
  C   C1        1.0  0.5130315840117704  0.7356373418021109  0.4997703470734863  1.0000
  C   C2        1.0  0.5121263015134332  0.49969224454032707  0.5898696958066766  1.0000
  C   C3        1.0  0.4892373593885466  0.2636896892754734  0.49935752543911605  1.0000
  C   C4        1.0  0.4906690593957208  0.5005910272647113  0.4094841254949841  1.0000
  C   C5        1.0  0.48711987029914633  0.7381201302364813  0.11734861810997901  1.0000
  C   C6        1.0  0.4880486414008018  0.501359681210765  0.0272305364495011  1.0000
  C   C7        1.0  0.5112182076639725  0.2661701156724732  0.1176339690502743  1.0000
  C   C8        1.0  0.509418550697042  0.5031645849895839  0.2076765907063916  1.0000
  C   C9        1.0  0.936424347591533  0.42152664299180725  0.4721799862828959  1.0000
  C   C10       1.0  0.06505494039848259  0.5775295439453814  0.5262106144438619  1.0000
  C   C11       1.0  0.08014158895598908  0.42357323648369766  0.4732824567968806  1.0000
  C   C12       1.0  0.9214482014562648  0.5757357752038955  0.5250502999437928  1.0000
  C   C13       1.0  0.4909159638029833  0.12814214790148526  0.499331975270195  1.0000
  C   C14       1.0  0.5104883087467584  0.8711642519564081  0.4997601901898037  1.0000
  C   C15       1.0  0.3729310074774687  0.0545926194130786  0.49898905894502843  1.0000
  C   C16       1.0  0.6284687807949112  0.9447499079030381  0.5001665805635724  1.0000
  C   C17       1.0  0.38208316815524773  0.929724042132861  0.4992267275933102  1.0000
  C   C18       1.0  0.6192868151142932  0.06957875526804  0.4999113348144065  1.0000
  C   C19       1.0  0.4915146108250354  0.5013207264950451  0.9756076841781722  1.0000
  C   C20       1.0  0.367542778180315  0.5002190975265322  0.9509408413202536  1.0000
  C   C21       1.0  0.3727912771977557  0.5003657527293299  0.9033162831427788  1.0000
  C   C22       1.0  0.49779335230638816  0.5015007375610095  0.8779917088594333  1.0000
  C   C23       1.0  0.6194777027865328  0.5023780579990172  0.9046000899755953  1.0000
  C   C24       1.0  0.618584134717203  0.5023796938470043  0.952274931002208  1.0000
  C   C25       1.0  0.5001068130685269  0.5015105411707808  0.8295512714310789  1.0000
  C   C26       1.0  0.5002359122387219  0.5013198909455951  0.7875130531820105  1.0000
  C   C27       1.0  0.5025084453547919  0.5009088903514893  0.739076084570712  1.0000
  C   C28       1.0  0.38078827134383175  0.5019152945875902  0.7124866935421537  1.0000
  C   C29       1.0  0.38163576406676464  0.5014865340588273  0.6648139437417981  1.0000
  C   C30       1.0  0.5087065056244242  0.5000107005551655  0.6414802769190544  1.0000
  C   C31       1.0  0.632709365307221  0.4988574603776357  0.6661212505335145  1.0000
  C   C32       1.0  0.6274933674915744  0.49929867138165934  0.7137466396621974  1.0000
  C   C33       1.0  0.49873328142558654  0.5018006300256628  0.3577853907718023  1.0000
  C   C34       1.0  0.50145543026683  0.5031352242032411  0.2593807336069673  1.0000
  C   C35       1.0  0.6228404312039758  0.5023216958256  0.3323894500728244  1.0000
  C   C36       1.0  0.3773522660027878  0.5027369701923731  0.2847833301418916  1.0000
  C   C37       1.0  0.6243458462577963  0.5031128094758514  0.2846100148658479  1.0000
  C   C38       1.0  0.37584659539025006  0.5022447588091552  0.33256096731677337  1.0000
  C   C39       1.0  0.0640458489257512  0.424375031923624  0.1449337155849264  1.0000
  C   C40       1.0  0.9348655408022923  0.5797508516077415  0.0909873881059724  1.0000
  C   C41       1.0  0.9203262755895025  0.42621958654899567  0.1438151140597341  1.0000
  C   C42       1.0  0.07847649690598502  0.5780679586891752  0.09212697193052581  1.0000
  C   C43       1.0  0.5094776810507328  0.13060507203682192  0.11759108583871841  1.0000
  C   C44       1.0  0.4897610046993319  0.8736525067421184  0.1172705909198015  1.0000
  C   C45       1.0  0.6274163257440363  0.05680565431053  0.1177974432616296  1.0000
  C   C46       1.0  0.3718175941815289  0.9474871360101391  0.1169808408994442  1.0000
  C   C47       1.0  0.6181999383064182  0.9319463672149696  0.11759692622609211  1.0000
  C   C48       1.0  0.38105887575585484  0.0722976540952374  0.1171654205009958  1.0000
  N   N1        1.0  0.8588814709525747  0.49554925546826223  0.497474533302359  1.0000
  N   N2        1.0  0.14272040904300098  0.503534005695215  0.5009552239104238  1.0000
  N   N3        1.0  0.14134205482350376  0.4982116147075716  0.11966282581993683  1.0000
  N   N4        1.0  0.8574417419233669  0.5058781625216113  0.11618947111816881  1.0000
  O   O1        1.0  0.6290112410883211  0.6823922241275825  0.5016917895923214  1.0000
  O   O2        1.0  0.39545974055003796  0.6842145021249308  0.49775617033883895  1.0000
  O   O3        1.0  0.39627332342804067  0.49785096571395115  0.5692528315083862  1.0000
  O   O4        1.0  0.6304865878557494  0.5012839601864485  0.5704159587685355  1.0000
  O   O5        1.0  0.3736926412705728  0.3177826054074941  0.49659641880129624  1.0000
  O   O6        1.0  0.6068552984061241  0.314319734039529  0.5021838571325503  1.0000
  O   O7        1.0  0.6043870264514126  0.49976790738129745  0.4311044422171975  1.0000
  O   O8        1.0  0.37075087232105375  0.5004343766420476  0.42777845937797576  1.0000
  O   O9        1.0  0.3711524705972806  0.6850480949086801  0.11529831607730051  1.0000
  O   O10       1.0  0.6046478581481125  0.6865155859083529  0.1195465777801843  1.0000
  O   O11       1.0  0.6038890894406491  0.49978751617727823  0.0478615708536694  1.0000
  O   O12       1.0  0.3696834624126097  0.5029646866728043  0.04668372194965541  1.0000
  O   O13       1.0  0.626787188093445  0.3200721585481929  0.1203571598138993  1.0000
  O   O14       1.0  0.39358507839578033  0.31700525317146605  0.11493763177865192  1.0000
  O   O15       1.0  0.3956691148228515  0.503330306371268  0.18606744522809757  1.0000
  O   O16       1.0  0.6293093469522688  0.5028922999913094  0.18936363508940704  1.0000
  F   F1        1.0  0.8717370820770114  0.34277361954485025  0.44509353163837073  1.0000
  F   F2        1.0  0.1298556112566089  0.6556721308968038  0.5536290498018843  1.0000
  F   F3        1.0  0.2440799577210626  0.10339707494295419  0.498541861717932  1.0000
  F   F4        1.0  0.7573949587644648  0.8961639910668143  0.5008196905456472  1.0000
  F   F5        1.0  0.7474503409826454  0.5020548282896726  0.3536035037483175  1.0000
  F   F6        1.0  0.252734345002132  0.5027302213990907  0.2635686955354402  1.0000
  F   F7        1.0  0.12900742136134372  0.3460417144254889  0.17202502393659097  1.0000
  F   F8        1.0  0.8698250879727851  0.6576922457446202  0.0636465762006111  1.0000
  F   F9        1.0  0.7563046763233459  0.1053133219936839  0.1181125859361387  1.0000
  F   F10       1.0  0.24287192064640098  0.8991438182049692  0.1165445721158918  1.0000
  F   F11       1.0  0.742015718941296  0.5031696203196744  0.881862575361275  1.0000
  F   F12       1.0  0.2533635996275905  0.4992182829747733  0.8792702014845802  1.0000
  F   F13       1.0  0.7469449605155348  0.4980169893989128  0.7377749785848594  1.0000
  F   F14       1.0  0.2582833069930501  0.5033325356135876  0.7352402936188582  1.0000
