data_image0
_chemical_formula_structural       Gd2H26C42N12O40
_chemical_formula_sum              "Gd2 H26 C42 N12 O40"
_cell_length_a       9.417607263529947
_cell_length_b       11.932587562181952
_cell_length_c       14.127
_cell_angle_alpha    114.84641440837515
_cell_angle_beta     102.49939378718854
_cell_angle_gamma    97.30398838314755

_space_group_name_H-M_alt    "P 1"
_space_group_IT_number       1

loop_
  _space_group_symop_operation_xyz
  'x, y, z'

loop_
  _atom_site_type_symbol
  _atom_site_label
  _atom_site_symmetry_multiplicity
  _atom_site_fract_x
  _atom_site_fract_y
  _atom_site_fract_z
  _atom_site_occupancy
  Gd  Gd1       1.0  0.7365031686514598  0.0338078301568885  0.5094595073891881  1.0000
  Gd  Gd2       1.0  0.2634975061661748  0.966189691212051  0.49053886082639764  1.0000
  H   H1        1.0  0.2248303838211356  0.2188175860894219  0.42664712531907173  1.0000
  H   H2        1.0  0.7751670453999255  0.7811837466523883  0.5733556666667428  1.0000
  H   H3        1.0  0.2866569965957381  0.5288117867016098  0.3444105987036039  1.0000
  H   H4        1.0  0.7133401564051952  0.4711885931969775  0.6555932309769688  1.0000
  H   H5        1.0  0.6425879187904471  0.3395504443380304  0.3783309760104173  1.0000
  H   H6        1.0  0.3574075941509776  0.6604480298741322  0.6216655699009268  1.0000
  H   H7        1.0  0.1533831687082312  0.6839603890790968  0.12017389905989266  1.0000
  H   H8        1.0  0.8466207689672061  0.3160371322898499  0.8798270635144975  1.0000
  H   H9        1.0  0.3514342685682905  0.5322401165937904  0.8583605805935052  1.0000
  H   H10       1.0  0.6485705150287444  0.4677640746776675  0.1416393319750284  1.0000
  H   H11       1.0  0.6335098507437635  0.7792132668811149  0.1898530091842687  1.0000
  H   H12       1.0  0.366493016573628  0.22078806586068817  0.8101477359535281  1.0000
  H   H13       1.0  0.25271350524415936  0.8849617127104777  0.7259659723739419  1.0000
  H   H14       1.0  0.7472860992154366  0.1150396200313253  0.2740328862694241  1.0000
  H   H15       1.0  0.2711545378419089  0.042966559151786  0.0670326770250966  1.0000
  H   H16       1.0  0.7288417864986555  0.9570309622171536  0.9329650635029055  1.0000
  H   H17       1.0  0.9620375865747873  0.1260811672215993  0.8450626743684992  1.0000
  H   H18       1.0  0.0379631055040761  0.8739201655202109  0.1549349254680195  1.0000
  H   H19       1.0  0.7144404839717993  0.7491491577209999  0.37843285211809524  1.0000
  H   H20       1.0  0.2855585680475485  0.2508502693343715  0.6215673740504146  1.0000
  H   H21       1.0  0.956850931331239  0.314044737124604  0.6759583350913446  1.0000
  H   H22       1.0  0.04314948452750399  0.6859556427739903  0.32404101030429905  1.0000
  H   H23       1.0  0.8928474037108174  0.7988847150812504  0.4181389040584379  1.0000
  H   H24       1.0  0.1071527359278051  0.201114711974121  0.5818600633032249  1.0000
  H   H25       1.0  0.9166779477649101  0.2958835454222779  0.5563440346960251  1.0000
  H   H26       1.0  0.0833221918737124  0.7041158816331006  0.4436549326656305  1.0000
  C   C1        1.0  0.5026906361546821  0.1754489271003621  0.4371759335913269  1.0000
  C   C2        1.0  0.4973092445250344  0.8245533584846569  0.5628282581366406  1.0000
  C   C3        1.0  0.4394911759029583  0.2680700519390129  0.4042622964732559  1.0000
  C   C4        1.0  0.560508980996886  0.731933186489222  0.5957451047461861  1.0000
  C   C5        1.0  0.2938541315241068  0.2796127946610483  0.40541401223154594  1.0000
  C   C6        1.0  0.7061454729354892  0.7203885380807549  0.5945912171911801  1.0000
  C   C7        1.0  0.2421740083709594  0.3738747155181414  0.3847631390419935  1.0000
  C   C8        1.0  0.7578242322492486  0.6261256643804529  0.6152380161029853  1.0000
  C   C9        1.0  0.32856113462220543  0.4557010795595389  0.360350257423832  1.0000
  C   C10       1.0  0.6714373822181159  0.5443002531822643  0.6396526914838747  1.0000
  C   C11       1.0  0.47169078822059163  0.439380780951069  0.357395967035835  1.0000
  C   C12       1.0  0.5283077286197297  0.5606205517907412  0.6426083976006184  1.0000
  C   C13       1.0  0.5291100865527127  0.347778245510618  0.3791689328068841  1.0000
  C   C14       1.0  0.47088870650773623  0.652224040074401  0.6208351019991838  1.0000
  C   C15       1.0  0.4206658333651276  0.8297234857762064  0.28801580600574544  1.0000
  C   C16       1.0  0.5793332186542202  0.17027594127917206  0.7119822965696514  1.0000
  C   C17       1.0  0.3958109088578254  0.7426450499266579  0.16773160301226395  1.0000
  C   C18       1.0  0.6041919584595733  0.2573562828151452  0.8322677263967933  1.0000
  C   C19       1.0  0.2528899434723754  0.6772237875399796  0.09296022955990679  1.0000
  C   C20       1.0  0.7471123714047749  0.3227756395153918  0.9070390516455407  1.0000
  C   C21       1.0  0.2405941478346278  0.6018186339331066  0.9830326147189441  1.0000
  C   C22       1.0  0.7594103422810576  0.3981807931222647  0.01696698033030227  1.0000
  C   C23       1.0  0.3647052045982804  0.5898337719587161  0.944569933462056  1.0000
  C   C24       1.0  0.635297921678017  0.4101647022534394  0.05543054236005671  1.0000
  C   C25       1.0  0.5047039278572996  0.6538562605038933  0.02147837839014947  1.0000
  C   C26       1.0  0.4953016326164317  0.3461393551786145  0.97852355768881  1.0000
  C   C27       1.0  0.5224940480736251  0.7291889980263306  0.1316725534700964  1.0000
  C   C28       1.0  0.4775079905834048  0.2708094761858248  0.8683284732944898  1.0000
  C   C29       1.0  0.04360754068633098  0.9988512509797545  0.6643664725269789  1.0000
  C   C30       1.0  0.9563920465120361  0.0011462703891851  0.3356303230379609  1.0000
  C   C31       1.0  0.1036524075206557  0.0071101160798932  0.7753159674704406  1.0000
  C   C32       1.0  0.8963455568794245  0.9928893109754781  0.22468197818305669  1.0000
  C   C33       1.0  0.21288968231251462  0.9429965344845428  0.7929944513053402  1.0000
  C   C34       1.0  0.7871082820875657  0.057002892570828606  0.20700349434815732  1.0000
  C   C35       1.0  0.2673532108059433  0.9543229817964801  0.8971658955225694  1.0000
  C   C36       1.0  0.7326450298142575  0.0456773981021072  0.10283313602928253  1.0000
  C   C37       1.0  0.22372550576962882  0.032491000831989  0.9856781313163768  1.0000
  C   C38       1.0  0.7762738224698467  0.9675093790666054  0.014320349293001371  1.0000
  C   C39       1.0  0.1131579176231696  0.0927821553422064  0.9643906110880922  1.0000
  C   C40       1.0  0.8868408754372793  0.9072201302428197  0.03560917653173592  1.0000
  C   C41       1.0  0.049949137415382  0.0794795111997004  0.8602932469238883  1.0000
  C   C42       1.0  0.9500493794249465  0.9205218215421097  0.1397054547975785  1.0000
  N   N1        1.0  0.5697961281125217  0.5264153860126584  0.33664828795981094  1.0000
  N   N2        1.0  0.4301999372691441  0.4735849938859289  0.6633539690701228  1.0000
  N   N3        1.0  0.09086328340926998  0.3890544607967215  0.3909443225131072  1.0000
  N   N4        1.0  0.9091333171514222  0.610944013415434  0.6090573353707499  1.0000
  N   N5        1.0  0.6391751269172871  0.6432577854091903  0.9852658390084983  1.0000
  N   N6        1.0  0.360826635519615  0.3567397359597493  0.014734101857726499  1.0000
  N   N7        1.0  0.09237722411808141  0.528757474638283  0.9026436074398775  1.0000
  N   N8        1.0  0.9076280773967513  0.47124099957387244  0.0973550586329069  1.0000
  N   N9        1.0  0.3718685186869735  0.8789130639735275  0.9152949011314464  1.0000
  N   N10       1.0  0.6281283580938393  0.1210863630818508  0.08470288760015879  1.0000
  N   N11       1.0  0.057811096290159  0.1697995196710309  0.0543034460987499  1.0000
  N   N12       1.0  0.9421874205501695  0.8302018130707792  0.9456959634870898  1.0000
  O   O1        1.0  0.6415181712086238  0.1807934247004894  0.4504846022477837  1.0000
  O   O2        1.0  0.35848305604925906  0.8192060023548889  0.5495159377645252  1.0000
  O   O3        1.0  0.413970769815613  0.0994310953054196  0.45179967593470144  1.0000
  O   O4        1.0  0.5860315450615374  0.9005683317499589  0.5482010209994996  1.0000
  O   O5        1.0  0.6932196251399958  0.5062246382596527  0.3277994605206517  1.0000
  O   O6        1.0  0.3067761812827712  0.49377860016858216  0.6722044815537133  1.0000
  O   O7        1.0  0.5257085037950091  0.6186582320944538  0.33186928402390253  1.0000
  O   O8        1.0  0.47428455768775274  0.3813392892744929  0.6681294014671622  1.0000
  O   O9        1.0  0.05255081371572601  0.4814545260092018  0.38369695801019094  1.0000
  O   O10       1.0  0.9474498783631303  0.5185468067326084  0.6163048890125679  1.0000
  O   O11       1.0  0.011243962138209383  0.3085096708812216  0.4035918020030067  1.0000
  O   O12       1.0  0.9887537260417432  0.6914888033309339  0.5964093049383694  1.0000
  O   O13       1.0  0.5525818148398116  0.900028069646325  0.3404139741478857  1.0000
  O   O14       1.0  0.4474188772390519  0.0999732630954782  0.659585749281746  1.0000
  O   O15       1.0  0.310684808913237  0.8257282141703328  0.3257010637840665  1.0000
  O   O16       1.0  0.6893153307253783  0.1742712128850386  0.6742943642557294  1.0000
  O   O17       1.0  0.7610753515446119  0.6759469776301685  0.056686785089389916  1.0000
  O   O18       1.0  0.2389280509518059  0.3240524494252099  0.9433126530379569  1.0000
  O   O19       1.0  0.6241467938096079  0.6026981082217304  0.8862898003869618  1.0000
  O   O20       1.0  0.3758533630902291  0.3973051302065045  0.11370981432437328  1.0000
  O   O21       1.0  0.09146839313695662  0.44557712038654523  0.8117501247993602  1.0000
  O   O22       1.0  0.9085415350750737  0.5544223066688261  0.1882523784524821  1.0000
  O   O23       1.0  0.9789563384521855  0.5524156188553349  0.9289277741592133  1.0000
  O   O24       1.0  0.0210459764249649  0.4475838082000365  0.07107009131749466  1.0000
  O   O25       1.0  0.9269771853326745  0.0388064456695005  0.6482798918227318  1.0000
  O   O26       1.0  0.0730245943654566  0.9611948870723026  0.3517178649356795  1.0000
  O   O27       1.0  0.11420366065462423  0.9532472218052988  0.596144430619603  1.0000
  O   O28       1.0  0.8857931988649597  0.0467483938772091  0.4038527107623224  1.0000
  O   O29       1.0  0.4117173472642861  0.8095289266503302  0.8371194260041437  1.0000
  O   O30       1.0  0.5882798057366471  0.1904714532482572  0.16287944862581583  1.0000
  O   O31       1.0  0.4138518416927255  0.8884881854539372  0.008614873696494342  1.0000
  O   O32       1.0  0.5861469341065018  0.11151028875821821  0.9913828508449074  1.0000
  O   O33       1.0  0.12900073186499839  0.1956892227006151  0.14874960887537717  1.0000
  O   O34       1.0  0.8710002191727639  0.8043092515115404  0.85124984523857  1.0000
  O   O35       1.0  0.9398823691171005  0.20073738606047437  0.029777240427165487  1.0000
  O   O36       1.0  0.060116959122368016  0.7992629938381128  0.9702233637753325  1.0000
  O   O37       1.0  0.7982921332019615  0.8232984639688185  0.4280993861676095  1.0000
  O   O38       1.0  0.20170800643665387  0.1767009630865601  0.5719017047871732  1.0000
  O   O39       1.0  0.9365301377294061  0.2502271098709272  0.5993372986681322  1.0000
  O   O40       1.0  0.06346701527152732  0.7497732700276671  0.4006622838262005  1.0000
