data_image0
_chemical_formula_structural       Zn6H48C56N4O36
_chemical_formula_sum              "Zn6 H48 C56 N4 O36"
_cell_length_a       6.166601545279422
_cell_length_b       15.130712686345626
_cell_length_c       16.568699789060446
_cell_angle_alpha    94.71867498139379
_cell_angle_beta     89.99778908777003
_cell_angle_gamma    101.76142811415818

_space_group_name_H-M_alt    "P 1"
_space_group_IT_number       1

loop_
  _space_group_symop_operation_xyz
  'x, y, z'

loop_
  _atom_site_type_symbol
  _atom_site_label
  _atom_site_symmetry_multiplicity
  _atom_site_fract_x
  _atom_site_fract_y
  _atom_site_fract_z
  _atom_site_occupancy
  Zn  Zn1       1.0  0.5719311169235014  0.3384940354165522  0.7555896706158906  1.0000
  Zn  Zn2       1.0  0.23270070316023347  0.661526831692882  0.7444702600948149  1.0000
  Zn  Zn3       1.0  0.42806732935771663  0.661506191248016  0.24441072792650692  1.0000
  Zn  Zn4       1.0  0.7672990259831213  0.3384727175143994  0.25553008735901284  1.0000
  Zn  Zn5       1.0  0.37630853879344534  0.9999419162541019  0.24994580360681348  1.0000
  Zn  Zn6       1.0  0.6236895689864  5.7633361272699875e-05  0.7500533367924549  1.0000
  H   H1        1.0  0.3551784468820287  0.16570244599614634  0.7245851725330326  1.0000
  H   H2        1.0  0.1892453192363633  0.8343607733679977  0.7754505942774801  1.0000
  H   H3        1.0  0.6448212824036903  0.8342971034246819  0.2754145713892059  1.0000
  H   H4        1.0  0.8107592747093693  0.16563877568274418  0.22455035668208012  1.0000
  H   H5        1.0  0.192710887887742  0.23904110811454876  0.7297683071112077  1.0000
  H   H6        1.0  0.9532275686104796  0.7611165972525383  0.770144713782635  1.0000
  H   H7        1.0  0.8072888413979842  0.7609584413062791  0.2702314368110308  1.0000
  H   H8        1.0  0.0467741209672283  0.23888362945002944  0.22985568474251755  1.0000
  H   H9        1.0  0.43347034383439365  0.48635426881634203  0.7242289846394174  1.0000
  H   H10       1.0  0.9470231305148931  0.5135723631571028  0.7759295131091266  1.0000
  H   H11       1.0  0.5665293854513251  0.5136452806044859  0.27577075928282113  1.0000
  H   H12       1.0  0.05297693755694156  0.4864278637400049  0.22407028189304876  1.0000
  H   H13       1.0  0.257413806664495  0.4366045027752465  0.7900727964979382  1.0000
  H   H14       1.0  0.820404694985406  0.563219671624019  0.7100810592521044  1.0000
  H   H15       1.0  0.7425862612649682  0.5633957239083216  0.20992760203583324  1.0000
  H   H16       1.0  0.17959503444268426  0.4367798780103557  0.28991808113854495  1.0000
  H   H17       1.0  0.27184829523333326  0.14975009004363227  0.20339032507784793  1.0000
  H   H18       1.0  0.12191258839409605  0.8501245580052412  0.2966121775881803  1.0000
  H   H19       1.0  0.7281533946291107  0.8502501370860216  0.7966088663841193  1.0000
  H   H20       1.0  0.8780871407492585  0.1498749912020472  0.7033881698656472  1.0000
  H   H21       1.0  0.08900532274017083  0.0688699812174747  0.16081886121287436  1.0000
  H   H22       1.0  0.01991561182814652  0.9310291467510512  0.33907197534146155  1.0000
  H   H23       1.0  0.9109947453316639  0.9311302456796401  0.8391809337893008  1.0000
  H   H24       1.0  0.9800808743034469  0.0689704028453235  0.6609271650664257  1.0000
  H   H25       1.0  0.8128310620025518  0.08324307015591613  0.5137591734309767  1.0000
  H   H26       1.0  0.7298387974252876  0.9167377299838791  0.9861120968663712  1.0000
  H   H27       1.0  0.18716798999568598  0.9167551247394314  0.4862392612681959  1.0000
  H   H28       1.0  0.2701639087954817  0.08326452957462042  0.013887247835427304  1.0000
  H   H29       1.0  0.03451706199955845  0.47325704056378015  0.5788547920254531  1.0000
  H   H30       1.0  0.561281455251205  0.5268767017276732  0.9207864252089666  1.0000
  H   H31       1.0  0.9654810454955509  0.5267425086245014  0.42114555543699345  1.0000
  H   H32       1.0  0.4387169907452773  0.4731235245098162  0.0792151803966092  1.0000
  H   H33       1.0  0.6408175754743652  0.21522145924730296  0.565862641879072  1.0000
  H   H34       1.0  0.4256538534779892  0.7848384668532803  0.9339577952477853  1.0000
  H   H35       1.0  0.3591814762391366  0.7847767352209588  0.434136999883279  1.0000
  H   H36       1.0  0.5743530395458407  0.215162436955481  0.0660438613946255  1.0000
  H   H37       1.0  0.1680820710758582  0.20524192244553774  0.5849698294121453  1.0000
  H   H38       1.0  0.9627637788926225  0.7949481674732869  0.914825017312346  1.0000
  H   H39       1.0  0.8319173195661168  0.7947569497125501  0.4150292598985601  1.0000
  H   H40       1.0  0.0372359503930966  0.20505138194754124  0.08517472660989263  1.0000
  H   H41       1.0  0.24367692465175853  0.17085433210051093  0.34680461337016777  1.0000
  H   H42       1.0  0.07273335234680181  0.8293087777115249  0.15297326793808003  1.0000
  H   H43       1.0  0.7563234824909133  0.8291465726999622  0.65319402564878  1.0000
  H   H44       1.0  0.9272673932972497  0.17069280413814886  0.847026629223983  1.0000
  H   H45       1.0  0.27129996160578435  0.4951365724367919  0.45654521975608026  1.0000
  H   H46       1.0  0.7761128419818847  0.5049491156815408  0.04307321621456591  1.0000
  H   H47       1.0  0.728696185597329  0.5048622994697568  0.5434544731034594  1.0000
  H   H48       1.0  0.22388722580521403  0.49505111078848074  0.9569277858507947  1.0000
  C   C1        1.0  0.9255941903483988  0.32097439878499767  0.6574073450518301  1.0000
  C   C2        1.0  0.6043880615363693  0.6792108775303731  0.8423997532032106  1.0000
  C   C3        1.0  0.07440553865259153  0.6790251502087444  0.3425936059335869  1.0000
  C   C4        1.0  0.3956149107611183  0.3207886715013687  0.15760119776497564  1.0000
  C   C5        1.0  0.6134933349529703  0.059306157240378424  0.4051740860701615  1.0000
  C   C6        1.0  0.5544007158289475  0.9406887126905661  0.09470110920011623  1.0000
  C   C7        1.0  0.38650247374877006  0.9406920376169765  0.5948243486462489  1.0000
  C   C8        1.0  0.44560036888594123  0.05931354706247301  0.9052976319787123  1.0000
  C   C9        1.0  0.08169777056653521  0.33734142083571333  0.5886653029869324  1.0000
  C   C10       1.0  0.7443221082017504  0.6628193774473135  0.9110622309313146  1.0000
  C   C11       1.0  0.9183055403746964  0.6626588054587687  0.4113363025927797  1.0000
  C   C12       1.0  0.2556795813759578  0.33718084925525466  0.088938167593831  1.0000
  C   C13       1.0  0.6861861533829412  0.10571522894862544  0.47948715269066616  1.0000
  C   C14       1.0  0.5806737266529325  0.8942902878705824  0.020380385759175102  1.0000
  C   C15       1.0  0.3138116156107884  0.8942836431904695  0.5205119366286584  1.0000
  C   C16       1.0  0.4193250586991227  0.10571061669735121  0.9796188567999736  1.0000
  C   C17       1.0  0.7012098379446033  0.9775314972890147  0.3728685247839253  1.0000
  C   C18       1.0  0.723957297756165  0.022431144241579704  0.12704247978217612  1.0000
  C   C19       1.0  0.29878826983523515  0.022468052326352995  0.6271306156153431  1.0000
  C   C20       1.0  0.27604344788787927  0.9775704376080938  0.8729574173798939  1.0000
  C   C21       1.0  0.11260150535602524  0.4194676545686918  0.5528221835026346  1.0000
  C   C22       1.0  0.6931461173522637  0.5806604084573053  0.9468438601535853  1.0000
  C   C23       1.0  0.887395924424496  0.5805305394534843  0.44717866533152073  1.0000
  C   C24       1.0  0.30685462800705215  0.41934117296528234  0.05315724407166301  1.0000
  C   C25       1.0  0.5916425099290024  0.17841116371882046  0.5073854125165554  1.0000
  C   C26       1.0  0.41330467252592495  0.8216534604779471  0.9924381744235548  1.0000
  C   C27       1.0  0.40835559785083575  0.8215883858965541  0.4926137278827128  1.0000
  C   C28       1.0  0.5866937738976576  0.1783467664001677  0.007561620587246403  1.0000
  C   C29       1.0  0.19171427534731586  0.26975090647815153  0.5578655812604155  1.0000
  C   C30       1.0  0.9219253179790884  0.7304118972641194  0.9418868770379236  1.0000
  C   C31       1.0  0.8082870753019193  0.7302486425345904  0.4421353697163823  1.0000
  C   C32       1.0  0.07807475009273901  0.26958832963298823  0.05811291796425882  1.0000
  C   C33       1.0  0.4324496755343148  0.20513952534945898  0.45995850046708864  1.0000
  C   C34       1.0  0.22724514472012214  0.7949713736760986  0.03982055870205412  1.0000
  C   C35       1.0  0.5675513366135476  0.7948593466140893  0.5400411923665871  1.0000
  C   C36       1.0  0.7727588443627841  0.20503020842511438  0.9601787349111748  1.0000
  C   C37       1.0  0.3254917332190602  0.28115172092035584  0.4895149616943543  1.0000
  C   C38       1.0  0.044255892619439345  0.7189984724691101  0.010238680263242395  1.0000
  C   C39       1.0  0.6745079960666589  0.7188478285004721  0.5104847822278844  1.0000
  C   C40       1.0  0.9557477575349937  0.28100243194227653  0.9897611658016459  1.0000
  C   C41       1.0  0.3699107080208535  0.15462016294799955  0.3858587288269533  1.0000
  C   C42       1.0  0.21527631994593588  0.845481052148273  0.11393092589529631  1.0000
  C   C43       1.0  0.6300890212648725  0.8453793864728285  0.6141410150952851  1.0000
  C   C44       1.0  0.784722804192228  0.15452052989594026  0.8860683677437964  1.0000
  C   C45       1.0  0.34780947803572104  0.36289301827453363  0.4518171392780062  1.0000
  C   C46       1.0  0.9848407208682988  0.6372203633653868  0.047907237480473  1.0000
  C   C47       1.0  0.6521905900361136  0.6371072086225812  0.5481826557241691  1.0000
  C   C48       1.0  0.015160968851780927  0.3627798635507206  0.9520925575130834  1.0000
  C   C49       1.0  0.24390070094894165  0.4315098144948523  0.48506192288813577  1.0000
  C   C50       1.0  0.8123672078759441  0.5686037368664004  0.0146062393601412  1.0000
  C   C51       1.0  0.7560990281944128  0.5684897347124361  0.5149384245656918  1.0000
  C   C52       1.0  0.18763286019588324  0.431396490030707  0.9853935556420411  1.0000
  C   C53       1.0  0.4820022565537768  0.3825172278381573  0.3776883560725396  1.0000
  C   C54       1.0  0.09924644291245949  0.617614434203368  0.12208430525151215  1.0000
  C   C55       1.0  0.5179942292930804  0.6174823213311244  0.6223119913985331  1.0000
  C   C56       1.0  0.9007552466652554  0.38238579249919985  0.8779160932736404  1.0000
  N   N1        1.0  0.4575691830001461  0.08372156623635622  0.35977148023865624  1.0000
  N   N2        1.0  0.3739831171840893  0.916303925892237  0.14007491379207695  1.0000
  N   N3        1.0  0.5424292635658078  0.9162786608552977  0.6402277112405558  1.0000
  N   N4        1.0  0.6260143853058296  0.0836976561329834  0.8599243798556345  1.0000
  O   O1        1.0  0.7675990416833757  0.3650044937473639  0.6617651100378694  1.0000
  O   O2        1.0  0.40232604402953615  0.6352232567106457  0.8381971025803239  1.0000
  O   O3        1.0  0.2324019701797582  0.6349943777890985  0.33823578985899166  1.0000
  O   O4        1.0  0.5976756456905434  0.3647769702054617  0.1618026924132394  1.0000
  O   O5        1.0  0.3372298356439529  0.2274766091298873  0.7491311893623591  1.0000
  O   O6        1.0  0.1094311519372795  0.7726112194544541  0.7508768616342325  1.0000
  O   O7        1.0  0.662771854218491  0.7725236179997668  0.25086800209961524  1.0000
  O   O8        1.0  0.8905734421508245  0.22738832980983403  0.24912348579373866  1.0000
  O   O9        1.0  0.8666735598960645  0.9604393182056941  0.408345055128784  1.0000
  O   O10       1.0  0.906532957215447  0.0395395970076891  0.0915607941796424  1.0000
  O   O11       1.0  0.1333261698167618  0.0395602318557664  0.59165287819868  1.0000
  O   O12       1.0  0.09346616706508128  0.9604619852500705  0.9084378959278612  1.0000
  O   O13       1.0  0.3848370145796168  0.43113234097040026  0.7542842656805818  1.0000
  O   O14       1.0  0.9533122920110204  0.5687782057682753  0.7458938023429058  1.0000
  O   O15       1.0  0.6151610930578572  0.5688672084314276  0.24571547825027554  1.0000
  O   O16       1.0  0.04668939770905924  0.43122202114783903  0.2541059926506506  1.0000
  O   O17       1.0  0.19452989642794455  0.0868043657989475  0.20875107211665525  1.0000
  O   O18       1.0  0.10756048999864018  0.9130522985352771  0.2911739922696271  1.0000
  O   O19       1.0  0.8054682113518937  0.9131951838164271  0.7912480682826131  1.0000
  O   O20       1.0  0.8924392392870859  0.08694725088555091  0.7088257516526114  1.0000
  O   O21       1.0  0.9473222655909483  0.2639780085600095  0.7073504856972903  1.0000
  O   O22       1.0  0.6828945871928127  0.7361867813708971  0.7924025414269096  1.0000
  O   O23       1.0  0.052677802196143445  0.7360222179100121  0.2926505163680702  1.0000
  O   O24       1.0  0.317106763598794  0.26381276785538443  0.20759780601829905  1.0000
  O   O25       1.0  0.5990228451659192  0.9307091859861885  0.31089902083507337  1.0000
  O   O26       1.0  0.6686029512598284  0.06922924549050442  0.18903286258380095  1.0000
  O   O27       1.0  0.400974585041702  0.0692890086766269  0.6891000174043145  1.0000
  O   O28       1.0  0.33139549487901837  0.9307709809605171  0.8109681394901784  1.0000
  O   O29       1.0  0.4280336946245029  0.43805995077728  0.33178037005373545  1.0000
  O   O30       1.0  0.9897535734866808  0.5620036159972132  0.16794515481111466  1.0000
  O   O31       1.0  0.5719644128705996  0.5619395984110085  0.6682199774087112  1.0000
  O   O32       1.0  0.010248454734771366  0.43799728796809495  0.8320558983255709  1.0000
  O   O33       1.0  0.6453866264233881  0.3431017086560786  0.3653163456880293  1.0000
  O   O34       1.0  0.30197101219090444  0.6571168566030396  0.13456742664318716  1.0000
  O   O35       1.0  0.35461344150607493  0.6568985180274896  0.6346840528457421  1.0000
  O   O36       1.0  0.6980326379635287  0.34288404780835446  0.865432419421694  1.0000
