data_image0
_chemical_formula_structural       Zn2H36C50N8O12
_chemical_formula_sum              "Zn2 H36 C50 N8 O12"
_cell_length_a       9.556440633074283
_cell_length_b       10.79587950732013
_cell_length_c       23.740448996335772
_cell_angle_alpha    90.32248701475447
_cell_angle_beta     89.50506490489344
_cell_angle_gamma    89.80894336152292

_space_group_name_H-M_alt    "P 1"
_space_group_IT_number       1

loop_
  _space_group_symop_operation_xyz
  'x, y, z'

loop_
  _atom_site_type_symbol
  _atom_site_label
  _atom_site_symmetry_multiplicity
  _atom_site_fract_x
  _atom_site_fract_y
  _atom_site_fract_z
  _atom_site_occupancy
  Zn  Zn1       1.0  0.6436259741378051  0.49663640938285875  0.5005671235511358  1.0000
  Zn  Zn2       1.0  0.3566165110818885  0.4937535289035326  0.5011138823863632  1.0000
  H   H1        1.0  0.5227124112290297  0.8361420197984872  0.9416319666734126  1.0000
  H   H2        1.0  0.2647544475119473  0.4785636857381377  0.677793427180319  1.0000
  H   H3        1.0  0.711863189484127  0.5150810341175573  0.680871369911529  1.0000
  H   H4        1.0  0.7041139194067368  0.5300428788403766  0.7861170420549756  1.0000
  H   H5        1.0  0.7064419434227174  0.9020849038731171  0.5294478815095616  1.0000
  H   H6        1.0  0.2733468080389869  0.8802232185169959  0.484148885354884  1.0000
  H   H7        1.0  0.5805548326810522  0.8894408052958626  0.5835822595228066  1.0000
  H   H8        1.0  0.3196339309209719  0.9058430516070148  0.5550256727275951  1.0000
  H   H9        1.0  0.5276195159955605  0.10128115736331722  0.5819950990653453  1.0000
  H   H10       1.0  0.3004225176003458  0.11801957442630605  0.5364089751545863  1.0000
  H   H11       1.0  0.6859059373371466  0.11743322948405684  0.5445040579012712  1.0000
  H   H12       1.0  0.28485289873022174  0.09125539099419913  0.4637338616561806  1.0000
  H   H13       1.0  0.6357094558656582  0.8682471624234726  0.4260778017997495  1.0000
  H   H14       1.0  0.4571933684129873  0.8896503954248662  0.4094252204169067  1.0000
  H   H15       1.0  0.1276056618041679  0.6910813719334501  0.4921473917771096  1.0000
  H   H16       1.0  0.8845036416998726  0.6901914605886718  0.4860621730230008  1.0000
  H   H17       1.0  0.1256161271178726  0.5411918628903793  0.4182112350803635  1.0000
  H   H18       1.0  0.8764679297399878  0.5366801512026386  0.4172012243218788  1.0000
  H   H19       1.0  0.11948744575883548  0.3140653257172019  0.5291964867241035  1.0000
  H   H20       1.0  0.8703539364358901  0.3196139180595878  0.5336114401865403  1.0000
  H   H21       1.0  0.124781935562936  0.42183947886461254  0.5855762687197199  1.0000
  H   H22       1.0  0.8753350515263633  0.4346023725811252  0.5870229053286238  1.0000
  H   H23       1.0  0.12645453228576997  0.3818063259132388  0.43420652619509786  1.0000
  H   H24       1.0  0.8789280236048285  0.3792758064180292  0.4355194604450788  1.0000
  H   H25       1.0  0.4085855412126803  0.23004717402621822  0.05730067498004841  1.0000
  H   H26       1.0  0.4108958767389835  0.22190686890417768  0.9510154754459423  1.0000
  H   H27       1.0  0.6724798375278027  0.4371254536092267  0.2069718220736974  1.0000
  H   H28       1.0  0.3059349257038377  0.6313310822924694  0.3279147897888421  1.0000
  H   H29       1.0  0.2915411348190133  0.6487386250855068  0.2229741231806415  1.0000
  H   H30       1.0  0.2554167546289392  0.4965877128289408  0.7828218289265578  1.0000
  H   H31       1.0  0.7815956954695124  0.04707934312330052  0.46512126806635473  1.0000
  H   H32       1.0  0.7600719608792871  0.045101392462029814  0.3909100148665487  1.0000
  H   H33       1.0  0.7416979738454541  0.18648682965405786  0.42869738668963464  1.0000
  H   H34       1.0  0.5128280854363396  0.2122356277398865  0.37906404902725654  1.0000
  H   H35       1.0  0.5330533788719974  0.06541271618328891  0.3459333640420823  1.0000
  H   H36       1.0  0.3781247595520796  0.09952788072823184  0.3847744749498787  1.0000
  C   C1        1.0  0.5014753178152133  0.7349427905912481  0.5018135648943913  1.0000
  C   C2        1.0  0.5066387195867392  0.752638854105378  0.9664241127249086  1.0000
  C   C3        1.0  0.5039695512308668  0.7594907269045451  0.0261036730076398  1.0000
  C   C4        1.0  0.4852797502451621  0.6516005011071829  0.05801698734238411  1.0000
  C   C5        1.0  0.4652714485583616  0.5367246576862784  0.030053434714581308  1.0000
  C   C6        1.0  0.4428466419275947  0.42590111103830025  0.060662095605472616  1.0000
  C   C7        1.0  0.42348060347995176  0.31397456143241  0.0326211726364818  1.0000
  C   C8        1.0  0.4255426957579261  0.309169469564779  0.9734757579830174  1.0000
  C   C9        1.0  0.48989326551688345  0.6567547480621558  0.12045227759649892  1.0000
  C   C10       1.0  0.44064783209524433  0.42775755616351346  0.12291606908597434  1.0000
  C   C11       1.0  0.5929928857618093  0.48146949390587684  0.23339974475638312  1.0000
  C   C12       1.0  0.4979895901940878  0.5172584560920727  0.3896633560237106  1.0000
  C   C13       1.0  0.6026340127445237  0.4742066304613815  0.2922885243642313  1.0000
  C   C14       1.0  0.49674064664100825  0.5276641098801421  0.3265617134886654  1.0000
  C   C15       1.0  0.3863678995520558  0.5904045612838262  0.30082799034120467  1.0000
  C   C16       1.0  0.3779990135197621  0.5995553430088878  0.2425224592029167  1.0000
  C   C17       1.0  0.4809312197274095  0.5431773296088027  0.2091289528755382  1.0000
  C   C18       1.0  0.3551933365891529  0.4989667004480156  0.7602904000742188  1.0000
  C   C19       1.0  0.3604328167121479  0.48808049839857426  0.7018992905965434  1.0000
  C   C20       1.0  0.4891169032367557  0.4921389082199284  0.6732643900137846  1.0000
  C   C21       1.0  0.6128364631249353  0.5084312582379766  0.7036563059966384  1.0000
  C   C22       1.0  0.6083827801023461  0.5178837938970206  0.7621379873850389  1.0000
  C   C23       1.0  0.5002347900816843  0.25731181822222743  0.4910464472484862  1.0000
  C   C24       1.0  0.4794387248536793  0.5127748366689604  0.7899619796633603  1.0000
  C   C25       1.0  0.5997310430107277  0.9296657240807709  0.5418218530944259  1.0000
  C   C26       1.0  0.3494214024482005  0.9272268880802133  0.5113494291064384  1.0000
  C   C27       1.0  0.5838545226579298  0.07158628035074344  0.5435626321613469  1.0000
  C   C28       1.0  0.3482118590885364  0.06822494944512413  0.5005631116793552  1.0000
  C   C29       1.0  0.5396643757133859  0.9172441607937222  0.4391210672037218  1.0000
  C   C30       1.0  0.4961622287617116  0.875313368467964  0.49875500497248754  1.0000
  C   C31       1.0  0.4988933781081001  0.11633074538980287  0.4923902418034843  1.0000
  C   C32       1.0  0.5634486389575385  0.0602080262433375  0.4363077307764627  1.0000
  C   C33       1.0  0.0840503573787998  0.6241090244235326  0.5222598510948657  1.0000
  C   C34       1.0  0.9177016884585997  0.6273903848929481  0.5197684228150053  1.0000
  C   C35       1.0  0.08192340581519632  0.4716621803470888  0.4468121956528819  1.0000
  C   C36       1.0  0.9205811969959966  0.4703075562197939  0.44701336949998455  1.0000
  C   C37       1.0  0.07910194569129908  0.4037428628992997  0.5441519244864069  1.0000
  C   C38       1.0  0.9172443202963478  0.40853274835410514  0.5454290536926933  1.0000
  C   C39       1.0  0.4937855413572264  0.48258692192840874  0.6103725287690338  1.0000
  C   C40       1.0  0.44979240769210793  0.4083435010415928  0.8798557124748002  1.0000
  C   C41       1.0  0.49487579962996603  0.636966124145957  0.8760961425537986  1.0000
  C   C42       1.0  0.48952252163300614  0.6405593072988723  0.9388471847557441  1.0000
  C   C43       1.0  0.46715965610796667  0.5309995479428695  0.970021999822592  1.0000
  C   C44       1.0  0.4470712843845064  0.41604944891189904  0.9423536726233979  1.0000
  C   C45       1.0  0.721032088167746  0.08670082573836173  0.4304444437206669  1.0000
  C   C46       1.0  0.49200753882111303  0.11273325427573871  0.3837872115089668  1.0000
  C   C47       1.0  0.5195006210744565  0.8806241416864184  0.05004186400934431  1.0000
  C   C48       1.0  0.13568231052310858  0.6581882652652598  0.5779923831774312  1.0000
  C   C49       1.0  0.8563175460927253  0.6745585682339837  0.5722175413141671  1.0000
  C   C50       1.0  0.7214600239324013  0.40982865141841557  0.314057536537149  1.0000
  N   N1        1.0  0.4744389383650399  0.5201326044757766  0.8508261393532663  1.0000
  N   N2        1.0  0.4708245812770073  0.5434313247389683  0.1486309110281567  1.0000
  N   N3        1.0  0.13462179061679078  0.49891272982207396  0.5045327860986861  1.0000
  N   N4        1.0  0.8655286051545161  0.5018078634553619  0.5043237143222754  1.0000
  N   N5        1.0  0.5302416963103056  0.985607596710473  0.06147323211846611  1.0000
  N   N6        1.0  0.1694923502804571  0.6886260160083142  0.622969313657812  1.0000
  N   N7        1.0  0.8150774411569798  0.7172888965303771  0.6143469576572687  1.0000
  N   N8        1.0  0.8233533429702858  0.3560690786494193  0.3259057336116342  1.0000
  O   O1        1.0  0.6192388855835703  0.6829342198727419  0.491674209937166  1.0000
  O   O2        1.0  0.3894596221384106  0.6775313861479546  0.5142216671056232  1.0000
  O   O3        1.0  0.6133614918622214  0.487947462649011  0.4122056276454345  1.0000
  O   O4        1.0  0.38255754143121823  0.5385379808839236  0.41502677471279986  1.0000
  O   O5        1.0  0.616276717486592  0.3107723184232612  0.5009855877355349  1.0000
  O   O6        1.0  0.3855894187120086  0.31349298185907776  0.4807002161661416  1.0000
  O   O7        1.0  0.6110308132736434  0.5019318201261599  0.5860808744987338  1.0000
  O   O8        1.0  0.38004433685102157  0.4564748750067409  0.5851932841954124  1.0000
  O   O9        1.0  0.43256799838729165  0.3106073636011858  0.8543061634755773  1.0000
  O   O10       1.0  0.5157811651220711  0.7299062443431695  0.8478330913540334  1.0000
  O   O11       1.0  0.5111553995123117  0.7529877744480095  0.14679081201289532  1.0000
  O   O12       1.0  0.4157379885594707  0.3364230790378572  0.1516916488571809  1.0000
