data_image0
_chemical_formula_structural       Cu2H24C24S2N4O12
_chemical_formula_sum              "Cu2 H24 C24 S2 N4 O12"
_cell_length_a       7.164735758003549
_cell_length_b       10.072723971978219
_cell_length_c       10.072613368937487
_cell_angle_alpha    85.85618057334442
_cell_angle_beta     74.70942151020517
_cell_angle_gamma    74.70938335524555

_space_group_name_H-M_alt    "P 1"
_space_group_IT_number       1

loop_
  _space_group_symop_operation_xyz
  'x, y, z'

loop_
  _atom_site_type_symbol
  _atom_site_label
  _atom_site_symmetry_multiplicity
  _atom_site_fract_x
  _atom_site_fract_y
  _atom_site_fract_z
  _atom_site_occupancy
  Cu  Cu1       1.0  0.24999711937348934  0.1972031627905153  0.8027946955441079  1.0000
  Cu  Cu2       1.0  0.7499998573237078  0.8027948542427694  0.19720306788397568  1.0000
  H   H1        1.0  0.11332497946796849  0.9960735481513084  0.8214688138986757  1.0000
  H   H2        1.0  0.3866627148421599  0.17852932933594454  0.0039274383048351034  1.0000
  H   H3        1.0  0.886662175736447  0.003927648631979301  0.17853142189581916  1.0000
  H   H4        1.0  0.6133223174709812  0.8214698274121588  0.9960713285447864  1.0000
  H   H5        1.0  0.31207644925353856  0.94328261694497  0.8771392897658925  1.0000
  H   H6        1.0  0.1879084622076732  0.12285903513535601  0.05671584400426607  1.0000
  H   H7        1.0  0.6879088636364301  0.05671962886428619  0.12286218378846299  1.0000
  H   H8        1.0  0.812076289528633  0.8771370325516019  0.9432802161406141  1.0000
  H   H9        1.0  0.2809597855457397  0.015315294978094605  0.5556675395773992  1.0000
  H   H10       1.0  0.21903619509818373  0.44432761362560314  0.9846901678508715  1.0000
  H   H11       1.0  0.7190453048349139  0.9846846715521241  0.4443246986876799  1.0000
  H   H12       1.0  0.7809519481374206  0.5556705121138209  0.015313097128185406  1.0000
  H   H13       1.0  0.2914745150245038  0.0650811091623567  0.3074515250040832  1.0000
  H   H14       1.0  0.2085258817725161  0.6925405671856454  0.9349284186166498  1.0000
  H   H15       1.0  0.7085327105712054  0.9349249993049966  0.6925418833380801  1.0000
  H   H16       1.0  0.7914745169693232  0.30745950247985837  0.06507555172343865  1.0000
  H   H17       1.0  0.2818807169539993  0.3054795979016235  0.21764676244870165  1.0000
  H   H18       1.0  0.2181207270635496  0.7823472347607067  0.6945276316664674  1.0000
  H   H19       1.0  0.7181227200530385  0.6945245229764581  0.782352414047487  1.0000
  H   H20       1.0  0.7818941170642616  0.21764859880142506  0.3054761169486041  1.0000
  H   H21       1.0  0.25809774657133017  0.5590772236662361  0.27341793006334564  1.0000
  H   H22       1.0  0.24191170338797713  0.7265760154303039  0.4409247976942367  1.0000
  H   H23       1.0  0.741914248989282  0.44092683728792537  0.7265847261814001  1.0000
  H   H24       1.0  0.7581009996269966  0.2734218854188413  0.559078181030344  1.0000
  C   C1        1.0  0.27546345688267576  0.11860923071343883  0.5135719744968482  1.0000
  C   C2        1.0  0.22452962360027567  0.48642336194755154  0.8813990764755459  1.0000
  C   C3        1.0  0.724541181972903  0.8813917811790618  0.48642324572872286  1.0000
  C   C4        1.0  0.775466541682782  0.5135767295495413  0.11860165710701405  1.0000
  C   C5        1.0  0.2816994714922457  0.14829069900714836  0.3741637590152535  1.0000
  C   C6        1.0  0.21829250009769663  0.625830526075589  0.8517130726234683  1.0000
  C   C7        1.0  0.718307381890625  0.8517123366597943  0.6258299363886763  1.0000
  C   C8        1.0  0.781703262427186  0.3741664980413334  0.14828894594303674  1.0000
  C   C9        1.0  0.2763996562050791  0.28102771691760614  0.3256620541151348  1.0000
  C   C10       1.0  0.22360330464075415  0.6743295900697107  0.7189791346394825  1.0000
  C   C11       1.0  0.7236062635823045  0.7189774148941197  0.6743386031319502  1.0000
  C   C12       1.0  0.7764071838469276  0.3256662870049923  0.2810253689067394  1.0000
  C   C13       1.0  0.26331628051000416  0.3850742719539184  0.41702142104062995  1.0000
  C   C14       1.0  0.2366853295701077  0.582974574318186  0.614928939619645  1.0000
  C   C15       1.0  0.7366947634625304  0.6149246453997249  0.5829768079107964  1.0000
  C   C16       1.0  0.7633227800970135  0.4170243774640878  0.38507079054138404  1.0000
  C   C17       1.0  0.25720607961441994  0.3454787827058325  0.5554894308251759  1.0000
  C   C18       1.0  0.24279240384661457  0.4445080766751417  0.65452433692014  1.0000
  C   C19       1.0  0.7428003099196017  0.6545211964214275  0.4445075454070348  1.0000
  C   C20       1.0  0.7572152542954312  0.5554919204694074  0.34547837520137376  1.0000
  C   C21       1.0  0.2559479608933231  0.5259725929900796  0.3792719159735185  1.0000
  C   C22       1.0  0.2440597090273897  0.6207250687834289  0.4740269212553798  1.0000
  C   C23       1.0  0.7440623938464199  0.4740283771463893  0.6207252914437049  1.0000
  C   C24       1.0  0.7559533662004227  0.37927590486612683  0.5259757704074275  1.0000
  S   S1        1.0  0.7499958771783641  0.1416017465145387  0.8583989883561071  1.0000
  S   S2        1.0  0.24999448058452595  0.8583984029993205  0.14160275180130807  1.0000
  N   N1        1.0  0.26439220294418664  0.21463891088492204  0.6014025674265041  1.0000
  N   N2        1.0  0.23560973151168702  0.3985922676876044  0.785360558657345  1.0000
  N   N3        1.0  0.7356138143769896  0.7853579954419274  0.39859469586748003  1.0000
  N   N4        1.0  0.7643933515040686  0.6014046730678757  0.21463820584624216  1.0000
  O   O1        1.0  0.2594933158708059  0.9983674907645862  0.8009957675488479  1.0000
  O   O2        1.0  0.24049557868264768  0.19900357033473173  0.0016322064241406913  1.0000
  O   O3        1.0  0.7404945591117454  0.0016316478156283983  0.19900449185767838  1.0000
  O   O4        1.0  0.7594923879359072  0.8009955519847409  0.9983650592158781  1.0000
  O   O5        1.0  0.6297275805872715  0.15888057995101693  0.7571360388689282  1.0000
  O   O6        1.0  0.8702698369711468  0.24285975913098676  0.8411266158686459  1.0000
  O   O7        1.0  0.37026934734303285  0.8411215498247133  0.24286342153570928  1.0000
  O   O8        1.0  0.12972433327078658  0.757141408493311  0.15888034508462567  1.0000
  O   O9        1.0  0.8885477708143198  0.9974249555636164  0.8466296530256585  1.0000
  O   O10       1.0  0.6114402406414569  0.15336742833771672  0.002577613971268958  1.0000
  O   O11       1.0  0.11144413046462626  0.0025751631853197007  0.1533688417215373  1.0000
  O   O12       1.0  0.3885486223722906  0.8466286391986344  0.9974256746198262  1.0000
