data_image0
_chemical_formula_structural       Zn3H28C42N2O14
_chemical_formula_sum              "Zn3 H28 C42 N2 O14"
_cell_length_a       10.1721862510652
_cell_length_b       10.584599974462769
_cell_length_c       10.601401896074993
_cell_angle_alpha    95.46687384988091
_cell_angle_beta     111.71139905769016
_cell_angle_gamma    111.05967869705893

_space_group_name_H-M_alt    "P 1"
_space_group_IT_number       1

loop_
  _space_group_symop_operation_xyz
  'x, y, z'

loop_
  _atom_site_type_symbol
  _atom_site_label
  _atom_site_symmetry_multiplicity
  _atom_site_fract_x
  _atom_site_fract_y
  _atom_site_fract_z
  _atom_site_occupancy
  Zn  Zn1       1.0  7.915404224651535e-07  0.5000005533251936  1.1399147651846608e-06  1.0000
  Zn  Zn2       1.0  0.6070865216156845  0.24979930652557408  0.9324656669101826  1.0000
  Zn  Zn3       1.0  0.39291411036415974  0.750204099621335  0.06753932397423063  1.0000
  H   H1        1.0  0.7097302123005064  0.8723449764942328  0.8708181318083489  1.0000
  H   H2        1.0  0.290263274211334  0.1276521369483845  0.12917894751851833  1.0000
  H   H3        1.0  0.36662302680698383  0.39378928378424394  0.6431053364842326  1.0000
  H   H4        1.0  0.6333793980855447  0.6062109644817895  0.3568934384298004  1.0000
  H   H5        1.0  0.35875236403457916  0.9491355511993543  0.8105330035063429  1.0000
  H   H6        1.0  0.6412478954232342  0.050862603904072  0.18947044750655814  1.0000
  H   H7        1.0  0.5829775822560137  0.8123973669957252  0.4558129278867467  1.0000
  H   H8        1.0  0.41702373225498224  0.1876028849399276  0.5441882665540732  1.0000
  H   H9        1.0  0.6964746854681605  0.2352576629756129  0.6579287464408665  1.0000
  H   H10       1.0  0.303527147699853  0.7647436377008885  0.34207178816353684  1.0000
  H   H11       1.0  0.09759448712869563  0.6668946642501936  0.3714640820319275  1.0000
  H   H12       1.0  0.9024109829712471  0.3331076819518656  0.6285397769469155  1.0000
  H   H13       1.0  0.7878647719336128  0.5797383050955317  0.591195890641458  1.0000
  H   H14       1.0  0.21213815387679352  0.420262992560815  0.4088031613354274  1.0000
  H   H15       1.0  0.752576369188631  0.283276935294424  0.3678158085535869  1.0000
  H   H16       1.0  0.24742911865045153  0.7167254102581707  0.6321871135259938  1.0000
  H   H17       1.0  0.06854521044614616  0.8328278442154584  0.6714899117595934  1.0000
  H   H18       1.0  0.931457252035592  0.1671703041981871  0.32850963709901027  1.0000
  H   H19       1.0  0.8393469598055106  0.9208057612843773  0.5047849920074441  1.0000
  H   H20       1.0  0.1606502544448958  0.07919029588301639  0.49521337494063994  1.0000
  H   H21       1.0  0.8158471855441434  0.8741234372455864  0.6547390973483542  1.0000
  H   H22       1.0  0.18415310939194998  0.1258747165589114  0.3452624798660152  1.0000
  H   H23       1.0  0.35880588139499986  0.3407154947674513  0.888345328936495  1.0000
  H   H24       1.0  0.6411907766091716  0.6592816135114886  0.11165292390342069  1.0000
  H   H25       1.0  0.12372609782306647  0.26096861722942316  0.07438510471516219  1.0000
  H   H26       1.0  0.8762684260028095  0.7390305936948919  0.925610654938886  1.0000
  H   H27       1.0  0.0696455729460794  0.2413893182169175  0.7580992301539878  1.0000
  H   H28       1.0  0.9303521975505546  0.758605687838937  0.2418992509022573  1.0000
  C   C1        1.0  0.5869737419211203  0.4858683813995909  0.6318133303982448  1.0000
  C   C2        1.0  0.4130290930826561  0.5141350180575371  0.3681877583318708  1.0000
  C   C3        1.0  0.8107292091049345  0.15344508781832641  0.9400074080640265  1.0000
  C   C4        1.0  0.18926685506379204  0.8465551714245405  0.059989956723157406  1.0000
  C   C5        1.0  0.9080335704947657  0.07392671514674018  0.9689474865836514  1.0000
  C   C6        1.0  0.09196143650984824  0.9260735458173528  0.031049487032518627  1.0000
  C   C7        1.0  0.8368957771569329  0.926895245964829  0.9268047432284517  1.0000
  C   C8        1.0  0.16309822590099543  0.0731050147721035  0.07318902851889669  1.0000
  C   C9        1.0  0.4242962411068659  0.44026607083779357  0.5796518861433311  1.0000
  C   C10       1.0  0.5757061284573055  0.5597362779300994  0.42034705172540027  1.0000
  C   C11       1.0  0.2896023917571071  0.0095022515398071  0.794479230371614  1.0000
  C   C12       1.0  0.7103979386572733  0.9904959009657617  0.20552047304421714  1.0000
  C   C13       1.0  0.5482606677211238  0.8952103252499626  0.4760576096871105  1.0000
  C   C14       1.0  0.4517406113115853  0.10478992798461918  0.5239454585522338  1.0000
  C   C15       1.0  0.6580610320012782  0.02874797690352439  0.5635894333130409  1.0000
  C   C16       1.0  0.34194026477057804  0.9712522756816001  0.43641269802704125  1.0000
  C   C17       1.0  0.0448461923490129  0.028563723108597096  0.7003926032192354  1.0000
  C   C18       1.0  0.955154747529022  0.971433376337032  0.2996044036069633  1.0000
  C   C19       1.0  0.6094935491729884  0.1327465297704009  0.5874677604235855  1.0000
  C   C20       1.0  0.39050928794171824  0.8672547711332682  0.41253597604963227  1.0000
  C   C21       1.0  0.05561660866906952  0.5948954203883761  0.4289134499170401  1.0000
  C   C22       1.0  0.9443888061025162  0.40510902631554296  0.5710905720165085  1.0000
  C   C23       1.0  0.6620060980178266  0.5461600024982401  0.5509548735816522  1.0000
  C   C24       1.0  0.3379973109713175  0.4538423451978842  0.44904539235735536  1.0000
  C   C25       1.0  0.8615082982098983  0.3774902102394719  0.4262923192585929  1.0000
  C   C26       1.0  0.13849765506878248  0.6225131860023723  0.5737127536823791  1.0000
  C   C27       1.0  0.12793448066601337  0.9459841461566965  0.7174876391872685  1.0000
  C   C28       1.0  0.872065348830489  0.0540129569585517  0.2825117871657027  1.0000
  C   C29       1.0  0.8703892605557897  0.9630139243860897  0.6165440865571625  1.0000
  C   C30       1.0  0.12961108759773046  0.03698422747000759  0.3834546799594065  1.0000
  C   C31       1.0  0.917107340726325  0.4721783551085323  0.3540868458258045  1.0000
  C   C32       1.0  0.08289757312738305  0.5278250422050734  0.6459168990448844  1.0000
  C   C33       1.0  0.28977690597049843  0.22856185416468833  0.8385216288136377  1.0000
  C   C34       1.0  0.7102218663618842  0.771435250671793  0.16147740636831998  1.0000
  C   C35       1.0  0.07131708464663689  0.1467697883944865  0.042268988060854384  1.0000
  C   C36       1.0  0.9286763997542733  0.85322942360159  0.9577254435229107  1.0000
  C   C37       1.0  0.6771760239020992  0.46130961432058376  0.7686292639389973  1.0000
  C   C38       1.0  0.3228259000725515  0.5386895845551365  0.23136923391217573  1.0000
  C   C39       1.0  0.8340925484381287  0.4401495546941661  0.19708757009731667  1.0000
  C   C40       1.0  0.16590698878839313  0.5598559530263643  0.802916255671505  1.0000
  C   C41       1.0  0.12845178647695124  0.17283240735574174  0.7637779780558702  1.0000
  C   C42       1.0  0.8715460017588228  0.8271625980506485  0.2362195661011057  1.0000
  N   N1        1.0  0.3695727892045895  0.14901853578200527  0.8531605367969701  1.0000
  N   N2        1.0  0.630427004813626  0.850978568632179  0.14684076335453963  1.0000
  O   O1        1.0  0.5916561027617105  0.3859281327152431  0.8207592260925906  1.0000
  O   O2        1.0  0.40834483711631714  0.6140689667303931  0.17923778073360805  1.0000
  O   O3        1.0  0.6648782051843297  0.08789191520398279  0.9098786527280607  1.0000
  O   O4        1.0  0.3351193439988903  0.9121114928592886  0.0901204801469645  1.0000
  O   O5        1.0  0.8248536019634541  0.5122229118739413  0.8186342350108545  1.0000
  O   O6        1.0  0.17514871438329743  0.48777943884234526  0.18136751355567066  1.0000
  O   O7        1.0  0.8714301692993232  0.28339210410732807  0.9481319287878305  1.0000
  O   O8        1.0  0.12857058896543805  0.7166091989398637  0.05186915154482112  1.0000
  O   O9        1.0  0.8163889520485554  0.0675044822009099  0.630658316297392  1.0000
  O   O10       1.0  0.18361238020158055  0.9324957690852784  0.36934194124415126  1.0000
  O   O11       1.0  0.7064947399904965  0.3264240011824029  0.13731381619172106  1.0000
  O   O12       1.0  0.2935015881544771  0.673583611554193  0.8626880621194742  1.0000
  O   O13       1.0  0.892526979857969  0.5235243732097814  0.13438152716351937  1.0000
  O   O14       1.0  0.10747743307786098  0.4764779747135107  0.8656219406443171  1.0000
