data_image0
_chemical_formula_structural       Cu2H28C22Br4N8Cl2
_chemical_formula_sum              "Cu2 H28 C22 Br4 N8 Cl2"
_cell_length_a       3.9968250373277967
_cell_length_b       8.287942899808797
_cell_length_c       21.27012163217771
_cell_angle_alpha    89.99980352621544
_cell_angle_beta     89.9995792415297
_cell_angle_gamma    91.59137606127571

_space_group_name_H-M_alt    "P 1"
_space_group_IT_number       1

loop_
  _space_group_symop_operation_xyz
  'x, y, z'

loop_
  _atom_site_type_symbol
  _atom_site_label
  _atom_site_symmetry_multiplicity
  _atom_site_fract_x
  _atom_site_fract_y
  _atom_site_fract_z
  _atom_site_occupancy
  Cu  Cu1       1.0  0.44355745416861936  0.403463609367691  0.24999987426208042  1.0000
  Cu  Cu2       1.0  0.5564410506965843  0.5965356086317685  0.7500005689433352  1.0000
  H   H1        1.0  0.7303958518550145  0.3286516874001181  0.37750534375661005  1.0000
  H   H2        1.0  0.26962057822905894  0.6713548173803761  0.8775053948047216  1.0000
  H   H3        1.0  0.2696154182071454  0.6713523729407883  0.6224950994367334  1.0000
  H   H4        1.0  0.7303806832720028  0.3286492315990729  0.1224945782524998  1.0000
  H   H5        1.0  0.652354660298762  0.4130971387216962  0.45344190746554613  1.0000
  H   H6        1.0  0.3476559482630819  0.5869026205049156  0.9534429038477582  1.0000
  H   H7        1.0  0.347654107620798  0.5869069187782969  0.5465585357295312  1.0000
  H   H8        1.0  0.6523399272361275  0.41309418058956743  0.0465565990749823  1.0000
  H   H9        1.0  0.03868587452403461  0.45357365672937533  0.4150664076719154  1.0000
  H   H10       1.0  0.9613210556371924  0.5464228332816107  0.915066139214126  1.0000
  H   H11       1.0  0.9613153869491525  0.5464303922435011  0.5849349758144771  1.0000
  H   H12       1.0  0.03867488346442371  0.45357517484271176  0.0849343039938759  1.0000
  H   H13       1.0  0.11331121820639109  0.02407075760850571  0.3465870161955706  1.0000
  H   H14       1.0  0.8866886007721247  0.9759299801969025  0.8465867464222471  1.0000
  H   H15       1.0  0.8866924818534371  0.9759320871863866  0.6534110762885419  1.0000
  H   H16       1.0  0.11330214317204221  0.024064401140741203  0.1534141669348301  1.0000
  H   H17       1.0  0.5062103311827713  0.06898511448260082  0.3116217051391815  1.0000
  H   H18       1.0  0.4937958740099972  0.9310159547904181  0.811622038937472  1.0000
  H   H19       1.0  0.4938006844604601  0.9310141177367445  0.6883754470561742  1.0000
  H   H20       1.0  0.5061925586638267  0.06898204481117183  0.18837840427572422  1.0000
  H   H21       1.0  0.47033934565845203  0.060947878409514517  0.3947261025963442  1.0000
  H   H22       1.0  0.529665759012147  0.9390463842077995  0.8947268461702507  1.0000
  H   H23       1.0  0.5296693586772889  0.9390549720650159  0.6052724600273579  1.0000
  H   H24       1.0  0.470315167224598  0.06095160686886912  0.1052740671912034  1.0000
  H   H25       1.0  0.0801082969849745  0.8673318133094629  0.25000075558548224  1.0000
  H   H26       1.0  0.9198875148746594  0.1326637807464125  0.7499996876242179  1.0000
  H   H27       1.0  0.9688461476511278  0.6545299762935887  0.250001223563423  1.0000
  H   H28       1.0  0.031152293574507415  0.3454680346672634  0.7500001599289591  1.0000
  C   C1        1.0  0.7688058873301387  0.43540870384149605  0.40730244255853176  1.0000
  C   C2        1.0  0.23121173997397906  0.5645951120766668  0.9073026895822738  1.0000
  C   C3        1.0  0.23120538272273453  0.564595356497222  0.5926984707778686  1.0000
  C   C4        1.0  0.7687843899999008  0.4354065171525152  0.0926972834801205  1.0000
  C   C5        1.0  0.6262193867877244  0.5784590309131161  0.3762734738749174  1.0000
  C   C6        1.0  0.37379927599909013  0.4215414530098301  0.8762746553580173  1.0000
  C   C7        1.0  0.3737918832651418  0.4215450294255947  0.62372743946149  1.0000
  C   C8        1.0  0.6262016673784316  0.5784565607941305  0.1237262579895742  1.0000
  C   C9        1.0  0.6260439642859128  0.740376306933584  0.39706215135161227  1.0000
  C   C10       1.0  0.3739737496288741  0.2596215692240024  0.897063079101116  1.0000
  C   C11       1.0  0.3739672421738334  0.2596265463774756  0.6029373515564772  1.0000
  C   C12       1.0  0.6260222530844428  0.7403776459323483  0.1029378342490901  1.0000
  C   C13       1.0  0.4609009053652855  0.831043076356771  0.3522481687491564  1.0000
  C   C14       1.0  0.5391159503776208  0.1689528004497447  0.8522480490941291  1.0000
  C   C15       1.0  0.5391001016610987  0.16895614448797866  0.6477513341684187  1.0000
  C   C16       1.0  0.46087248230548983  0.8310451991540334  0.14775192397600992  1.0000
  C   C17       1.0  0.382863635624645  0.004566918103456901  0.35087266691873964  1.0000
  C   C18       1.0  0.6171382615858577  0.9954289544641314  0.8508746244824935  1.0000
  C   C19       1.0  0.6171425029660823  0.9954347225003207  0.649124955421435  1.0000
  C   C20       1.0  0.38285010744839804  0.004567838098857601  0.14912675901766903  1.0000
  C   C21       1.0  0.17587141248740326  0.744850619761934  0.25000030115160854  1.0000
  C   C22       1.0  0.8241294672784178  0.2551461870099916  0.7500001420537785  1.0000
  Br  Br1       1.0  0.8087643742858364  0.8207184505974471  0.4724959545282489  1.0000
  Br  Br2       1.0  0.19125073994391067  0.17928596490642693  0.9724981828101635  1.0000
  Br  Br3       1.0  0.19124445730117398  0.17928681394771934  0.5275021379506981  1.0000
  Br  Br4       1.0  0.8087452627787002  0.8207132502521193  0.027502260396985903  1.0000
  N   N1        1.0  0.46533797904261576  0.5685979966682169  0.32077884561781644  1.0000
  N   N2        1.0  0.5346753706556483  0.4314029958053994  0.8207793212268727  1.0000
  N   N3        1.0  0.5346704707627054  0.43140002565846924  0.6792220677245808  1.0000
  N   N4        1.0  0.465318066303375  0.5685950094780099  0.17922112198286302  1.0000
  N   N5        1.0  0.36920801838274286  0.7218515416400707  0.3067398677597453  1.0000
  N   N6        1.0  0.6307906824701631  0.2781459434951685  0.8067399453233861  1.0000
  N   N7        1.0  0.6307953635442657  0.2781452679771449  0.6932596351577943  1.0000
  N   N8        1.0  0.36920281812843564  0.7218532688268483  0.193259557599383  1.0000
  Cl  Cl1       1.0  0.933727278825117  0.255445537129326  0.25000010441632986  1.0000
  Cl  Cl2       1.0  0.06627122604008662  0.7445536808701337  0.7500003387890857  1.0000
