data_image0
_chemical_formula_structural       Zn2H12C36N7O18F3
_chemical_formula_sum              "Zn2 H12 C36 N7 O18 F3"
_cell_length_a       11.661335559349201
_cell_length_b       13.132700380764247
_cell_length_c       13.609037582290599
_cell_angle_alpha    85.7973941048881
_cell_angle_beta     60.75320901219244
_cell_angle_gamma    81.4090405233746

_space_group_name_H-M_alt    "P 1"
_space_group_IT_number       1

loop_
  _space_group_symop_operation_xyz
  'x, y, z'

loop_
  _atom_site_type_symbol
  _atom_site_label
  _atom_site_symmetry_multiplicity
  _atom_site_fract_x
  _atom_site_fract_y
  _atom_site_fract_z
  _atom_site_occupancy
  Zn  Zn1       1.0  0.6306861694727459  0.4926632507762817  0.47072930799890134  1.0000
  Zn  Zn2       1.0  0.3582082028374883  0.5113694007024278  0.5359319483451442  1.0000
  H   H1        1.0  0.21727972923405758  0.3101931824614965  0.061002327996291704  1.0000
  H   H2        1.0  0.8679409731165748  0.5688410697355762  0.9164797493614072  1.0000
  H   H3        1.0  0.402588385924318  0.39620467608688864  0.2829417828376961  1.0000
  H   H4        1.0  0.3756558682601537  0.18583921904329512  0.46536282392135314  1.0000
  H   H5        1.0  0.6701032250629239  0.1704000946864781  0.5708603244137934  1.0000
  H   H6        1.0  0.3029242691924097  0.02649037681793939  0.44230524314749425  1.0000
  H   H7        1.0  0.6837288897472573  0.9810602320488043  0.5840947905835137  1.0000
  H   H8        1.0  0.31352435980090115  0.8351311734287561  0.4549137930729543  1.0000
  H   H9        1.0  0.8118516327311271  0.36338571565550376  0.5313234253496829  1.0000
  H   H10       1.0  0.8254574059713276  0.6417982365420583  0.3638229322925285  1.0000
  H   H11       1.0  0.015963734523204192  0.6835278448179662  0.3848881081947654  1.0000
  H   H12       1.0  0.17306206543130287  0.3508531538005712  0.6254374688373687  1.0000
  C   C1        1.0  0.47100765584544024  0.6997161042828849  0.5060448142846568  1.0000
  C   C2        1.0  0.5655435514154376  0.5040664740917435  0.2894924365190051  1.0000
  C   C3        1.0  0.5192256459504845  0.3031141126136063  0.5068586884098919  1.0000
  C   C4        1.0  0.41962819158023007  0.4863207178899103  0.7160740619233081  1.0000
  C   C5        1.0  0.29416409572344554  0.3571754582493156  0.006454905473674414  1.0000
  C   C6        1.0  0.40229131927232226  0.4536499655073598  0.8305351293366883  1.0000
  C   C7        1.0  0.7206661210513658  0.5501891365587425  0.09027623612053756  1.0000
  C   C8        1.0  0.7712060604890991  0.5457139234832837  0.9742401132807147  1.0000
  C   C9        1.0  0.697953971981086  0.5077043348775588  0.9336351159903414  1.0000
  C   C10       1.0  0.5721243686055786  0.47475645555758206  0.005700564970950971  1.0000
  C   C11       1.0  0.5347782776912169  0.46526744498769546  0.12283101260672419  1.0000
  C   C12       1.0  0.481025966582443  0.44883333994998514  0.9705940925643122  1.0000
  C   C13       1.0  0.377916932388409  0.3889468590504278  0.042406051381426856  1.0000
  C   C14       1.0  0.3594343069483798  0.36832552496447585  0.15343009327417434  1.0000
  C   C15       1.0  0.42733991125407994  0.40874373721231183  0.19527720572762775  1.0000
  C   C16       1.0  0.4800462012778296  0.4860490323437006  0.8709030059776879  1.0000
  C   C17       1.0  0.3114281616045531  0.3862959241234164  0.9010802550445121  1.0000
  C   C18       1.0  0.6070009136812899  0.507822697519181  0.16569719550595605  1.0000
  C   C19       1.0  0.5228259179180768  0.18893541590478688  0.5156887283692482  1.0000
  C   C20       1.0  0.4627115988553497  0.8146802356608304  0.5068701588877573  1.0000
  C   C21       1.0  0.3694954542997521  0.9804865005692207  0.4683469290697176  1.0000
  C   C22       1.0  0.3749361463517644  0.8750027192862433  0.47502791299571345  1.0000
  C   C23       1.0  0.5421853006860645  0.8639111681520717  0.5321044382619888  1.0000
  C   C24       1.0  0.5389996611640413  0.9724854255218033  0.5285404463798927  1.0000
  C   C25       1.0  0.4495733711351519  0.031671193243390405  0.4951299174098692  1.0000
  C   C26       1.0  0.443451926382643  0.14021767153833767  0.4902626624482879  1.0000
  C   C27       1.0  0.6096045558539273  0.1302191734886264  0.5500029042477763  1.0000
  C   C28       1.0  0.6166465840231224  0.0247606058335137  0.5574595660272194  1.0000
  C   C29       1.0  0.030340431832250676  0.3754827783056953  0.5661968595459683  1.0000
  C   C30       1.0  0.12895873726223064  0.40228535007743454  0.5829207224222515  1.0000
  C   C31       1.0  0.1282281499575503  0.5577273536868859  0.4932688019738762  1.0000
  C   C32       1.0  0.0264789396415281  0.5389730759221719  0.4710118927456931  1.0000
  C   C33       1.0  0.9736936565134755  0.4438680522989031  0.5103862083042259  1.0000
  C   C34       1.0  0.8632293018710158  0.4307100521435671  0.4978870746275421  1.0000
  C   C35       1.0  0.8714299920854954  0.5889798295377559  0.403917830322122  1.0000
  C   C36       1.0  0.975992227503127  0.6109589328775583  0.41518504637654274  1.0000
  N   N1        1.0  0.8150761787260022  0.5014301133183493  0.4480133191691209  1.0000
  N   N2        1.0  0.17822199848021816  0.4938206124904028  0.5451981341232326  1.0000
  N   N3        1.0  0.2303571329516103  0.34214406462576363  0.8624247379072544  1.0000
  N   N4        1.0  0.6312648313754323  0.8022286061810887  0.5687373647921561  1.0000
  N   N5        1.0  0.9886654959975942  0.27320923749222453  0.6076186905691897  1.0000
  N   N6        1.0  0.7962155058184023  0.5999981757097074  0.13012010544645136  1.0000
  N   N7        1.0  0.7709188192486066  0.48871325291205636  0.8112153944559993  1.0000
  O   O1        1.0  0.5862933457696045  0.6490946858754681  0.4624261357471082  1.0000
  O   O2        1.0  0.3617520069833731  0.6632612434127478  0.5460785487451858  1.0000
  O   O3        1.0  0.6578661673719424  0.473001391416126  0.31280623979815664  1.0000
  O   O4        1.0  0.4444981513795624  0.531631642361468  0.3574572198201409  1.0000
  O   O5        1.0  0.6159633298445257  0.3398344803135983  0.5037913466443342  1.0000
  O   O6        1.0  0.42058115293513504  0.3563054627354134  0.5023666436234677  1.0000
  O   O7        1.0  0.5337333497228512  0.5069064455538665  0.6445726655443167  1.0000
  O   O8        1.0  0.32063336597922637  0.486900613923325  0.7002378942407432  1.0000
  O   O9        1.0  0.10937344926887249  0.3679890256780283  0.9143287074280764  1.0000
  O   O10       1.0  0.2906204457147297  0.2798381386916802  0.7838941525239065  1.0000
  O   O11       1.0  0.5799205142098671  0.751791880863429  0.6564286948788054  1.0000
  O   O12       1.0  0.7518576075880858  0.8075479499295354  0.5102014452702477  1.0000
  O   O13       1.0  0.0122836318725348  0.23353003507560993  0.6820888048602852  1.0000
  O   O14       1.0  0.9353839305536125  0.23307727746798426  0.5631950031342612  1.0000
  O   O15       1.0  0.7332848261025262  0.6681780368635086  0.2021729426152845  1.0000
  O   O16       1.0  0.9168296743358865  0.5717379472376009  0.08591986371612134  1.0000
  O   O17       1.0  0.7555170565034005  0.4092733257606014  0.777397042439226  1.0000
  O   O18       1.0  0.8491922781703989  0.5495026613345004  0.7506509658156517  1.0000
  F   F1        1.0  0.2627409679133308  0.3098194581580244  0.22139735594028312  1.0000
  F   F2        1.0  0.17717543224055984  0.6470312728303044  0.4592289500086366  1.0000
  F   F3        1.0  0.5537734708221506  0.5621463293564871  0.8156734949134403  1.0000
