data_image0
_chemical_formula_structural       Cd2H24C30N6O14
_chemical_formula_sum              "Cd2 H24 C30 N6 O14"
_cell_length_a       7.437229699527758
_cell_length_b       9.918496510253549
_cell_length_c       11.58314694190713
_cell_angle_alpha    90.55560989306986
_cell_angle_beta     93.27265661553223
_cell_angle_gamma    106.8867831483636

_space_group_name_H-M_alt    "P 1"
_space_group_IT_number       1

loop_
  _space_group_symop_operation_xyz
  'x, y, z'

loop_
  _atom_site_type_symbol
  _atom_site_label
  _atom_site_symmetry_multiplicity
  _atom_site_fract_x
  _atom_site_fract_y
  _atom_site_fract_z
  _atom_site_occupancy
  Cd  Cd1       1.0  0.9828515061246037  0.28479617420966713  0.4546332682369893  1.0000
  Cd  Cd2       1.0  0.01714885019704591  0.7152007747897643  0.5453679595369749  1.0000
  H   H1        1.0  0.2350689564709541  0.09872352229555051  0.446075721414715  1.0000
  H   H2        1.0  0.764939135332071  0.9012722445912119  0.5539189434901886  1.0000
  H   H3        1.0  0.3043965493710915  0.22866726627516706  0.3608466463461468  1.0000
  H   H4        1.0  0.6956100691805176  0.7713348870275142  0.6391523032816693  1.0000
  H   H5        1.0  0.47357383061395825  0.8089646993147143  0.46883424769491455  1.0000
  H   H6        1.0  0.5264233314973694  0.19103760636170367  0.5311685909985044  1.0000
  H   H7        1.0  0.6279022196521993  0.9903654128985622  0.1389650921993919  1.0000
  H   H8        1.0  0.37209515501525203  0.009627346781989801  0.8610307973280912  1.0000
  H   H9        1.0  0.2539403397186889  0.5679684668818015  0.1558453059593958  1.0000
  H   H10       1.0  0.7460569794723995  0.4320242909345069  0.8441531712506318  1.0000
  H   H11       1.0  0.8971654565066841  0.06700263114549192  0.6849624560567021  1.0000
  H   H12       1.0  0.10284727938550041  0.9330015372119861  0.3150419622462266  1.0000
  H   H13       1.0  0.2592684881065282  0.4826304494244199  0.6803570114359943  1.0000
  H   H14       1.0  0.7407317296274984  0.5173760480565335  0.3196477152605226  1.0000
  H   H15       1.0  0.2635022862878956  0.38819435892200005  0.9041270816965792  1.0000
  H   H16       1.0  0.7364943354961611  0.6118164426640365  0.09587750521087199  1.0000
  H   H17       1.0  0.19357452598018915  0.3502272548582895  0.0917619736340214  1.0000
  H   H18       1.0  0.8064178040731776  0.6497698274104025  0.9082388909354009  1.0000
  H   H19       1.0  0.9687354779907409  0.29493931930264955  0.1479562445384772  1.0000
  H   H20       1.0  0.03125066075356396  0.7050557454255896  0.85204260159923  1.0000
  H   H21       1.0  0.9919602593433583  0.35365881780502667  0.0035021952185517163  1.0000
  H   H22       1.0  0.008029929519338628  0.6463361815314103  0.9964951073997312  1.0000
  H   H23       1.0  0.019080937610375864  0.9289349417137773  0.7979021066607429  1.0000
  H   H24       1.0  0.9809260857284698  0.0710650798836738  0.20209944001005908  1.0000
  C   C1        1.0  0.6996574507462939  0.0415976347705538  0.37171638073180446  1.0000
  C   C2        1.0  0.30034390942039835  0.9584046104853742  0.6282780139554092  1.0000
  C   C3        1.0  0.23746067705077684  0.5596821018814992  0.3899989952859499  1.0000
  C   C4        1.0  0.7625422037090744  0.4403179820006784  0.6100084077085199  1.0000
  C   C5        1.0  0.34872442964472594  0.6781420201851703  0.31978657527942994  1.0000
  C   C6        1.0  0.6512754633657281  0.32186024293239524  0.6802137967996345  1.0000
  C   C7        1.0  0.46475789119580935  0.8012608169091564  0.3748846536901027  1.0000
  C   C8        1.0  0.5352406856429752  0.1987382847642323  0.6251156416284829  1.0000
  C   C9        1.0  0.5666523821235859  0.9139109489084876  0.31098768909578917  1.0000
  C   C10       1.0  0.433349784569991  0.08609021721409961  0.6890110533429308  1.0000
  C   C11       1.0  0.5516392625312962  0.903587129390452  0.1901518719926472  1.0000
  C   C12       1.0  0.4483633674734762  0.09640872261399383  0.8098477261409728  1.0000
  C   C13       1.0  0.44182456993063834  0.7775430308348775  0.1368473154750376  1.0000
  C   C14       1.0  0.5581736421527523  0.22245501950943952  0.8631495040133289  1.0000
  C   C15       1.0  0.33866732971257824  0.665038430402376  0.199314137604155  1.0000
  C   C16       1.0  0.6613317628661833  0.3349585432942562  0.8006835793923273  1.0000
  C   C17       1.0  0.9960271640186208  0.1674648956790179  0.7121686813848384  1.0000
  C   C18       1.0  0.003979322040543036  0.832540437550911  0.2878354598344544  1.0000
  C   C19       1.0  0.18555214992156274  0.38197615496723364  0.7149715488127484  1.0000
  C   C20       1.0  0.8144466931168354  0.61803036348244  0.2850348424713687  1.0000
  C   C21       1.0  0.18697799014169905  0.33632427582729474  0.8261719148620514  1.0000
  C   C22       1.0  0.8130290301495505  0.6636789300472901  0.1738287854742921  1.0000
  C   C23       1.0  0.03138973642293051  0.10157467221963401  0.9156317406352628  1.0000
  C   C24       1.0  0.9686098503560816  0.8984233571559702  0.08436341426549629  1.0000
  C   C25       1.0  0.022951688300871416  0.1448672540854972  0.030661114813980803  1.0000
  C   C26       1.0  0.9770456063029018  0.8551318716636803  0.9693365322879686  1.0000
  C   C27       1.0  0.04444050893981457  0.29387738378426326  0.0697318624851349  1.0000
  C   C28       1.0  0.9555531927615846  0.7061228617928493  0.9302664911622144  1.0000
  C   C29       1.0  0.00844876293572859  0.9601076275860975  0.8870343952672428  1.0000
  C   C30       1.0  0.9915521245704255  0.0398903783351301  0.11296254528930656  1.0000
  N   N1        1.0  0.06597249580328682  0.27576122833222166  0.6449690361626992  1.0000
  N   N2        1.0  0.9340286424579464  0.7242410094667379  0.35503570925469324  1.0000
  N   N3        1.0  0.06579096023046563  0.19952246433435766  0.8238275025865534  1.0000
  N   N4        1.0  0.9342053614173268  0.800477734955436  0.1761735598115237  1.0000
  N   N5        1.0  0.4474902995901005  0.7580156148711198  0.011036876415985804  1.0000
  N   N6        1.0  0.5525029664350002  0.2419803926141314  0.9889622979790005  1.0000
  O   O1        1.0  0.16214466394945506  0.44188251457993744  0.3367050589063396  1.0000
  O   O2        1.0  0.8378734319310298  0.5581120120999614  0.663302140536338  1.0000
  O   O3        1.0  0.193496277897637  0.16118959890035708  0.38860482937668184  1.0000
  O   O4        1.0  0.8065104176700548  0.8388093726108398  0.6113915163422092  1.0000
  O   O5        1.0  0.22338300496132052  0.582310342855813  0.4970465304996807  1.0000
  O   O6        1.0  0.776607407021551  0.41769844056835137  0.5029569005369083  1.0000
  O   O7        1.0  0.7615194215283126  0.15302682506551693  0.3149468447632913  1.0000
  O   O8        1.0  0.23847521309722475  0.8469755300052955  0.6850489723751636  1.0000
  O   O9        1.0  0.36265089326759903  0.6400109509550661  0.9670404531974057  1.0000
  O   O10       1.0  0.637334816102161  0.3599926134112721  0.03295496578923719  1.0000
  O   O11       1.0  0.5418269683807465  0.8579613536855317  0.9562949601733236  1.0000
  O   O12       1.0  0.45816947031496374  0.14203248077846814  0.043702619528588095  1.0000
  O   O13       1.0  0.750354107396099  0.033234189719756606  0.4781350763816831  1.0000
  O   O14       1.0  0.249660685360766  0.9667678352849762  0.5218573359638938  1.0000
