data_image0
_chemical_formula_structural       Zn2H32C48N10O16
_chemical_formula_sum              "Zn2 H32 C48 N10 O16"
_cell_length_a       12.066025098479706
_cell_length_b       13.294380016321902
_cell_length_c       19.025407925204924
_cell_angle_alpha    89.0259315907704
_cell_angle_beta     88.67100850963662
_cell_angle_gamma    88.77090882560177

_space_group_name_H-M_alt    "P 1"
_space_group_IT_number       1

loop_
  _space_group_symop_operation_xyz
  'x, y, z'

loop_
  _atom_site_type_symbol
  _atom_site_label
  _atom_site_symmetry_multiplicity
  _atom_site_fract_x
  _atom_site_fract_y
  _atom_site_fract_z
  _atom_site_occupancy
  Zn  Zn1       1.0  0.6180675116914714  0.4961622321447194  0.4987023844685083  1.0000
  Zn  Zn2       1.0  0.3816901306550449  0.4951244130957305  0.49804244779246426  1.0000
  H   H1        1.0  0.6752079773566775  0.4966211123262667  0.2623932076816544  1.0000
  H   H2        1.0  0.3489948733416739  0.4401761296058241  0.7386931605136482  1.0000
  H   H3        1.0  0.008987005900159795  0.36565262692501943  0.6113192135620336  1.0000
  H   H4        1.0  0.9877665235927041  0.6293791781846352  0.38099568929002453  1.0000
  H   H5        1.0  0.6595980518717469  0.5405524158857844  0.134503141983835  1.0000
  H   H6        1.0  0.3544178175013641  0.4823299378344999  0.8659133624953484  1.0000
  H   H7        1.0  0.3294372026560878  0.5670637480398071  0.2935025362519211  1.0000
  H   H8        1.0  0.6231416764521143  0.6363194625552425  0.6974666476201818  1.0000
  H   H9        1.0  0.1723642921836941  0.5850981623490058  0.2353378068356307  1.0000
  H   H10       1.0  0.20342841962123254  0.4983888753580317  0.16583821957124198  1.0000
  H   H11       1.0  0.1311533824386757  0.6148855936295661  0.14729592324761137  1.0000
  H   H12       1.0  0.5383809554531921  0.8240652421098389  0.8320709116699163  1.0000
  H   H13       1.0  0.6112450873530122  0.808660960338699  0.7494550096984796  1.0000
  H   H14       1.0  0.685193979716587  0.8431222178208415  0.8260677635240229  1.0000
  H   H15       1.0  0.27931735016019843  0.22582858529165156  0.4477994769558649  1.0000
  H   H16       1.0  0.18324460864192826  0.19756115370957872  0.5191393057588272  1.0000
  H   H17       1.0  0.24118748171740378  0.09744067735653772  0.46749964567241864  1.0000
  H   H18       1.0  0.7240760066599775  0.7547006133917691  0.5565959042090043  1.0000
  H   H19       1.0  0.769281837817239  0.882635201394841  0.5427758108705588  1.0000
  H   H20       1.0  0.8246194232112674  0.7847362439887677  0.4881475347660568  1.0000
  H   H21       1.0  0.6467414193100041  0.18783524314579844  0.3105689476092408  1.0000
  H   H22       1.0  0.7290922877358952  0.2929555323731563  0.3332316032302812  1.0000
  H   H23       1.0  0.5857976264032061  0.29176752264217504  0.3587141991729367  1.0000
  H   H24       1.0  0.18276159257175814  0.8472044883970682  0.5415470828077531  1.0000
  H   H25       1.0  0.1719774087588348  0.8364309119562137  0.6352107290047329  1.0000
  H   H26       1.0  0.17346241914665947  0.724738996870407  0.582923104540974  1.0000
  H   H27       1.0  0.785259424843112  0.5380415206233806  0.6551265882703844  1.0000
  H   H28       1.0  0.7484035219921168  0.41545576634655396  0.6852637256633114  1.0000
  H   H29       1.0  0.8929305074023974  0.4467305995492694  0.6764093019754895  1.0000
  H   H30       1.0  0.2571033256707409  0.7319129737815971  0.42445690920610696  1.0000
  H   H31       1.0  0.11056414169748048  0.7249156755100685  0.443117183085043  1.0000
  H   H32       1.0  0.1623917469193827  0.7122551345428151  0.3541194585350026  1.0000
  C   C1        1.0  0.4898145682747526  0.6935141232440714  0.5075605139096381  1.0000
  C   C2        1.0  0.5131213876847269  0.3000718164870761  0.4910373598618492  1.0000
  C   C3        1.0  0.5220932304226906  0.18718723532109044  0.48284171570961826  1.0000
  C   C4        1.0  0.48602050917100564  0.8055112153182764  0.5197752289873065  1.0000
  C   C5        1.0  0.3801697472679352  0.9563599088786533  0.5570022270275601  1.0000
  C   C6        1.0  0.6336086280977471  0.0365906329800865  0.4516753729444645  1.0000
  C   C7        1.0  0.392554195268076  0.8512489412056966  0.5549434457039553  1.0000
  C   C8        1.0  0.6169720482916218  0.1412386146124902  0.44971248358432797  1.0000
  C   C9        1.0  0.5698274609223475  0.8669662375843217  0.4929273522759985  1.0000
  C   C10       1.0  0.4414439894939264  0.12474795153735131  0.512772230928995  1.0000
  C   C11       1.0  0.5555156121743395  0.9737855342857173  0.488268672603695  1.0000
  C   C12       1.0  0.45794618902262846  0.018427270287418196  0.5189610361222134  1.0000
  C   C13       1.0  0.043724682301288495  0.4161351361197988  0.571471216658139  1.0000
  C   C14       1.0  0.9546746204038997  0.5847446913339099  0.4246852345425934  1.0000
  C   C15       1.0  0.1576488132298834  0.4211153100683164  0.5620236753966665  1.0000
  C   C16       1.0  0.8407877305024273  0.5743875430971458  0.4316936285332247  1.0000
  C   C17       1.0  0.14325417618411512  0.5373230731904641  0.4691279884974691  1.0000
  C   C18       1.0  0.8565322866379573  0.4735086279362903  0.5324166780587588  1.0000
  C   C19       1.0  0.024174781443647906  0.5354147088433124  0.4733160051765992  1.0000
  C   C20       1.0  0.9752911712346021  0.47498459085889533  0.5274024066332785  1.0000
  C   C21       1.0  0.5047466622055126  0.5058773017822773  0.3622996204602842  1.0000
  C   C22       1.0  0.49022823049828185  0.50979243367361  0.6341049411901665  1.0000
  C   C23       1.0  0.5961801355723466  0.5210092651569056  0.24078301499238108  1.0000
  C   C24       1.0  0.4090853172436226  0.49286343339625194  0.7574788985496496  1.0000
  C   C25       1.0  0.5874445380107288  0.5461485403830437  0.169877540725011  1.0000
  C   C26       1.0  0.412607371140247  0.5160412976096183  0.8282136488331986  1.0000
  C   C27       1.0  0.48587624805078633  0.5786060894481935  0.14132158828181218  1.0000
  C   C28       1.0  0.49032178755828687  0.5834875726564377  0.8537313885517009  1.0000
  C   C29       1.0  0.39176211836168306  0.5876037566150174  0.1868454675499009  1.0000
  C   C30       1.0  0.5655731039667771  0.6284591133259312  0.8051328733654088  1.0000
  C   C31       1.0  0.4005582415267385  0.5605142460844235  0.2575450135313773  1.0000
  C   C32       1.0  0.5637462982524967  0.6026563313963822  0.7344284423574974  1.0000
  C   C33       1.0  0.5018469707926201  0.5277196214326096  0.2849093763995114  1.0000
  C   C34       1.0  0.4866659323217847  0.5351147548845604  0.7103701602042845  1.0000
  C   C35       1.0  0.48679715317371836  0.6024618661822956  0.9294606195170232  1.0000
  C   C36       1.0  0.48125084699985626  0.5992235820819332  0.06540675466139588  1.0000
  C   C37       1.0  0.19548920953126014  0.5785254282707655  0.1791473233461787  1.0000
  C   C38       1.0  0.6170556378117951  0.7986963866279454  0.8069353625362722  1.0000
  C   C39       1.0  0.2572159174912656  0.17156278612664977  0.48976257772101656  1.0000
  C   C40       1.0  0.7506644960850012  0.8113596938662654  0.5172918032041948  1.0000
  C   C41       1.0  0.6608759960189802  0.24484097959151538  0.350542087409984  1.0000
  C   C42       1.0  0.20582180970605182  0.8008980432318823  0.5875581054590384  1.0000
  C   C43       1.0  0.2972850943069148  0.9970207489875378  0.6036460171441219  1.0000
  C   C44       1.0  0.7296559854503997  0.9994707932033152  0.4143073007673904  1.0000
  C   C45       1.0  0.8098362053531787  0.4581939543327493  0.6549654051810164  1.0000
  C   C46       1.0  0.1795474446433332  0.6972516790065839  0.4096947336894416  1.0000
  C   C47       1.0  0.7745753108883378  0.6274003761905932  0.38110883533753537  1.0000
  C   C48       1.0  0.22426807315851963  0.3626130904223644  0.609487548253014  1.0000
  N   N1        1.0  0.38500639856121677  0.5863509349318718  0.031735807409312096  1.0000
  N   N2        1.0  0.5778018441552035  0.6320220154051698  0.9629533471799333  1.0000
  N   N3        1.0  0.38652467539019136  0.5922856795889332  0.9627500339092662  1.0000
  N   N4        1.0  0.5737196034305043  0.6344498752094482  0.03230999099910999  1.0000
  N   N5        1.0  0.7923793750978234  0.5197351723736645  0.48566009434858864  1.0000
  N   N6        1.0  0.2065513777193715  0.4815612842132496  0.5115358095670429  1.0000
  N   N7        1.0  0.22896523507364464  0.019562281870754802  0.6454942499958491  1.0000
  N   N8        1.0  0.8110102024911329  0.9776292371566557  0.3830345734336333  1.0000
  N   N9        1.0  0.7353822599201083  0.6777090451692092  0.3369261969778918  1.0000
  N   N10       1.0  0.265797678911781  0.3131520189240007  0.6532122934120039  1.0000
  O   O1        1.0  0.5839560739512634  0.6489293593325911  0.5083789572390386  1.0000
  O   O2        1.0  0.417620591846351  0.3418548483127566  0.48926577708962077  1.0000
  O   O3        1.0  0.3980500909245848  0.6532228452771845  0.4948680470537496  1.0000
  O   O4        1.0  0.6041193692488774  0.3434012652957819  0.5011608591547585  1.0000
  O   O5        1.0  0.5985209218414623  0.4947066362540866  0.39142367140311046  1.0000
  O   O6        1.0  0.3978852784145274  0.5028042917593964  0.6035868458557657  1.0000
  O   O7        1.0  0.41070647054951337  0.5016033013044421  0.393646783235809  1.0000
  O   O8        1.0  0.585851895253164  0.4993983572361174  0.6055365089138431  1.0000
  O   O9        1.0  0.2959122535875096  0.6291005163758427  0.16119381385574627  1.0000
  O   O10       1.0  0.6421246203886283  0.6960414948517483  0.8263779094864673  1.0000
  O   O11       1.0  0.34451766765273106  0.1636054180412927  0.5400336411474029  1.0000
  O   O12       1.0  0.6662454341700155  0.8270070085480727  0.4657835246719059  1.0000
  O   O13       1.0  0.6956529303313133  0.1960502872011887  0.4148072103941232  1.0000
  O   O14       1.0  0.3242992141132461  0.7879927160934842  0.5908223553583055  1.0000
  O   O15       1.0  0.8049503983817131  0.4206233357049101  0.5835456689667848  1.0000
  O   O16       1.0  0.19748562894780966  0.5894072049782153  0.4191511272533504  1.0000
