data_image0
_chemical_formula_structural       Zn4H44C52N8O32
_chemical_formula_sum              "Zn4 H44 C52 N8 O32"
_cell_length_a       9.684336909835501
_cell_length_b       9.849904119995607
_cell_length_c       18.117979976927177
_cell_angle_alpha    79.25020452748201
_cell_angle_beta     74.53843607923972
_cell_angle_gamma    60.573955881411905

_space_group_name_H-M_alt    "P 1"
_space_group_IT_number       1

loop_
  _space_group_symop_operation_xyz
  'x, y, z'

loop_
  _atom_site_type_symbol
  _atom_site_label
  _atom_site_symmetry_multiplicity
  _atom_site_fract_x
  _atom_site_fract_y
  _atom_site_fract_z
  _atom_site_occupancy
  Zn  Zn1       1.0  0.2689166648200896  0.9831600637136548  0.7798858874697814  1.0000
  Zn  Zn2       1.0  0.9679112739386397  0.4831887703150457  0.2798964602199873  1.0000
  Zn  Zn3       1.0  0.7310842160352704  0.016840175876715997  0.22011428829473798  1.0000
  Zn  Zn4       1.0  0.03208756974066018  0.5168126556874244  0.7201040621418785  1.0000
  H   H1        1.0  0.7312034223311841  0.9798796272568708  0.7527709235301785  1.0000
  H   H2        1.0  0.5360123469253465  0.4801033233526369  0.2527830352956996  1.0000
  H   H3        1.0  0.26879745267147825  0.020119470393908  0.2472298541868696  1.0000
  H   H4        1.0  0.46398875882515267  0.5198991408983745  0.7472146820049943  1.0000
  H   H5        1.0  0.5042012532497822  0.33999472692681115  0.5843960466467735  1.0000
  H   H6        1.0  0.5707807338171521  0.8402456571324282  0.08435654185932154  1.0000
  H   H7        1.0  0.4958007381567524  0.6600020349992377  0.415604833421007  1.0000
  H   H8        1.0  0.42921945701385783  0.1597567997455513  0.9156410224369153  1.0000
  H   H9        1.0  0.9524648180519647  0.26740059699816504  0.6306582670321675  1.0000
  H   H10       1.0  0.14897342100772437  0.7674804950006618  0.13079269879626307  1.0000
  H   H11       1.0  0.047539078708197666  0.7325960279410354  0.3693397061453467  1.0000
  H   H12       1.0  0.8510250776594007  0.23252203964560897  0.8692065178314579  1.0000
  H   H13       1.0  0.14527737059452045  0.7762670503199587  0.8827740376429601  1.0000
  H   H14       1.0  0.19607744611255376  0.27589234860865025  0.3827123556139327  1.0000
  H   H15       1.0  0.8547197867735934  0.22373559539040144  0.11722753509786797  1.0000
  H   H16       1.0  0.8039214613760066  0.7241066417817027  0.6172861577538171  1.0000
  H   H17       1.0  0.23797168099923727  0.563027569567602  0.9840453257922945  1.0000
  H   H18       1.0  0.21520226329534606  0.0627311004051307  0.4840064303947287  1.0000
  H   H19       1.0  0.7620228751381929  0.4369762884776237  0.015957144323039057  1.0000
  H   H20       1.0  0.7847970009107784  0.937269065220619  0.5159921848021156  1.0000
  H   H21       1.0  0.6771890400472957  0.6100158705553937  0.9385521482019286  1.0000
  H   H22       1.0  0.7744664181148977  0.10995287749620532  0.438316229327924  1.0000
  H   H23       1.0  0.3228071906959328  0.3899844839027367  0.0614504754394929  1.0000
  H   H24       1.0  0.22553318525070398  0.8900450375461446  0.5616842935555866  1.0000
  H   H25       1.0  0.5660096386452548  0.8175119617687586  0.840383309990699  1.0000
  H   H26       1.0  0.7764156532241133  0.3173904931265953  0.3401856488134952  1.0000
  H   H27       1.0  0.43399087378715256  0.18248481870702457  0.1596179678497904  1.0000
  H   H28       1.0  0.22358212615519332  0.6826085491092826  0.6598139661085796  1.0000
  H   H29       1.0  0.120988576189859  0.2338537006309807  0.8749751114003175  1.0000
  H   H30       1.0  0.7704355667194916  0.7339192154653278  0.37495425936677407  1.0000
  H   H31       1.0  0.8790128687201246  0.7661465130366308  0.1250245135870429  1.0000
  H   H32       1.0  0.22956031315887057  0.2660811056970047  0.6250476604930384  1.0000
  H   H33       1.0  0.13418018797629147  0.0833688661678806  0.9286047678751784  1.0000
  H   H34       1.0  0.8537602564387682  0.5833675409913683  0.4286157635147418  1.0000
  H   H35       1.0  0.8658184542186401  0.9166349029323515  0.07139580514041194  1.0000
  H   H36       1.0  0.1462378738054042  0.41663153454030794  0.5713845551889492  1.0000
  H   H37       1.0  0.4306472703996316  0.8955272499972012  0.6458400714332839  1.0000
  H   H38       1.0  0.027713077468874203  0.3955421931502556  0.1458047269528677  1.0000
  H   H39       1.0  0.5693536046030374  0.1044718476535778  0.35416070628376417  1.0000
  H   H40       1.0  0.9722880107235523  0.604456845281959  0.8541947962054053  1.0000
  H   H41       1.0  0.5173409112625149  0.7308129493340304  0.691337597566374  1.0000
  H   H42       1.0  0.060249000265848396  0.23084489959342142  0.1913505298983722  1.0000
  H   H43       1.0  0.48266257082352837  0.26918607792148924  0.3086616808236471  1.0000
  H   H44       1.0  0.9397509656700087  0.7691553326239173  0.8086494928616972  1.0000
  C   C1        1.0  0.8583162047329934  0.1107580344802628  0.6948528081327794  1.0000
  C   C2        1.0  0.335736457660424  0.6109330049318445  0.1949565769923822  1.0000
  C   C3        1.0  0.14168614924379583  0.889241044620782  0.3051475718115597  1.0000
  C   C4        1.0  0.6642644349003247  0.38906951853773103  0.8050423948670867  1.0000
  C   C5        1.0  0.7319536680089554  0.07268422761236341  0.7095684335921747  1.0000
  C   C6        1.0  0.4854690028835691  0.572946734430765  0.2096222246770267  1.0000
  C   C7        1.0  0.2680486801151433  0.9273137095490827  0.2904325483046932  1.0000
  C   C8        1.0  0.5145311879474405  0.42705572244721435  0.7903753396192102  1.0000
  C   C9        1.0  0.6061549509799209  0.152405695893286  0.6691459589993727  1.0000
  C   C10       1.0  0.5718803864064625  0.6526859499046014  0.16915271749319064  1.0000
  C   C11       1.0  0.39384887611829106  0.8475922227184328  0.33085462512478603  1.0000
  C   C12       1.0  0.4281205003015884  0.3473154316253756  0.8308468563188071  1.0000
  C   C13       1.0  0.60148043659877  0.2764600270887242  0.6161303355236853  1.0000
  C   C14       1.0  0.5053993368104274  0.7766788427414753  0.11613633605826121  1.0000
  C   C15       1.0  0.3985196728648999  0.7235414395825757  0.3838710436242465  1.0000
  C   C16       1.0  0.4945995244269594  0.22332600907979136  0.8838623804460255  1.0000
  C   C17       1.0  0.7258859790528688  0.31628764387843233  0.6045810896222008  1.0000
  C   C18       1.0  0.3526873837854934  0.8164308776648002  0.10464584804353895  1.0000
  C   C19       1.0  0.2741172956961078  0.6837125845352505  0.3954188413740596  1.0000
  C   C20       1.0  0.6473111207343295  0.18357279892106965  0.8953527666316604  1.0000
  C   C21       1.0  0.8567352345906442  0.23370774752585532  0.6411372869684016  1.0000
  C   C22       1.0  0.26793232666910416  0.7338467617138067  0.14124965370899636  1.0000
  C   C23       1.0  0.14326606093884206  0.7662900897482032  0.358861583583618  1.0000
  C   C24       1.0  0.7320665287155846  0.26615694816786123  0.858749664747819  1.0000
  C   C25       1.0  0.9921981240879773  0.025998005856493495  0.739160535018982  1.0000
  C   C26       1.0  0.24255938602923519  0.5259852976672053  0.2392825602879256  1.0000
  C   C27       1.0  0.007805703010241393  0.9739999127552253  0.2608400491051768  1.0000
  C   C28       1.0  0.7574411439612521  0.47401490862737466  0.7607169116949778  1.0000
  C   C29       1.0  0.4766166381827402  0.10349466933775632  0.6831373346419269  1.0000
  C   C30       1.0  0.7363740893610425  0.603738152013598  0.18310232150153646  1.0000
  C   C31       1.0  0.5233810715346147  0.8965056665706472  0.3168648912267855  1.0000
  C   C32       1.0  0.2636279254562622  0.39626317767085345  0.8168961507561363  1.0000
  C   C33       1.0  0.26228912377038643  0.7336056489265561  0.8978833001477114  1.0000
  C   C34       1.0  0.10660097641084576  0.2332832783054855  0.39779662678014927  1.0000
  C   C35       1.0  0.7377078262606672  0.2663981979419675  0.1021189251993633  1.0000
  C   C36       1.0  0.8933982819425881  0.7667157453806582  0.6022025903692168  1.0000
  C   C37       1.0  0.3161513084782542  0.6148282903660062  0.9542956857282903  1.0000
  C   C38       1.0  0.1149836821234089  0.1145672126685895  0.4542238539400074  1.0000
  C   C39       1.0  0.6838452789825381  0.38517323932752134  0.0457070397422257  1.0000
  C   C40       1.0  0.8850163476217147  0.8854305839366319  0.5457741598259532  1.0000
  C   C41       1.0  0.46827984588262644  0.5643474352052067  0.9708670623596732  1.0000
  C   C42       1.0  0.9966389166508945  0.06424157681985321  0.4708129991616018  1.0000
  C   C43       1.0  0.531715976039173  0.435656463508849  0.029136264541719446  1.0000
  C   C44       1.0  0.003360905757162076  0.9357574209435316  0.5291856672105979  1.0000
  C   C45       1.0  0.5584146874415269  0.6406719784526234  0.929453095753061  1.0000
  C   C46       1.0  0.8716973283506845  0.1405543937402811  0.4292859093992121  1.0000
  C   C47       1.0  0.44158246407389595  0.3593295253181453  0.07054907894028868  1.0000
  C   C48       1.0  0.1283032595963646  0.8594422350025754  0.570712155542111  1.0000
  C   C49       1.0  0.4972087976387055  0.7582259061392593  0.873850226695602  1.0000
  C   C50       1.0  0.8710309149368527  0.25809126862368703  0.373686479530889  1.0000
  C   C51       1.0  0.5027913001195755  0.24177327665284307  0.1261523563573803  1.0000
  C   C52       1.0  0.12896722116001752  0.741908948847588  0.6263132372202804  1.0000
  N   N1        1.0  0.7174173142414019  0.4513114932178156  0.5519178758186527  1.0000
  N   N2        1.0  0.2788246380102277  0.9513313981651593  0.05189787454686718  1.0000
  N   N3        1.0  0.2825846888705214  0.5486875525874313  0.44808180034407036  1.0000
  N   N4        1.0  0.7211738665095949  0.048672278420717384  0.948100740128332  1.0000
  N   N5        1.0  0.35175394363725565  0.803246680708597  0.8579930466760856  1.0000
  N   N6        1.0  0.987306843453936  0.30307327843375026  0.3579044991307114  1.0000
  N   N7        1.0  0.6482476330951454  0.1967524835337784  0.14200913860419453  1.0000
  N   N8        1.0  0.012693744493119875  0.6969233503091135  0.6420935658106117  1.0000
  O   O1        1.0  0.0956286787773948  0.07816139022447292  0.7230985319720702  1.0000
  O   O2        1.0  0.10300523116366377  0.5781188403545344  0.2232411396566576  1.0000
  O   O3        1.0  0.9043725529428386  0.9218388826616961  0.2769023475740653  1.0000
  O   O4        1.0  0.896996564611186  0.42188140660887546  0.7767591891123189  1.0000
  O   O5        1.0  0.9961462951095043  0.9156443051173542  0.7881827236580606  1.0000
  O   O6        1.0  0.30016097956847426  0.4156277645486811  0.288277031380197  1.0000
  O   O7        1.0  0.0038557021497212145  0.0843535987482937  0.2118175544571912  1.0000
  O   O8        1.0  0.6998430665721925  0.5843712367840723  0.7117216962326581  1.0000
  O   O9        1.0  0.43481174705298253  0.058822015623931606  0.7529433186467926  1.0000
  O   O10       1.0  0.7532762098603953  0.5590697552599978  0.2528983307952757  1.0000
  O   O11       1.0  0.5651883507052984  0.9411771671681779  0.24705926440619658  1.0000
  O   O12       1.0  0.24672573529495867  0.4409328680969723  0.7471027524090346  1.0000
  O   O13       1.0  0.4204365010038203  0.1060432553044137  0.6271163121620517  1.0000
  O   O14       1.0  0.845907174460841  0.6061597139100598  0.12705088225894906  1.0000
  O   O15       1.0  0.57956176106277  0.8939547708020259  0.3728865668345591  1.0000
  O   O16       1.0  0.15409285528427555  0.39383808269516163  0.8729471315070114  1.0000
  O   O17       1.0  0.583718490178732  0.5513127498912952  0.5383763001944858  1.0000
  O   O18       1.0  0.3262858523228047  0.051218208359678406  0.038205325819774295  1.0000
  O   O19       1.0  0.41628350708049316  0.4486851539743526  0.4616239779207659  1.0000
  O   O20       1.0  0.6737124390072609  0.9487855274447554  0.9617945434142001  1.0000
  O   O21       1.0  0.8465806845762243  0.45824463847448277  0.5231284245039801  1.0000
  O   O22       1.0  0.17136264759935893  0.9582905316896492  0.023173113627890964  1.0000
  O   O23       1.0  0.15342152587275149  0.5417532061726078  0.4768705990524963  1.0000
  O   O24       1.0  0.8286339691249011  0.0417167077018732  0.9768266020799813  1.0000
  O   O25       1.0  0.11799674437678218  0.13375671337199443  0.8771654641039959  1.0000
  O   O26       1.0  0.8711754301112149  0.6337433218661986  0.37720344256182164  1.0000
  O   O27       1.0  0.8820015411005926  0.8662458804928407  0.1228350070825073  1.0000
  O   O28       1.0  0.12882122701153523  0.36625691415480344  0.6227966719620568  1.0000
  O   O29       1.0  0.41048846179623394  0.8163771928772692  0.6820553651326549  1.0000
  O   O30       1.0  0.09077815277833419  0.316453965596594  0.18205550060230274  1.0000
  O   O31       1.0  0.5895144503824883  0.18362071836141072  0.317945065987054  1.0000
  O   O32       1.0  0.9092206850482751  0.6835463184662773  0.8179456237120917  1.0000
