data_image0
_chemical_formula_structural       Mg2H32C48N4O8
_chemical_formula_sum              "Mg2 H32 C48 N4 O8"
_cell_length_a       7.135844843016696
_cell_length_b       12.093078494207518
_cell_length_c       12.169347430750353
_cell_angle_alpha    119.80320289275367
_cell_angle_beta     91.35248456859765
_cell_angle_gamma    89.9927569933351

_space_group_name_H-M_alt    "P 1"
_space_group_IT_number       1

loop_
  _space_group_symop_operation_xyz
  'x, y, z'

loop_
  _atom_site_type_symbol
  _atom_site_label
  _atom_site_symmetry_multiplicity
  _atom_site_fract_x
  _atom_site_fract_y
  _atom_site_fract_z
  _atom_site_occupancy
  Mg  Mg1       1.0  0.2500172819161079  0.1263042552329239  0.9999443483588025  1.0000
  Mg  Mg2       1.0  0.7499880547007152  0.8736946323045202  5.274015761354048e-05  1.0000
  H   H1        1.0  0.7915479334790305  0.0918076489130968  0.312948706134101  1.0000
  H   H2        1.0  0.7080915654146978  0.7786860461307371  0.686911729530685  1.0000
  H   H3        1.0  0.20844742460981538  0.9081902787613884  0.6870617035064583  1.0000
  H   H4        1.0  0.2919136711903505  0.22130807961430315  0.31308135486424504  1.0000
  H   H5        1.0  0.917478788445166  0.22449610438428638  0.5323954178818369  1.0000
  H   H6        1.0  0.5825098600231013  0.6919149797494413  0.46736781410948686  1.0000
  H   H7        1.0  0.08251954894265617  0.7755065940760558  0.46761165453079906  1.0000
  H   H8        1.0  0.4174941067382603  0.308084865680847  0.532628903397459  1.0000
  H   H9        1.0  0.7365120339726586  0.5608355434463234  0.5245798953104241  1.0000
  H   H10       1.0  0.7637241829225584  0.03614744149240318  0.47548547779686595  1.0000
  H   H11       1.0  0.2634876238884587  0.43916144552989067  0.4754186194053176  1.0000
  H   H12       1.0  0.23627002539549835  0.9638552817319663  0.5245141394465733  1.0000
  H   H13       1.0  0.6071808953211499  0.4247426949787538  0.3065662542326422  1.0000
  H   H14       1.0  0.8927949516686552  0.11803090168701398  0.6935455519524822  1.0000
  H   H15       1.0  0.39281306690772755  0.575252392035864  0.6934353282107253  1.0000
  H   H16       1.0  0.10720616305744804  0.8819679919123827  0.30645310980035123  1.0000
  H   H17       1.0  0.7042097854582181  0.6368368601561015  0.7294770484580296  1.0000
  H   H18       1.0  0.7961005228700911  0.9072844443365327  0.2703829639963615  1.0000
  H   H19       1.0  0.2957942092447823  0.3631658358889212  0.2705251904255661  1.0000
  H   H20       1.0  0.20389511243416789  0.09271828083428352  0.7296142137185981  1.0000
  H   H21       1.0  0.10753915239880026  0.34863395954840837  0.6748882619321465  1.0000
  H   H22       1.0  0.3925418721039051  0.6739252763709231  0.3251521358853823  1.0000
  H   H23       1.0  0.8924619668912824  0.6513668316271648  0.3251154486786945  1.0000
  H   H24       1.0  0.6074537846408672  0.32607934977644243  0.6748484491592989  1.0000
  H   H25       1.0  0.20555647740726354  0.48447827865640397  0.9002959001614742  1.0000
  H   H26       1.0  0.2942293003869949  0.5844440778591676  0.09978953147490445  1.0000
  H   H27       1.0  0.7944446652604851  0.5155234655577201  0.09970828296800245  1.0000
  H   H28       1.0  0.7057662862247936  0.4155576891725303  0.9002096360138551  1.0000
  H   H29       1.0  0.0548995732674129  0.7006482655227444  0.02863942245873835  1.0000
  H   H30       1.0  0.4450078105085282  0.6720815764875778  0.9714078451439858  1.0000
  H   H31       1.0  0.9451029879482675  0.2993534789376469  0.9713631419064086  1.0000
  H   H32       1.0  0.5549919194227257  0.3279173236663055  0.028589152316591506  1.0000
  C   C1        1.0  0.6005100593502917  0.16040965312358677  0.16759015556489487  1.0000
  C   C2        1.0  0.899200566826991  0.992625841128827  0.8323803270967359  1.0000
  C   C3        1.0  0.3994854785690336  0.8395911557689929  0.8324110016976719  1.0000
  C   C4        1.0  0.10081056737099198  0.007378762224611498  0.1676147630024687  1.0000
  C   C5        1.0  0.6895028742056724  0.2486159846140126  0.29631515420992116  1.0000
  C   C6        1.0  0.8102946597386305  0.952121402524881  0.7036569095648773  1.0000
  C   C7        1.0  0.3104924410021325  0.7513781411073807  0.7036884407712023  1.0000
  C   C8        1.0  0.18970919013441548  0.04787367771263719  0.2963374453488825  1.0000
  C   C9        1.0  0.7806349747506688  0.1948858632659096  0.3612209866258667  1.0000
  C   C10       1.0  0.7191623979348306  0.8334781127718146  0.6386502401471362  1.0000
  C   C11       1.0  0.21935906217517948  0.805113980440545  0.6387870622314223  1.0000
  C   C12       1.0  0.28084007364448377  0.16651792365836826  0.3613445645213034  1.0000
  C   C13       1.0  0.8502726580090466  0.27004222832634645  0.4840345608475616  1.0000
  C   C14       1.0  0.6497207813770486  0.7858199070188899  0.5157880437995458  1.0000
  C   C15       1.0  0.1497242075743941  0.7299576141724486  0.5159710712452039  1.0000
  C   C16       1.0  0.3502803690392753  0.214178045443262  0.4842044000856163  1.0000
  C   C17       1.0  0.8319554478956803  0.40327579575654227  0.5470960480021745  1.0000
  C   C18       1.0  0.6682254754583142  0.8560623492914274  0.4528237018274268  1.0000
  C   C19       1.0  0.1680428362356921  0.5967240469885126  0.45290796532626126  1.0000
  C   C20       1.0  0.33177290799513764  0.14393846179386569  0.5471733971423234  1.0000
  C   C21       1.0  0.7456810733859385  0.45764424232572753  0.4802166902932682  1.0000
  C   C22       1.0  0.7544121226215877  0.977314176473243  0.5198354905149786  1.0000
  C   C23       1.0  0.254317163990109  0.5423536943422248  0.5197863779978888  1.0000
  C   C24       1.0  0.2455834406125348  0.0226866375199037  0.48016320445514543  1.0000
  C   C25       1.0  0.6747278907312548  0.3814515847276636  0.3570501810823643  1.0000
  C   C26       1.0  0.8252101544992811  0.024264797432621797  0.6430132452108169  1.0000
  C   C27       1.0  0.3252703401436604  0.6185454023021038  0.6429507731618572  1.0000
  C   C28       1.0  0.17479096022682225  0.9757340961667822  0.35698541654201676  1.0000
  C   C29       1.0  0.8210420237063686  0.6005976304367238  0.7609299818835497  1.0000
  C   C30       1.0  0.6792223922157062  0.8396272031688241  0.23899183948787345  1.0000
  C   C31       1.0  0.1789591462133302  0.3994031709399765  0.23906880414241277  1.0000
  C   C32       1.0  0.32077461294401377  0.16037456410914067  0.7610057092365566  1.0000
  C   C33       1.0  0.8992904623883646  0.4815497100432325  0.6798189072874481  1.0000
  C   C34       1.0  0.6009449811653268  0.8017604782054374  0.3201240130167731  1.0000
  C   C35       1.0  0.10071345374338139  0.5184501251859358  0.32018273480437637  1.0000
  C   C36       1.0  0.3990519921784638  0.1982403343337821  0.6798738839531637  1.0000
  C   C37       1.0  0.040051364539422686  0.4397007869072523  0.7326890410577108  1.0000
  C   C38       1.0  0.4600195766815957  0.7071417387638944  0.2673302946448857  1.0000
  C   C39       1.0  0.9599526132870437  0.560301905737397  0.26731483935417794  1.0000
  C   C40       1.0  0.5399788217112444  0.2928600236597702  0.7326680976076502  1.0000
  C   C41       1.0  0.09619355758340478  0.5163426949891061  0.8588311297969469  1.0000
  C   C42       1.0  0.4036855003483665  0.6577105326021027  0.1412279377205222  1.0000
  C   C43       1.0  0.9038061918512168  0.48365905407931814  0.1411722098044236  1.0000
  C   C44       1.0  0.5963128980444735  0.3422912298215621  0.8587704545320066  1.0000
  C   C45       1.0  0.01314458655321719  0.6347447985397279  0.9303986104952244  1.0000
  C   C46       1.0  0.48681749773756877  0.7044414174549585  0.06963064574921411  1.0000
  C   C47       1.0  0.9868607780052513  0.3652569396124433  0.06960399939784166  1.0000
  C   C48       1.0  0.5131822471330735  0.2955584340372965  0.9303676449941491  1.0000
  N   N1        1.0  0.8765232088923439  0.676074996811188  0.8821185610018533  1.0000
  N   N2        1.0  0.6235755865703536  0.7939527188090734  0.11784150993147337  1.0000
  N   N3        1.0  0.12348358915344446  0.32392769292560786  0.11788372340966184  1.0000
  N   N4        1.0  0.376421410151103  0.20604904676870456  0.8821568595570993  1.0000
  O   O1        1.0  0.48568068915251666  0.20927116810230464  0.12226470398152138  1.0000
  O   O2        1.0  0.014140938149182603  0.08675779021761798  0.8777435935186517  1.0000
  O   O3        1.0  0.514325841363572  0.7907219844481972  0.8777361383002003  1.0000
  O   O4        1.0  0.9858726954819659  0.9132344173263929  0.12224539936617859  1.0000
  O   O5        1.0  0.6399806751360729  0.0440688201523187  0.11777547902200781  1.0000
  O   O6        1.0  0.8595919375080355  0.9261366844827066  0.8821743359290366  1.0000
  O   O7        1.0  0.36002596770435247  0.9559272000147772  0.8822226769948996  1.0000
  O   O8        1.0  0.14040516572632103  0.0738707925256534  0.11783015172795791  1.0000
