data_image0
_chemical_formula_structural       Ag4H12C20N8O8
_chemical_formula_sum              "Ag4 H12 C20 N8 O8"
_cell_length_a       6.955703169000514
_cell_length_b       6.870259041003054
_cell_length_c       11.529738120004515
_cell_angle_alpha    90.0001011504188
_cell_angle_beta     90.0000122450519
_cell_angle_gamma    90.00003950001022

_space_group_name_H-M_alt    "P 1"
_space_group_IT_number       1

loop_
  _space_group_symop_operation_xyz
  'x, y, z'

loop_
  _atom_site_type_symbol
  _atom_site_label
  _atom_site_symmetry_multiplicity
  _atom_site_fract_x
  _atom_site_fract_y
  _atom_site_fract_z
  _atom_site_occupancy
  Ag  Ag1       1.0  0.4866583081614094  0.10177569097275102  0.40577599629499866  1.0000
  Ag  Ag2       1.0  0.4866584093286761  0.6017723904731016  0.09422278362584541  1.0000
  Ag  Ag3       1.0  0.9866569282731062  0.8982264742775499  0.5942230532665391  1.0000
  Ag  Ag4       1.0  0.9866582647725508  0.3982224970305027  0.905775398609549  1.0000
  H   H1        1.0  0.5559555425968341  0.30153593491533565  0.8446143476130672  1.0000
  H   H2        1.0  0.5559542283244384  0.8015342702571715  0.6553856825901789  1.0000
  H   H3        1.0  0.055955770405070396  0.6984615410817839  0.1553855151772581  1.0000
  H   H4        1.0  0.0559542093389709  0.19846320573759613  0.34461331287757707  1.0000
  H   H5        1.0  0.0246663544056176  0.4669731620522343  0.6443834878757713  1.0000
  H   H6        1.0  0.0246651129054243  0.9669706320812284  0.8556166505144845  1.0000
  H   H7        1.0  0.524668970316057  0.533031568255339  0.355616370988983  1.0000
  H   H8        1.0  0.5246673364780747  0.033034098226544  0.1443840756724839  1.0000
  H   H9        1.0  0.8367509747720163  0.37546718484721  0.4610245990808508  1.0000
  H   H10       1.0  0.8367510558619032  0.87546954368802  0.038977116142398  1.0000
  H   H11       1.0  0.3367527330030597  0.6245348681210886  0.5389752989766095  1.0000
  H   H12       1.0  0.33675408958312397  0.12453396483256539  0.9610245165606983  1.0000
  C   C1        1.0  0.5190016478228472  0.2606987608317439  0.6600030187603352  1.0000
  C   C2        1.0  0.5190018383155887  0.7606976403686049  0.8399978309489528  1.0000
  C   C3        1.0  0.0190048438398236  0.7393015985854489  0.3399968393907217  1.0000
  C   C4        1.0  0.019003215677450697  0.23930126349886652  0.1600020272012515  1.0000
  C   C5        1.0  0.620449370636699  0.3162296020309512  0.7590330574329441  1.0000
  C   C6        1.0  0.6204495251368414  0.8162267340975549  0.7409661290821603  1.0000
  C   C7        1.0  0.12045105794415181  0.6837679222729846  0.24096594613477862  1.0000
  C   C8        1.0  0.1204494657750033  0.18377079020711312  0.2590337418078619  1.0000
  C   C9        1.0  0.879412413753407  0.4078156004666696  0.6471892982015675  1.0000
  C   C10       1.0  0.8794126089035572  0.9078159733237428  0.8528108849911221  1.0000
  C   C11       1.0  0.3794112085685626  0.5921835733553709  0.3528097378895723  1.0000
  C   C12       1.0  0.3794095757500173  0.09218465604951122  0.14718988574546904  1.0000
  C   C13       1.0  0.7772688605211542  0.35706041552425216  0.5478990652934144  1.0000
  C   C14       1.0  0.7772705294254934  0.857056714419791  0.9521010514074463  1.0000
  C   C15       1.0  0.27726916112585087  0.6429401373406661  0.45210082529290213  1.0000
  C   C16       1.0  0.2772703675593959  0.14294238289701164  0.047898839178280604  1.0000
  C   C17       1.0  0.3205155775565132  0.16911263544932356  0.6703492466483496  1.0000
  C   C18       1.0  0.32051576428879264  0.6691129400316954  0.8296480120137205  1.0000
  C   C19       1.0  0.8205169343506071  0.8308894053580931  0.3296506493701017  1.0000
  C   C20       1.0  0.8205181852865735  0.33088618967787636  0.17035188400328144  1.0000
  N   N1        1.0  0.5998187695436596  0.2804315156593944  0.5542668946151963  1.0000
  N   N2        1.0  0.5998204361350118  0.780432162431403  0.9457331187851851  1.0000
  N   N3        1.0  0.0998205538664507  0.7195689042913858  0.4457329736854874  1.0000
  N   N4        1.0  0.09982032494427528  0.21956825751991  0.0542667495155982  1.0000
  N   N5        1.0  0.8008610577973911  0.38531875877794874  0.7530659272546671  1.0000
  N   N6        1.0  0.8008597767983261  0.8853188195348737  0.7469350896098846  1.0000
  N   N7        1.0  0.30086414133821643  0.6146789006607989  0.24693396629320571  1.0000
  N   N8        1.0  0.3008625469995608  0.11468029545326174  0.2530656712609627  1.0000
  O   O1        1.0  0.2545251364333652  0.147410520586206  0.7709759744953643  1.0000
  O   O2        1.0  0.25452384892479063  0.6474105285465371  0.7290238549010866  1.0000
  O   O3        1.0  0.7545279080209396  0.8525900152427255  0.22902304591237052  1.0000
  O   O4        1.0  0.7545277578609627  0.35259146283232917  0.2709760328297079  1.0000
  O   O5        1.0  0.24082122922969518  0.1187417295668567  0.5749029881769232  1.0000
  O   O6        1.0  0.24082145064932087  0.618735037760146  0.9250959418621036  1.0000
  O   O7        1.0  0.7408212148346252  0.8812602515456406  0.4250960305103462  1.0000
  O   O8        1.0  0.740819555743073  0.3812582100566643  0.0749030768204619  1.0000
