data_image0
_chemical_formula_structural       Mg6H24C24N36
_chemical_formula_sum              "Mg6 H24 C24 N36"
_cell_length_a       12.548845235145622
_cell_length_b       12.548850150407315
_cell_length_c       12.548838975402353
_cell_angle_alpha    60.00001042466228
_cell_angle_beta     60.00002042950237
_cell_angle_gamma    60.00005268055411

_space_group_name_H-M_alt    "P 1"
_space_group_IT_number       1

loop_
  _space_group_symop_operation_xyz
  'x, y, z'

loop_
  _atom_site_type_symbol
  _atom_site_label
  _atom_site_symmetry_multiplicity
  _atom_site_fract_x
  _atom_site_fract_y
  _atom_site_fract_z
  _atom_site_occupancy
  Mg  Mg1       1.0  0.500000601000373  9.360103875045392e-07  0.49999987679709784  1.0000
  Mg  Mg2       1.0  2.783175340164498e-06  0.9999990408427306  0.9999977932016009  1.0000
  Mg  Mg3       1.0  0.5000008519730059  0.499998866373538  1.4873826614834149e-06  1.0000
  Mg  Mg4       1.0  0.4999999870649817  0.9999986946765632  1.1042748225324202e-06  1.0000
  Mg  Mg5       1.0  0.6250006548395816  0.1250010221832128  0.12499972696419077  1.0000
  Mg  Mg6       1.0  0.375000276360936  0.8749987779179733  0.8750005059072237  1.0000
  H   H1        1.0  0.3389355767955847  0.2986398439031106  0.523491314625133  1.0000
  H   H2        1.0  0.023488916752619014  0.8389346217376428  0.8389362180933873  1.0000
  H   H3        1.0  0.3389354967074283  0.5234873113444466  0.29864188173457523  1.0000
  H   H4        1.0  0.7986399701257484  0.8389343381849275  0.8389370374502362  1.0000
  H   H5        1.0  0.3389340711050367  0.5234888855623013  0.8389359130312926  1.0000
  H   H6        1.0  0.02349250801222537  0.8389352131764768  0.29863883146413883  1.0000
  H   H7        1.0  0.3389344237384576  0.29864017501829926  0.8389355526563307  1.0000
  H   H8        1.0  0.7986419760546256  0.8389364537125843  0.5234875479382027  1.0000
  H   H9        1.0  0.3389328747524659  0.8389379799051253  0.2986410238710278  1.0000
  H   H10       1.0  0.02349119478424209  0.29864092115756335  0.8389336855769611  1.0000
  H   H11       1.0  0.3389322883551386  0.8389373153859339  0.5234910866462102  1.0000
  H   H12       1.0  0.7986425018367314  0.5234883606917579  0.8389332944882993  1.0000
  H   H13       1.0  0.976509557319126  0.701357106077005  0.161065571311326  1.0000
  H   H14       1.0  0.6610656573519265  0.16106428053320362  0.47651131188291623  1.0000
  H   H15       1.0  0.20135979813563415  0.4765144019512988  0.16106358305053453  1.0000
  H   H16       1.0  0.6610647456270868  0.1610632906868688  0.7013610493303659  1.0000
  H   H17       1.0  0.6610671968984219  0.47650965757129904  0.16106524000524308  1.0000
  H   H18       1.0  0.20135986383531454  0.16106584884808936  0.4765102497656954  1.0000
  H   H19       1.0  0.6610620859036584  0.7013599848370407  0.16106679005467597  1.0000
  H   H20       1.0  0.976511071878811  0.16106404807433733  0.7013583155844572  1.0000
  H   H21       1.0  0.2013584471391781  0.16106613552187807  0.16106503575120706  1.0000
  H   H22       1.0  0.6610613139917019  0.701360697096007  0.4765141697269186  1.0000
  H   H23       1.0  0.9765126207606798  0.16106419090645133  0.16106244395756167  1.0000
  H   H24       1.0  0.6610674554794683  0.47650813466265174  0.7013558043333461  1.0000
  C   C1        1.0  0.3847197180940681  0.31004636748779296  0.4205172974478232  1.0000
  C   C2        1.0  0.9205178532237779  0.884717564066641  0.8847183969163621  1.0000
  C   C3        1.0  0.3847194107915328  0.42051666820992056  0.31004530608996833  1.0000
  C   C4        1.0  0.8100465584331221  0.8847153317187234  0.8847204739805576  1.0000
  C   C5        1.0  0.3847191934100919  0.4205146573931133  0.8847187475640865  1.0000
  C   C6        1.0  0.9205163650304371  0.8847178693091565  0.31004739060971787  1.0000
  C   C7        1.0  0.38471756900823106  0.3100456508898334  0.8847208875433663  1.0000
  C   C8        1.0  0.8100480224376337  0.8847201445465702  0.42051444871738397  1.0000
  C   C9        1.0  0.3847160168291738  0.8847210821403947  0.3100477452982916  1.0000
  C   C10       1.0  0.9205142582788711  0.3100499355231179  0.884712790388058  1.0000
  C   C11       1.0  0.3847156926323836  0.8847223133323823  0.42051635118392017  1.0000
  C   C12       1.0  0.8100467763294434  0.42051252303431175  0.8847186296094166  1.0000
  C   C13       1.0  0.07948398005762426  0.6899519530284765  0.11528023903605342  1.0000
  C   C14       1.0  0.6152836447973938  0.11527908053919604  0.579483881687402  1.0000
  C   C15       1.0  0.1899566128202891  0.5794833599332065  0.1152850144128621  1.0000
  C   C16       1.0  0.6152807951895767  0.11528256763151766  0.6899537330656643  1.0000
  C   C17       1.0  0.615283196806246  0.5794834141824339  0.11528273080023152  1.0000
  C   C18       1.0  0.18995428901015998  0.11528103580177167  0.5794830236588311  1.0000
  C   C19       1.0  0.6152792659613905  0.6899548342926425  0.1152817804953656  1.0000
  C   C20       1.0  0.07948344395720863  0.11528240235008273  0.6899525169339212  1.0000
  C   C21       1.0  0.18995234186510143  0.11528243748102804  0.11528186873060517  1.0000
  C   C22       1.0  0.615278025564969  0.6899566201541701  0.5794829354233925  1.0000
  C   C23       1.0  0.07948303363451001  0.11528059792317438  0.11527961447912818  1.0000
  C   C24       1.0  0.6152800613931645  0.5794848604168978  0.6899536812885569  1.0000
  N   N1        1.0  0.457621639331947  0.20515045881030158  0.37960542230027267  1.0000
  N   N2        1.0  0.879604972581717  0.9576221766724731  0.9576232926033228  1.0000
  N   N3        1.0  0.45762282813530664  0.379607359661101  0.2051492120092533  1.0000
  N   N4        1.0  0.7051499140186693  0.9576213124880083  0.9576213818636959  1.0000
  N   N5        1.0  0.4576222395775814  0.37960650966314113  0.9576224608883094  1.0000
  N   N6        1.0  0.8796063580248158  0.957622229785244  0.20515004372431617  1.0000
  N   N7        1.0  0.4576232566426983  0.20514868775293849  0.9576214815216133  1.0000
  N   N8        1.0  0.7051484987559389  0.9576216918225388  0.3796074883002588  1.0000
  N   N9        1.0  0.4576218565640104  0.9576237136485803  0.20514851853818067  1.0000
  N   N10       1.0  0.8796078813829881  0.20514892093957124  0.9576211663775708  1.0000
  N   N11       1.0  0.4576223666791465  0.9576225693795379  0.3796060335237711  1.0000
  N   N12       1.0  0.7051492918192254  0.3796065522709215  0.9576220753346689  1.0000
  N   N13       1.0  0.12039352137539804  0.7948497569492757  0.04237874116617486  1.0000
  N   N14       1.0  0.5423782391938659  0.042376905394512346  0.6203938740199179  1.0000
  N   N15       1.0  0.29485084249592586  0.6203940447154608  0.04237815753670303  1.0000
  N   N16       1.0  0.5423795347189325  0.04237654653498883  0.7948507941681768  1.0000
  N   N17       1.0  0.5423790169504413  0.6203936157651812  0.042378097310837914  1.0000
  N   N18       1.0  0.29484971646096614  0.04238017360709289  0.6203924192432737  1.0000
  N   N19       1.0  0.5423764175900202  0.7948514491510537  0.042379671514815725  1.0000
  N   N20       1.0  0.12039312563532424  0.04237771654685925  0.7948495384915973  1.0000
  N   N21       1.0  0.29484798734616646  0.04237864531976509  0.04237879518950649  1.0000
  N   N22       1.0  0.5423773612948892  0.7948521920288486  0.6203938904059286  1.0000
  N   N23       1.0  0.12039372566849237  0.04237698425010451  0.04237688444992929  1.0000
  N   N24       1.0  0.5423785516722008  0.620394482817183  0.794849505859709  1.0000
  N   N25       1.0  0.5007659301373479  0.24923508536659972  0.24923414817871498  1.0000
  N   N26       1.0  0.749234415034735  0.000764400723689229  0.0007649246038709709  1.0000
  N   N27       1.0  0.5007655454011157  0.24923478695949802  0.0007643138037351975  1.0000
  N   N28       1.0  0.7492354619014139  0.0007637674903550202  0.24923600447170458  1.0000
  N   N29       1.0  0.5007635799447172  0.0007655952527728168  0.2492355743697985  1.0000
  N   N30       1.0  0.749234711374193  0.24923502452552546  0.0007644185777593255  1.0000
  N   N31       1.0  0.25076583868115426  0.750764394431883  0.9992326726526173  1.0000
  N   N32       1.0  0.4992349720751291  0.9992350132092724  0.7507652533388551  1.0000
  N   N33       1.0  0.4992359921121832  0.7507640256846032  0.9992343482472136  1.0000
  N   N34       1.0  0.2507646838891729  0.9992352472013052  0.7507648232370556  1.0000
  N   N35       1.0  0.2507642832154676  0.9992347601988881  0.999235252449374  1.0000
  N   N36       1.0  0.4992326218825056  0.7507655230954455  0.7507666795299386  1.0000
