data_image0
_chemical_formula_structural       Dy4P2H38C22N2O32
_chemical_formula_sum              "Dy4 P2 H38 C22 N2 O32"
_cell_length_a       9.527899208930851
_cell_length_b       10.604180831412355
_cell_length_c       11.813115364367748
_cell_angle_alpha    71.22544993292951
_cell_angle_beta     69.0218644565845
_cell_angle_gamma    65.41633778079091

_space_group_name_H-M_alt    "P 1"
_space_group_IT_number       1

loop_
  _space_group_symop_operation_xyz
  'x, y, z'

loop_
  _atom_site_type_symbol
  _atom_site_label
  _atom_site_symmetry_multiplicity
  _atom_site_fract_x
  _atom_site_fract_y
  _atom_site_fract_z
  _atom_site_occupancy
  Dy  Dy1       1.0  0.5802527292698515  0.8416249747888922  0.2150126667830323  1.0000
  Dy  Dy2       1.0  0.4197513088217376  0.15837372135265326  0.784981695948268  1.0000
  Dy  Dy3       1.0  0.9378785181233692  0.195737229779688  0.25052596511849873  1.0000
  Dy  Dy4       1.0  0.06212402496216641  0.8042589661544567  0.7494821831284141  1.0000
  P   P1        1.0  0.3415987055543965  0.192050763380557  0.09750790970812771  1.0000
  P   P2        1.0  0.6583992972534671  0.8079489990423953  0.9024887071436396  1.0000
  H   H1        1.0  0.14906111077404913  0.4037683206639784  0.24187826830704756  1.0000
  H   H2        1.0  0.8509337557339477  0.5962366372713104  0.7581212341468557  1.0000
  H   H3        1.0  0.4767134981124953  0.35540967496084624  0.07628333830651708  1.0000
  H   H4        1.0  0.5232726995655526  0.6445976064465738  0.923712894118161  1.0000
  H   H5        1.0  0.29542876596963197  0.4441623058769649  0.02827678975495474  1.0000
  H   H6        1.0  0.7045733267724684  0.5558383299695109  0.9717235304333158  1.0000
  H   H7        1.0  0.46310061822876497  0.31789574989876707  0.2945597750369231  1.0000
  H   H8        1.0  0.5368958610389568  0.682105104555582  0.7054361316289999  1.0000
  H   H9        1.0  0.35732664669063746  0.20106271775632928  0.32142937215963496  1.0000
  H   H10       1.0  0.6426753982083537  0.7989413255323611  0.6785624346784047  1.0000
  H   H11       1.0  0.12885688016077526  0.3360464382760424  0.4680869088798545  1.0000
  H   H12       1.0  0.8711396073822398  0.663954495376835  0.5319064339212646  1.0000
  H   H13       1.0  0.3054999352404763  0.2782140948942242  0.5148971019926024  1.0000
  H   H14       1.0  0.6944943718581837  0.721783682436559  0.48509769009587705  1.0000
  H   H15       1.0  0.1403808438706163  0.5371307098590492  0.5256255416772646  1.0000
  H   H16       1.0  0.8596202676527934  0.46286359305645425  0.47437673578839684  1.0000
  H   H17       1.0  0.33521346975673066  0.514021304715122  0.426224760302894  1.0000
  H   H18       1.0  0.6647822661456145  0.4859783392347977  0.5737767571884405  1.0000
  H   H19       1.0  0.14095441257591543  0.7129466987181132  0.3217935465636117  1.0000
  H   H20       1.0  0.8590416393655999  0.28705495061074515  0.6782107369883335  1.0000
  H   H21       1.0  0.025097457172094533  0.6079456175822386  0.34853981659707495  1.0000
  H   H22       1.0  0.9749009315855016  0.3920529539735328  0.6514612426927185  1.0000
  H   H23       1.0  0.186613093486521  0.621975625581733  0.1347089634618541  1.0000
  H   H24       1.0  0.8133888539175939  0.37803134995797194  0.8652897132148069  1.0000
  H   H25       1.0  0.36644307473006416  0.5641314560005878  0.1830710284054717  1.0000
  H   H26       1.0  0.6335558817121765  0.4358743753582245  0.8169321773849347  1.0000
  H   H27       1.0  0.3282490481277945  0.7669753224668271  0.4444382967978342  1.0000
  H   H28       1.0  0.6717451025991463  0.23302868895913775  0.5555582702654435  1.0000
  H   H29       1.0  0.3915594735144765  0.8567586977208277  0.4829492394499368  1.0000
  H   H30       1.0  0.6084407262883429  0.1432443794212901  0.517040800384855  1.0000
  H   H31       1.0  0.3464243592858054  0.9109511715013309  0.07233028529607587  1.0000
  H   H32       1.0  0.6535667866870936  0.0890515637461817  0.9276750839889588  1.0000
  H   H33       1.0  0.2399418509928494  0.9066518429198637  0.21281228088837875  1.0000
  H   H34       1.0  0.7600537202624834  0.09335395592670179  0.7871935754425579  1.0000
  H   H35       1.0  0.10115950311006112  0.29023758045587306  0.9991039747087598  1.0000
  H   H36       1.0  0.8988339824373595  0.7097621034180647  0.0008973156925123161  1.0000
  H   H37       1.0  0.006239704420686061  0.20920866889769485  0.9927619518148347  1.0000
  H   H38       1.0  0.9937550364708085  0.790784510123693  0.0072457960618948075  1.0000
  C   C1        1.0  0.3520183555096779  0.3619814346737514  0.0986282921238271  1.0000
  C   C2        1.0  0.6479827445675423  0.6380310660474179  0.9013615325425803  1.0000
  C   C3        1.0  0.3441265524964407  0.3090057136088972  0.3206233294993482  1.0000
  C   C4        1.0  0.6558781986177777  0.690993902642461  0.6793748232441814  1.0000
  C   C5        1.0  0.24442682520680833  0.3513669221441091  0.4437955147766176  1.0000
  C   C6        1.0  0.7555729583035314  0.6486370554705657  0.5561994834577815  1.0000
  C   C7        1.0  0.21940347677892896  0.5048660256934737  0.43853791833687683  1.0000
  C   C8        1.0  0.7805960357769163  0.49513251270052894  0.5614636818087392  1.0000
  C   C9        1.0  0.1479313867880306  0.6042172926066129  0.3314855707071089  1.0000
  C   C10       1.0  0.8520691879307944  0.39578448807027666  0.6685123300521169  1.0000
  C   C11       1.0  0.24600814984550815  0.558529469540474  0.20914450172358562  1.0000
  C   C12       1.0  0.7539938757444629  0.44147438895163305  0.7908532874656727  1.0000
  C   C13       1.0  0.8248478925468984  0.5258053576867995  0.25450706652419086  1.0000
  C   C14       1.0  0.17515996176599907  0.4741887462580864  0.74549845607644  1.0000
  C   C15       1.0  0.6745953854900221  0.503257465754409  0.25375961717104195  1.0000
  C   C16       1.0  0.3254093518320359  0.4967420184993897  0.7462428086804991  1.0000
  C   C17       1.0  0.7098249092891463  0.012503126748512705  0.30986741360572273  1.0000
  C   C18       1.0  0.2901720506647576  0.987493578188129  0.6901269202812159  1.0000
  C   C19       1.0  0.8326267302769064  0.9863025133866756  0.1835364295905608  1.0000
  C   C20       1.0  0.16737962532174314  0.013692920185206986  0.816460691229807  1.0000
  C   C21       1.0  0.04869533550314014  0.9354719040989324  0.4678616900176492  1.0000
  C   C22       1.0  0.9512992324660486  0.06452735062057259  0.5321529605635006  1.0000
  N   N1        1.0  0.26516481505846906  0.4069427767922775  0.21943704839549127  1.0000
  N   N2        1.0  0.7348398072683506  0.5930633375493742  0.7805543331068066  1.0000
  O   O1        1.0  0.5012112704173503  0.075342531681315  0.10961425635599654  1.0000
  O   O2        1.0  0.4987871266155395  0.9246561190729919  0.8903842390689861  1.0000
  O   O3        1.0  0.19878606331101165  0.16956076735890946  0.2039841657328481  1.0000
  O   O4        1.0  0.8012123282050181  0.8304378305963733  0.796016038935342  1.0000
  O   O5        1.0  0.6900549977634823  0.7792864868877274  0.028920986691012722  1.0000
  O   O6        1.0  0.3099429268585253  0.22071639258281558  0.9710765176481573  1.0000
  O   O7        1.0  0.8092866527047133  0.6474917287373572  0.2604871715446109  1.0000
  O   O8        1.0  0.19072904793713255  0.35250581451246876  0.7395050774805512  1.0000
  O   O9        1.0  0.9524581005634045  0.4179920693754796  0.2495184526185099  1.0000
  O   O10       1.0  0.047546846490341375  0.581997826139947  0.7504890023652636  1.0000
  O   O11       1.0  0.5494718550769873  0.6100386705724787  0.25588020778343434  1.0000
  O   O12       1.0  0.4505340281107733  0.3899609917156396  0.7441159219511136  1.0000
  O   O13       1.0  0.6914031179828226  0.37842683251609094  0.2511144236179135  1.0000
  O   O14       1.0  0.30860770522450315  0.6215682044135988  0.7488934068417947  1.0000
  O   O15       1.0  0.7258407232622871  0.0901521202686766  0.36361343093431503  1.0000
  O   O16       1.0  0.2741627333525044  0.9098391840722756  0.6363830584043839  1.0000
  O   O17       1.0  0.6046480883820988  0.9546703663534545  0.3481460908114188  1.0000
  O   O18       1.0  0.3953553682326926  0.04532093798749769  0.65185039852728  1.0000
  O   O19       1.0  0.9378425517817348  0.04506256883402669  0.1447650594791767  1.0000
  O   O20       1.0  0.062170745304364144  0.9549229714308108  0.8552437540948007  1.0000
  O   O21       1.0  0.8175722867348081  0.9091724686407899  0.12993623876457866  1.0000
  O   O22       1.0  0.1824377194883765  0.09082838386498791  0.8700533388472422  1.0000
  O   O23       1.0  0.06800768442147383  0.9598543861176123  0.3524429653020321  1.0000
  O   O24       1.0  0.9319936484046564  0.04014488082736279  0.647568093441258  1.0000
  O   O25       1.0  0.8977289346015594  0.18404335638578564  0.4639861127038858  1.0000
  O   O26       1.0  0.10225622393073042  0.815957037700926  0.5360300240518471  1.0000
  O   O27       1.0  0.4141140729825635  0.8067559418197094  0.41706119860348406  1.0000
  O   O28       1.0  0.5858820175769991  0.1932460771023088  0.5829311202460161  1.0000
  O   O29       1.0  0.3461783096929378  0.8657605953726063  0.15913283217767568  1.0000
  O   O30       1.0  0.6538166129334684  0.1342410343189968  0.8408726197616473  1.0000
  O   O31       1.0  0.9901993807685513  0.2876248091755329  0.02910408634194536  1.0000
  O   O32       1.0  0.009796889179945428  0.7123673306134816  0.9709026624774212  1.0000
