data_image0
_chemical_formula_structural       Cd2H46C40N6O8
_chemical_formula_sum              "Cd2 H46 C40 N6 O8"
_cell_length_a       8.799546358650598
_cell_length_b       11.080506694501986
_cell_length_c       11.61913669200453
_cell_angle_alpha    90.00010099495935
_cell_angle_beta     90.00000873543358
_cell_angle_gamma    89.83734472851837

_space_group_name_H-M_alt    "P 1"
_space_group_IT_number       1

loop_
  _space_group_symop_operation_xyz
  'x, y, z'

loop_
  _atom_site_type_symbol
  _atom_site_label
  _atom_site_symmetry_multiplicity
  _atom_site_fract_x
  _atom_site_fract_y
  _atom_site_fract_z
  _atom_site_occupancy
  Cd  Cd1       1.0  0.9677075288523724  0.21866893032934337  0.23406410014484885  1.0000
  Cd  Cd2       1.0  0.0322911052163519  0.7813285165250152  0.7340646634765662  1.0000
  H   H1        1.0  0.8220592262351188  0.45117415853258086  0.26448134960617853  1.0000
  H   H2        1.0  0.17794511040293057  0.5488260199182164  0.764480677171278  1.0000
  H   H3        1.0  0.9939127593493995  0.06380253345503921  0.9901166998208808  1.0000
  H   H4        1.0  0.006082535703413299  0.9361990146961858  0.49011809695657144  1.0000
  H   H5        1.0  0.9102232029677564  0.07720412849003112  0.7849104106633787  1.0000
  H   H6        1.0  0.0897743480962134  0.9228015407335094  0.2849117946827775  1.0000
  H   H7        1.0  0.7620989625923115  0.2607367088606195  0.7226649684538273  1.0000
  H   H8        1.0  0.23790085371721398  0.7392697352545241  0.2226643388109366  1.0000
  H   H9        1.0  0.697044997912215  0.41851513242605876  0.8705358083081906  1.0000
  H   H10       1.0  0.3029548382285867  0.5814897794993427  0.37053405964305597  1.0000
  H   H11       1.0  0.7134564433679031  0.48825450277934834  0.0659666260434975  1.0000
  H   H12       1.0  0.2865433128761978  0.5117462375048376  0.565963321476829  1.0000
  H   H13       1.0  0.657877930125764  0.3598033580151779  0.14778670717130638  1.0000
  H   H14       1.0  0.3421241104375383  0.6401966179543308  0.647782764557661  1.0000
  H   H15       1.0  0.07474531749782898  0.44714694038216135  0.09880548394865228  1.0000
  H   H16       1.0  0.9252578449176666  0.5528520363963877  0.5988040420304088  1.0000
  H   H17       1.0  0.06772644129089399  0.5168472748217424  0.2343440113874422  1.0000
  H   H18       1.0  0.9322756117021456  0.4831519583364424  0.7343424528783017  1.0000
  H   H19       1.0  0.04333088884129669  0.564081554764563  0.9343022493980513  1.0000
  H   H20       1.0  0.9566700771779821  0.4359198585261764  0.4342986080962348  1.0000
  H   H21       1.0  0.8339434983532996  0.89863399914983  0.930230844667129  1.0000
  H   H22       1.0  0.16605744761763924  0.10136379676713148  0.43023085390835547  1.0000
  H   H23       1.0  0.7891253731332598  0.8907724288743069  0.145685456489133  1.0000
  H   H24       1.0  0.2108778082379672  0.109228439308076  0.6456849080872189  1.0000
  H   H25       1.0  0.860606081533909  0.703582877199338  0.2514805984186665  1.0000
  H   H26       1.0  0.1393982573243804  0.2964181797390921  0.7514803571949144  1.0000
  H   H27       1.0  0.5060335569243364  0.16877051709140287  0.18726107118671106  1.0000
  H   H28       1.0  0.49396619943016173  0.8312259345874508  0.6872617706833992  1.0000
  H   H29       1.0  0.55883805766954  0.9627813782902948  0.1298013635977924  1.0000
  H   H30       1.0  0.4411651061103967  0.0372167531989973  0.6298067444693629  1.0000
  H   H31       1.0  0.40337081965941474  0.9611383238719283  0.2266458979006387  1.0000
  H   H32       1.0  0.5966334805871014  0.038856369996402414  0.7266512990913938  1.0000
  H   H33       1.0  0.22202965800644137  0.9378956381935099  0.0680463052445859  1.0000
  H   H34       1.0  0.7779712110215511  0.06210058721410411  0.5680466021615586  1.0000
  H   H35       1.0  0.3618316648494613  0.822816051732879  0.056806999116233194  1.0000
  H   H36       1.0  0.6381714747738556  0.1771801401861239  0.5568126379497258  1.0000
  H   H37       1.0  0.4962886725458446  0.9317942335531697  0.9060156293271148  1.0000
  H   H38       1.0  0.5037065865199181  0.0682035496127185  0.4060225060423974  1.0000
  H   H39       1.0  0.24896692164295336  0.1264654353674146  0.9268839575727837  1.0000
  H   H40       1.0  0.7510306288398  0.8735350809200567  0.4268827513457508  1.0000
  H   H41       1.0  0.40014550730484183  0.12646115136532643  0.8276580054706315  1.0000
  H   H42       1.0  0.599850891808849  0.8735400907515681  0.327658503478979  1.0000
  H   H43       1.0  0.457237235983719  0.2609913498181555  0.9947729474122794  1.0000
  H   H44       1.0  0.5427614500081931  0.7390065779070129  0.4947714911082882  1.0000
  H   H45       1.0  0.5878210985979634  0.1385874490863586  0.9887250702076713  1.0000
  H   H46       1.0  0.4121775909992563  0.8614113699538423  0.48872724789847405  1.0000
  C   C1        1.0  0.8052252396948347  0.31943936418004876  0.0079527125011012  1.0000
  C   C2        1.0  0.1947745146141884  0.68056307403414  0.50795140317652  1.0000
  C   C3        1.0  0.9251598362867027  0.13951884237886958  0.960006949538453  1.0000
  C   C4        1.0  0.0748400080545935  0.8604844296418506  0.4600065056257349  1.0000
  C   C5        1.0  0.8808046179860014  0.1485617088045927  0.8452961946904338  1.0000
  C   C6        1.0  0.11919521312823632  0.8514431565687914  0.3452966012074086  1.0000
  C   C7        1.0  0.7977023550878215  0.2501978943762211  0.8119753834830731  1.0000
  C   C8        1.0  0.20229975665167638  0.749809604174395  0.3119747675695733  1.0000
  C   C9        1.0  0.7613367329528556  0.33777802510322635  0.8937224924298234  1.0000
  C   C10       1.0  0.23866309818721726  0.6622251246583273  0.39372345442182416  1.0000
  C   C11       1.0  0.7543391512708413  0.40274741519260693  0.1034779491108822  1.0000
  C   C12       1.0  0.2456617536702836  0.5972542903669051  0.6034756445819127  1.0000
  C   C13       1.0  0.0005485557687805001  0.4995725549150265  0.15632012397515638  1.0000
  C   C14       1.0  0.9994546181014596  0.500426527948143  0.6563186021441609  1.0000
  C   C15       1.0  0.9546740785524576  0.6164737578587705  0.09995636411137808  1.0000
  C   C16       1.0  0.045331371353576295  0.3835279156776039  0.5999519557226733  1.0000
  C   C17       1.0  0.9831519306652512  0.6338573346042865  0.9829428080032301  1.0000
  C   C18       1.0  0.016846752970472802  0.3661405712997805  0.48294066436401545  1.0000
  C   C19       1.0  0.868720207794901  0.821258387487717  0.982057351380412  1.0000
  C   C20       1.0  0.13128188010501415  0.1787385951733  0.4820566263546766  1.0000
  C   C21       1.0  0.8400218876677457  0.8147511009882391  0.1000425895135137  1.0000
  C   C22       1.0  0.1599846986723037  0.185250566327845  0.6000404420959953  1.0000
  C   C23       1.0  0.8822061522701288  0.7105379537573383  0.1591665181031843  1.0000
  C   C24       1.0  0.117798153774217  0.289460225508023  0.6591654020756792  1.0000
  C   C25       1.0  0.4258146904782905  0.1256530293509357  0.1270362461386654  1.0000
  C   C26       1.0  0.5741861951078634  0.874344207330658  0.6270378879582452  1.0000
  C   C27       1.0  0.4383657165340793  0.988254808676757  0.1397461790574255  1.0000
  C   C28       1.0  0.5616363080003239  0.0117424450692809  0.6397506699821776  1.0000
  C   C29       1.0  0.34331625833544877  0.9208442137795814  0.0504451621744693  1.0000
  C   C30       1.0  0.6566846119967733  0.079152881632325  0.5504480560608656  1.0000
  C   C31       1.0  0.3793724807838288  0.9613558565017399  0.926314918231796  1.0000
  C   C32       1.0  0.6206262011930477  0.03864374989050391  0.4263165944705491  1.0000
  C   C33       1.0  0.368259700052711  0.09887325403601468  0.9152634563871159  1.0000
  C   C34       1.0  0.631737838497024  0.9011254358863069  0.4152648651042555  1.0000
  C   C35       1.0  0.4679140731452307  0.16267958133988003  0.0038782484278456993  1.0000
  C   C36       1.0  0.5320845150790631  0.8373174409402465  0.503878101838005  1.0000
  C   C37       1.0  0.2690689399218087  0.174976413359957  0.1607737251051233  1.0000
  C   C38       1.0  0.7309285383242567  0.8250200022271202  0.6607753015566971  1.0000
  C   C39       1.0  0.27260300772879725  0.8935562254152031  0.8459818643969966  1.0000
  C   C40       1.0  0.7273888637962429  0.1064477834264537  0.34598280622863337  1.0000
  N   N1        1.0  0.8867303510648199  0.22219916818286117  0.0392819852103159  1.0000
  N   N2        1.0  0.11326713184104881  0.7778024381129073  0.539279969796425  1.0000
  N   N3        1.0  0.8727242365201348  0.4210639688847593  0.19091475993429438  1.0000
  N   N4        1.0  0.1272778126328973  0.5789360866359132  0.6909132718381912  1.0000
  N   N5        1.0  0.9410395739588254  0.7327977095282207  0.9246537046433047  1.0000
  N   N6        1.0  0.058961385329759294  0.26720278350268956  0.4246539810817395  1.0000
  O   O1        1.0  0.2346406480199263  0.28318379937568483  0.1384365265021827  1.0000
  O   O2        1.0  0.7653613762531677  0.7168134519502871  0.6384362033099578  1.0000
  O   O3        1.0  0.1781072945356925  0.10201882921180072  0.21288252135752117  1.0000
  O   O4        1.0  0.8218890528625877  0.8979767864052587  0.7128859522469639  1.0000
  O   O5        1.0  0.16167837359741094  0.9519431895547044  0.8002934870604931  1.0000
  O   O6        1.0  0.8383089431612163  0.04806076053642979  0.3002891791917293  1.0000
  O   O7        1.0  0.29156304042408004  0.7806524486092526  0.832018598750544  1.0000
  O   O8        1.0  0.7084254238801292  0.21935245609350323  0.3320248924799785  1.0000
