data_image0
_chemical_formula_structural       Zn2H20C44N2O16
_chemical_formula_sum              "Zn2 H20 C44 N2 O16"
_cell_length_a       14.294018855577171
_cell_length_b       15.331880652384895
_cell_length_c       16.099599510405874
_cell_angle_alpha    92.54752604773113
_cell_angle_beta     89.97985821405996
_cell_angle_gamma    90.01398789606021

_space_group_name_H-M_alt    "P 1"
_space_group_IT_number       1

loop_
  _space_group_symop_operation_xyz
  'x, y, z'

loop_
  _atom_site_type_symbol
  _atom_site_label
  _atom_site_symmetry_multiplicity
  _atom_site_fract_x
  _atom_site_fract_y
  _atom_site_fract_z
  _atom_site_occupancy
  Zn  Zn1       1.0  0.3977522226549866  0.4997013215964187  0.5001870418141933  1.0000
  Zn  Zn2       1.0  0.6027967691226902  0.500134281120296  0.500296985455968  1.0000
  H   H1        1.0  0.348391182220027  0.47240409039847003  0.07626904191483418  1.0000
  H   H2        1.0  0.07038884660533279  0.5746406381618809  0.6177804323701463  1.0000
  H   H3        1.0  0.9302942721862378  0.6211918828449683  0.57539623761906  1.0000
  H   H4        1.0  0.07051964590366569  0.42557138741798173  0.38157213196770806  1.0000
  H   H5        1.0  0.5395282712922479  0.30899009945475353  0.6532778990122664  1.0000
  H   H6        1.0  0.5386273458783747  0.6905418987294568  0.34668395920554207  1.0000
  H   H7        1.0  0.47307241952892537  0.7071582316210081  0.6571224444787018  1.0000
  H   H8        1.0  0.4738927313738158  0.2928979426465546  0.3427527502653901  1.0000
  H   H9        1.0  0.6749853958781172  0.3777579831739644  0.3936693258963331  1.0000
  H   H10       1.0  0.3250859216967327  0.6059035194885708  0.6219992572596664  1.0000
  H   H11       1.0  0.67518333231488  0.6223133644612703  0.6065464563523832  1.0000
  H   H12       1.0  0.6446485358226324  0.5287864056818492  0.9242144285879588  1.0000
  H   H13       1.0  0.32501083375530726  0.3931653962126305  0.37818707756886016  1.0000
  H   H14       1.0  0.34830458680588805  0.4749625937127462  0.9214179478687965  1.0000
  H   H15       1.0  0.6448882995041243  0.5257325675073617  0.07894982074195407  1.0000
  H   H16       1.0  0.5507128576837417  0.06742070168365899  0.626738795586739  1.0000
  H   H17       1.0  0.5505461939522789  0.9321609003365054  0.37280723620146006  1.0000
  H   H18       1.0  0.45131879262491725  0.9445985320644751  0.6272449234636639  1.0000
  H   H19       1.0  0.45144609154029053  0.05549106407889329  0.37237147692687944  1.0000
  H   H20       1.0  0.9300508620272864  0.3788330940627702  0.42431885722387347  1.0000
  C   C1        1.0  0.5035437429381558  0.33049076568679686  0.4984677479410917  1.0000
  C   C2        1.0  0.20073256775414444  0.5413525754575728  0.5617887727950117  1.0000
  C   C3        1.0  0.7998703750296696  0.5633502590875848  0.5420844455364602  1.0000
  C   C4        1.0  0.20082263828363267  0.4585582024105576  0.4378508788853636  1.0000
  C   C5        1.0  0.9486093151720849  0.5000511423656774  0.49978262970918036  1.0000
  C   C6        1.0  0.05193564939800409  0.5000426417986219  0.4997043151957782  1.0000
  C   C7        1.0  0.497202205561173  0.4989779288916905  0.3398059400231971  1.0000
  C   C8        1.0  0.4969070885420803  0.501273702667298  0.660610054149174  1.0000
  C   C9        1.0  0.41274053971942226  0.48602141342371397  0.9564272128124143  1.0000
  C   C10       1.0  0.5804313543980014  0.514658823490727  0.04395924973626819  1.0000
  C   C11       1.0  0.4127354867549328  0.48473325910291004  0.04244450825191139  1.0000
  C   C12       1.0  0.5033282289274226  0.6693724678510831  0.5016433702978489  1.0000
  C   C13       1.0  0.5802783502011549  0.5164315348729714  0.9579895444120293  1.0000
  C   C14       1.0  0.49645625012233535  0.5019570025824578  0.9130612066785273  1.0000
  C   C15       1.0  0.49663451953934146  0.4989562341113966  0.08732043780554477  1.0000
  C   C16       1.0  0.4964665231870595  0.5026990577055556  0.8253656984718842  1.0000
  C   C17       1.0  0.49679143925092706  0.4981457254896711  0.17502946763021038  1.0000
  C   C18       1.0  0.49710545174192317  0.49816873818460994  0.2507162096641906  1.0000
  C   C19       1.0  0.4966324194013793  0.5025605142207824  0.7496688910029616  1.0000
  C   C20       1.0  0.5284221031819526  0.09828068224688737  0.5702449762231507  1.0000
  C   C21       1.0  0.5281714198368376  0.9014199766773531  0.42934561110290287  1.0000
  C   C22       1.0  0.4740934373942307  0.9083924127165233  0.5709518813582972  1.0000
  C   C23       1.0  0.500840363531374  0.0481160151474427  0.4996511772774426  1.0000
  C   C24       1.0  0.4743303910670774  0.09159486965551619  0.42868313335398495  1.0000
  C   C25       1.0  0.5299447107417733  0.18955685357974522  0.5706983419691409  1.0000
  C   C26       1.0  0.5294821449256729  0.8101553372051881  0.4290473974252221  1.0000
  C   C27       1.0  0.4749338263401625  0.8172366610395443  0.5722411755208441  1.0000
  C   C28       1.0  0.47535369639818004  0.18276079965782796  0.4275621789866263  1.0000
  C   C29       1.0  0.5031633491632376  0.23255794025321558  0.4989457582286433  1.0000
  C   C30       1.0  0.5026529717334326  0.7673052406410007  0.500912766341507  1.0000
  C   C31       1.0  0.5575035159454556  0.23833304026778274  0.6490168184909917  1.0000
  C   C32       1.0  0.5570064737317323  0.7611296132674139  0.3508518646316857  1.0000
  C   C33       1.0  0.44997735071889605  0.7760756224868144  0.6513468368538397  1.0000
  C   C34       1.0  0.5007077773100831  0.9517236739393053  0.49990978951419845  1.0000
  C   C35       1.0  0.4503123403794972  0.22413409817580285  0.34859884942699887  1.0000
  C   C36       1.0  0.7493879804727895  0.36589667245569046  0.40762147678606897  1.0000
  C   C37       1.0  0.2504201056634797  0.5910973202867921  0.6316833029685608  1.0000
  C   C38       1.0  0.7496884458569891  0.6340139666340079  0.592770685777708  1.0000
  C   C39       1.0  0.2506732522567958  0.40893475544761054  0.3679732190910555  1.0000
  C   C40       1.0  0.8972865912425617  0.4341475181678902  0.4578192620124283  1.0000
  C   C41       1.0  0.10317260578140258  0.5415932725446237  0.5639356114050214  1.0000
  C   C42       1.0  0.897425489741664  0.5659040633890982  0.5419529045501008  1.0000
  C   C43       1.0  0.10325487214416998  0.4584773120241792  0.4355058677889047  1.0000
  C   C44       1.0  0.7997257731950567  0.4366685712689318  0.4580238824685237  1.0000
  N   N1        1.0  0.7506327459982882  0.5000186874233208  0.5001137876501572  1.0000
  N   N2        1.0  0.24998977038675455  0.49983881601460206  0.49990830541862136  1.0000
  O   O1        1.0  0.4265861635259184  0.3671091135963137  0.4811231929111768  1.0000
  O   O2        1.0  0.5963182780556194  0.7952791589182265  0.293100090770693  1.0000
  O   O3        1.0  0.4084852563458908  0.8145979056512542  0.7083910782912424  1.0000
  O   O4        1.0  0.4082268296192168  0.1859280677903499  0.2917349671845812  1.0000
  O   O5        1.0  0.790895567564128  0.3004811382440521  0.3819690727405244  1.0000
  O   O6        1.0  0.20814540657430305  0.614945984974497  0.6945382583213371  1.0000
  O   O7        1.0  0.7913869035016673  0.6991689751595301  0.6188350006283299  1.0000
  O   O8        1.0  0.20887522682684784  0.3861584998220877  0.3045646207289748  1.0000
  O   O9        1.0  0.5808794866728133  0.6316902129137816  0.485096585311993  1.0000
  O   O10       1.0  0.4264822881885592  0.6324702595832504  0.5189186665891794  1.0000
  O   O11       1.0  0.5808453760418428  0.36851339559883917  0.5152695799463486  1.0000
  O   O12       1.0  0.4199683628264521  0.5175772290038977  0.3765506607386938  1.0000
  O   O13       1.0  0.5740052431630929  0.5197261360120606  0.6251056414743699  1.0000
  O   O14       1.0  0.41992599431114996  0.48184906789672505  0.6237358826041159  1.0000
  O   O15       1.0  0.574353942282002  0.48094270548219936  0.37527401262873633  1.0000
  O   O16       1.0  0.5964243992368452  0.20385108885009373  0.706748950474356  1.0000
