data_image0
_chemical_formula_structural       Cu2H28C28N12O14
_chemical_formula_sum              "Cu2 H28 C28 N12 O14"
_cell_length_a       7.261051812355907
_cell_length_b       11.567800164378484
_cell_length_c       11.833105358496995
_cell_angle_alpha    119.2618361970508
_cell_angle_beta     95.92546706054937
_cell_angle_gamma    89.99926249985735

_space_group_name_H-M_alt    "P 1"
_space_group_IT_number       1

loop_
  _space_group_symop_operation_xyz
  'x, y, z'

loop_
  _atom_site_type_symbol
  _atom_site_label
  _atom_site_symmetry_multiplicity
  _atom_site_fract_x
  _atom_site_fract_y
  _atom_site_fract_z
  _atom_site_occupancy
  Cu  Cu1       1.0  0.4999976788524307  0.9999992550062656  4.5364782135692213e-07  1.0000
  Cu  Cu2       1.0  0.9999980101256086  1.1656967300002426e-07  6.602738337657506e-07  1.0000
  H   H1        1.0  0.523354449088913  0.29566028244737197  0.17235883418902628  1.0000
  H   H2        1.0  0.9766275760737885  0.1233082207067966  0.8276510955012314  1.0000
  H   H3        1.0  0.47664385716572605  0.7043377281697474  0.8276393752118949  1.0000
  H   H4        1.0  0.023366688823259152  0.8766918046927191  0.17235201695144317  1.0000
  H   H5        1.0  0.6403445791670634  0.45447978276699524  0.40325280610231573  1.0000
  H   H6        1.0  0.8596424502178623  0.0512305919349672  0.5967555075846107  1.0000
  H   H7        1.0  0.3596524299916837  0.5455192250095067  0.5967457870876487  1.0000
  H   H8        1.0  0.14035607943278455  0.9487704059433852  0.403246670541428  1.0000
  H   H9        1.0  0.7356418955087209  0.11645116109786358  0.4600935089615561  1.0000
  H   H10       1.0  0.764366186387285  0.6563572169352057  0.5399042940151304  1.0000
  H   H11       1.0  0.2643594276674364  0.883549821263891  0.5399071643411376  1.0000
  H   H12       1.0  0.23563637202018137  0.3436417693370899  0.46009382682464667  1.0000
  H   H13       1.0  0.611804270014396  0.9719445877431812  0.22956735976886494  1.0000
  H   H14       1.0  0.8881970804270054  0.7423759711244529  0.7704279706629722  1.0000
  H   H15       1.0  0.38819696609565574  0.028055402041161408  0.7704328363909598  1.0000
  H   H16       1.0  0.11180133809525471  0.2576230257174145  0.22956902434982854  1.0000
  H   H17       1.0  0.0685080623919347  0.4743462530866084  0.7826930551909969  1.0000
  H   H18       1.0  0.4315161257912267  0.6916514458175272  0.21730404751717466  1.0000
  H   H19       1.0  0.9314932733849803  0.5256547260988143  0.21730677234620538  1.0000
  H   H20       1.0  0.5684879909104268  0.3083495210276226  0.7826951209621812  1.0000
  H   H21       1.0  0.9787279727992839  0.3575265125330915  0.8258187043969728  1.0000
  H   H22       1.0  0.5213010178937624  0.5317047709428805  0.17417692982254346  1.0000
  H   H23       1.0  0.021271879148777387  0.6424734818332138  0.17418139840901858  1.0000
  H   H24       1.0  0.47870170204513596  0.4682962036605717  0.8258229910684848  1.0000
  H   H25       1.0  0.8468715620421677  0.4947593491496676  0.8399168132793521  1.0000
  H   H26       1.0  0.6531525161333178  0.6548393846928207  0.16008329758155068  1.0000
  H   H27       1.0  0.15312978633550506  0.5052416268594229  0.1600821684923588  1.0000
  H   H28       1.0  0.346850116739482  0.34516059733321924  0.8399161461666014  1.0000
  C   C1        1.0  0.5730329492581987  0.2598415526400047  0.23896389555545744  1.0000
  C   C2        1.0  0.9269525943382322  0.0208834305289969  0.7610445445636957  1.0000
  C   C3        1.0  0.42696544406253883  0.740157450554527  0.7610347909883401  1.0000
  C   C4        1.0  0.07304178282645074  0.9791175810952668  0.2389573535008652  1.0000
  C   C5        1.0  0.6386855517104593  0.34824363403903646  0.3679561244329578  1.0000
  C   C6        1.0  0.8613026750558106  0.9802931893350433  0.6320531207312572  1.0000
  C   C7        1.0  0.3613115319136214  0.6517563694912099  0.6320437916653889  1.0000
  C   C8        1.0  0.13869448303361048  0.0197078099489474  0.36794811827546436  1.0000
  C   C9        1.0  0.701757512531458  0.2985877787757475  0.4506272868768876  1.0000
  C   C10       1.0  0.7982428487083408  0.8479623673200009  0.549376927316402  1.0000
  C   C11       1.0  0.2982410423207114  0.7014132127499407  0.5493731997181612  1.0000
  C   C12       1.0  0.2017584000024755  0.15203761928800932  0.450622423077924  1.0000
  C   C13       1.0  0.6911272155032151  0.1613241357793456  0.40069139795605224  1.0000
  C   C14       1.0  0.8088743692459488  0.7606330793136494  0.5993092601665283  1.0000
  C   C15       1.0  0.3088726490456111  0.8386758554106278  0.5993078590844477  1.0000
  C   C16       1.0  0.19112542083753686  0.239365916122587  0.40068867396559693  1.0000
  C   C17       1.0  0.6229969818427249  0.0790560093483776  0.2706307100458645  1.0000
  C   C18       1.0  0.8770028073978936  0.8084250733694133  0.7293688397225894  1.0000
  C   C19       1.0  0.37700426686809163  0.9209439772596327  0.7293686403484616  1.0000
  C   C20       1.0  0.12299697008483432  0.191573925243155  0.2706299401750272  1.0000
  C   C21       1.0  0.7774850067002463  0.39413628559264424  0.588355988020858  1.0000
  C   C22       1.0  0.7225265390271292  0.8057836664444765  0.41164190077719826  1.0000
  C   C23       1.0  0.22251485784858002  0.6058637055973293  0.4116432690196419  1.0000
  C   C24       1.0  0.27747629317940453  0.19421829438373087  0.5883568057257095  1.0000
  C   C25       1.0  0.9440508915873951  0.42189982912341867  0.7841850038492029  1.0000
  C   C26       1.0  0.5559745242031795  0.6377130585857246  0.21581298160314333  1.0000
  C   C27       1.0  0.055951741285404914  0.5781001529026213  0.21581443989894922  1.0000
  C   C28       1.0  0.444028282801824  0.36228890859514  0.7841874164307614  1.0000
  N   N1        1.0  0.7499945069458535  0.9133215128989464  0.9999973706132794  1.0000
  N   N2        1.0  0.2500037615064912  0.0866765072471694  3.3760841305034836e-06  1.0000
  N   N3        1.0  0.7499993928468811  0.8080188892961857  0.9999992843855027  1.0000
  N   N4        1.0  0.2499989878730915  0.19198011707468507  2.479237935017795e-07  1.0000
  N   N5        1.0  0.7500092534336602  0.7076424160665982  1.6840151602200135e-06  1.0000
  N   N6        1.0  0.24998895315411576  0.2923546051494413  0.9999968940083763  1.0000
  N   N7        1.0  0.25000694305803967  0.7597779900482993  0.9999994305676341  1.0000
  N   N8        1.0  0.749992896289257  0.24022200749434572  1.51800385589191e-06  1.0000
  N   N9        1.0  0.5673058069656777  0.127530053534521  0.19066647755592925  1.0000
  N   N10       1.0  0.9326877430762013  0.9368671169317866  0.8093394866692665  1.0000
  N   N11       1.0  0.43269257375429504  0.87246895283635  0.8093330547533669  1.0000
  N   N12       1.0  0.0673093279471217  0.063132889774792  0.1906612751945715  1.0000
  O   O1        1.0  0.12186672651794345  0.7817598533557232  0.931613057489841  1.0000
  O   O2        1.0  0.3781531367077235  0.8501429048716531  0.06838440622921388  1.0000
  O   O3        1.0  0.8781332617600274  0.21824213569441042  0.0683905368984057  1.0000
  O   O4        1.0  0.6218480616000336  0.1498570944416855  0.931618327227092  1.0000
  O   O5        1.0  0.2500021836955852  0.6513883649499874  3.775542474177088e-06  1.0000
  O   O6        1.0  0.7499989653483611  0.3486106322569427  0.9999959434744741  1.0000
  O   O7        1.0  0.7665724145945918  0.5145330951338495  0.6371354571457319  1.0000
  O   O8        1.0  0.7334412484978757  0.8773957025816942  0.36286916264438673  1.0000
  O   O9        1.0  0.23342875965088436  0.4854658957204165  0.36286257034021935  1.0000
  O   O10       1.0  0.2665628682037848  0.12260526426345562  0.6371300058349763  1.0000
  O   O11       1.0  0.8595672680163915  0.33357529930276536  0.6508046708394843  1.0000
  O   O12       1.0  0.6404562166636297  0.6827672447954781  0.34919289141790705  1.0000
  O   O13       1.0  0.1404339806944179  0.6664246873052447  0.3491946795548415  1.0000
  O   O14       1.0  0.3595465032752757  0.3172337298079739  0.6508070294731212  1.0000
