data_image0
_chemical_formula_structural       Al6H67C84IO28
_chemical_formula_sum              "Al6 H67 C84 I1 O28"
_cell_length_a       13.290401018953757
_cell_length_b       13.338715421908718
_cell_length_c       28.255218297251513
_cell_angle_alpha    89.74059857425709
_cell_angle_beta     90.09173929076104
_cell_angle_gamma    119.48572734763688

_space_group_name_H-M_alt    "P 1"
_space_group_IT_number       1

loop_
  _space_group_symop_operation_xyz
  'x, y, z'

loop_
  _atom_site_type_symbol
  _atom_site_label
  _atom_site_symmetry_multiplicity
  _atom_site_fract_x
  _atom_site_fract_y
  _atom_site_fract_z
  _atom_site_occupancy
  Al  Al1       1.0  0.17677425065273414  0.589242816506669  0.498694580612927  1.0000
  Al  Al2       1.0  0.9324318274651302  0.35522528826528094  0.49965421032896984  1.0000
  Al  Al3       1.0  0.9300523146930074  0.5785579661099974  0.49863853504339073  1.0000
  Al  Al4       1.0  0.1593573936872232  0.08855517411686262  0.9994976743634112  1.0000
  Al  Al5       1.0  0.4024857490043842  0.09001354120311333  0.9998694272460613  1.0000
  Al  Al6       1.0  0.40818496043858926  0.31752986160764607  0.00046179463172540004  1.0000
  H   H1        1.0  0.6767797902719009  0.1604300240291821  0.7783217549001052  1.0000
  H   H2        1.0  0.1233511284474673  0.9841223442853175  0.6930112587645993  1.0000
  H   H3        1.0  0.155635949804747  0.028785488367716994  0.7736680598519001  1.0000
  H   H4        1.0  0.30367207455020656  0.0733725410831312  0.7659552875349434  1.0000
  H   H5        1.0  0.24529939721617208  0.741009654137258  0.7098889437576973  1.0000
  H   H6        1.0  0.34328724484749534  0.8855241566033171  0.6952479582554079  1.0000
  H   H7        1.0  0.2779809328973216  0.7860471835222498  0.79051567174065  1.0000
  H   H8        1.0  0.03209739443266814  0.6760685606648593  0.7207863290298918  1.0000
  H   H9        1.0  0.06330943586916483  0.7206481910498678  0.8014304121333213  1.0000
  H   H10       1.0  0.37524427391093707  0.9309885421114288  0.7759999758886806  1.0000
  H   H11       1.0  0.26024635863761614  0.5242066454680983  0.7961672628003811  1.0000
  H   H12       1.0  0.5240457239885714  0.15554496475176902  0.7070169406138194  1.0000
  H   H13       1.0  0.2324428488929513  0.5294550704183365  0.7144534787775643  1.0000
  H   H14       1.0  0.2524751545190824  0.2611336712108638  0.698580285541354  1.0000
  H   H15       1.0  0.33309472546618213  0.4130971532247401  0.6991527699163314  1.0000
  H   H16       1.0  0.36240029994593925  0.40906140589508766  0.7808513650812047  1.0000
  H   H17       1.0  0.2820585001787563  0.2569378994978209  0.7801032490842914  1.0000
  H   H18       1.0  0.9653439815158433  0.23955090317849678  0.7220707306729326  1.0000
  H   H19       1.0  0.03579623852345289  0.1591293118943824  0.7117089303058323  1.0000
  H   H20       1.0  0.9945590012593255  0.23330345634300897  0.8037347973557447  1.0000
  H   H21       1.0  0.08158943324711738  0.4589283532826584  0.7234524291378364  1.0000
  H   H22       1.0  0.10917880946941953  0.45211903508641177  0.8050865401021883  1.0000
  H   H23       1.0  0.8599295423035684  0.35779877906776386  0.7346998652819252  1.0000
  H   H24       1.0  0.06588154852153848  0.15387459500819736  0.7933480875990568  1.0000
  H   H25       1.0  0.599871305147559  0.45574532732462814  0.21434141975746004  1.0000
  H   H26       1.0  0.65402728701865  0.48625788733722436  0.29433860772065407  1.0000
  H   H27       1.0  0.5309788914056098  0.16882162632259679  0.305414234656368  1.0000
  H   H28       1.0  0.49801564227082196  0.2819223057474148  0.30194302785544386  1.0000
  H   H29       1.0  0.45841028570819015  0.23675317092478554  0.22146003150018606  1.0000
  H   H30       1.0  0.5172657326736497  0.14382641183850348  0.22322616668338216  1.0000
  H   H31       1.0  0.8467235897640889  0.3486079842451629  0.2814840762260006  1.0000
  H   H32       1.0  0.7290103009848536  0.2077310605323746  0.2841755322174678  1.0000
  H   H33       1.0  0.8225270823902306  0.3658541053783112  0.20067587683563912  1.0000
  H   H34       1.0  0.8069681580771899  0.5010618184379894  0.7912942957804177  1.0000
  H   H35       1.0  0.7961590022612269  0.5191819080401814  0.2798712665808623  1.0000
  H   H36       1.0  0.7462199820913397  0.5051172539302442  0.2000828807369786  1.0000
  H   H37       1.0  0.7264409884669828  0.2155585980399266  0.20115241535710032  1.0000
  H   H38       1.0  0.2623371512057418  0.7578114519949751  0.20547690776602687  1.0000
  H   H39       1.0  0.24660752725699805  0.7340791101051349  0.2875455272953147  1.0000
  H   H40       1.0  0.26434173347761447  0.015585876380079394  0.3047871911244685  1.0000
  H   H41       1.0  0.34331085482805435  0.941260857106272  0.302456293773929  1.0000
  H   H42       1.0  0.36665932434783594  0.9728609945414276  0.2205414690583751  1.0000
  H   H43       1.0  0.2895155830487325  0.0489293957776056  0.2230727566658857  1.0000
  H   H44       1.0  0.9739507484606874  0.7589053576753315  0.2841655231427255  1.0000
  H   H45       1.0  0.6541018020554148  0.4960415174687468  0.7200197251585011  1.0000
  H   H46       1.0  0.04812374092311708  0.9087579396170824  0.29410426891345764  1.0000
  H   H47       1.0  0.9979432944234503  0.7906352967914215  0.2024389178603982  1.0000
  H   H48       1.0  0.1104424024564708  0.6836898678707187  0.1994790589570457  1.0000
  H   H49       1.0  0.07068077144839446  0.9406239098900998  0.21200490916309184  1.0000
  H   H50       1.0  0.016164955516273893  0.19326691516348393  0.2049477879510775  1.0000
  H   H51       1.0  0.9886033459201754  0.19448966868397835  0.2870046904606198  1.0000
  H   H52       1.0  0.29588288003146346  0.2759076483095484  0.30891489930812105  1.0000
  H   H53       1.0  0.15396602844787569  0.15928107730608326  0.3019932979582052  1.0000
  H   H54       1.0  0.18699080856101344  0.15972601702715383  0.2204448622364765  1.0000
  H   H55       1.0  0.4711442579471664  0.2987390202399637  0.7636089977163467  1.0000
  H   H56       1.0  0.3269015053064236  0.27919833227230123  0.22725607767897327  1.0000
  H   H57       1.0  0.2201065564853195  0.5082793324497317  0.2919617578342227  1.0000
  H   H58       1.0  0.33465689156736284  0.47908956255420077  0.3007672330431603  1.0000
  H   H59       1.0  0.23855232688566017  0.5036060013954042  0.2099173058387365  1.0000
  H   H60       1.0  0.011695688890391378  0.33625121120541474  0.2822565826091791  1.0000
  H   H61       1.0  0.03987732458606529  0.3355057273234934  0.2009931197615913  1.0000
  H   H62       1.0  0.3590429557755215  0.48321972164524835  0.21827512480843583  1.0000
  H   H63       1.0  0.014317462772929413  0.8210943803294555  0.7944418656548609  1.0000
  H   H64       1.0  0.9822285977128331  0.7758568296756537  0.7137406247002147  1.0000
  H   H65       1.0  0.27140847243964566  0.0291979489524579  0.6853440945971769  1.0000
  H   H66       1.0  0.36612361629039464  0.6740528888116089  0.5275814502708727  1.0000
  H   H67       1.0  0.9698564030129827  0.986570008623637  0.0283291227345828  1.0000
  C   C1        1.0  0.09649948940258918  0.39000415930312465  0.5679650518511253  1.0000
  C   C2        1.0  0.7420065974570205  0.3720427989612176  0.6105217881318055  1.0000
  C   C3        1.0  0.5577231845424393  0.3120176779066313  0.7566882972872122  1.0000
  C   C4        1.0  0.6424665681328108  0.31448820712852676  0.7970992986814309  1.0000
  C   C5        1.0  0.6590208872411053  0.42147962447167236  0.7333239799651141  1.0000
  C   C6        1.0  0.6885376774858826  0.3422434597507972  0.7012347711443427  1.0000
  C   C7        1.0  0.7443149404053668  0.42450750556229616  0.7721268270600419  1.0000
  C   C8        1.0  0.773254945862625  0.3445166616790232  0.7416566534167544  1.0000
  C   C9        1.0  0.6161723060569598  0.3016705585128321  0.8460628210540194  1.0000
  C   C10       1.0  0.715536974676773  0.3569679484400935  0.6523399197014471  1.0000
  C   C11       1.0  0.054346987011520256  0.7658487577864647  0.7272586002156842  1.0000
  C   C12       1.0  0.7929301609813777  0.39849255337417594  0.5641315162332958  1.0000
  C   C13       1.0  0.19453993253317492  0.9723812186198515  0.7064137147690276  1.0000
  C   C14       1.0  0.215776995520315  0.001784072725854499  0.7598210408553713  1.0000
  C   C15       1.0  0.22702924127423793  0.9392342577855433  0.8808798144019507  1.0000
  C   C16       1.0  0.16444326067333756  0.8458729985946789  0.6982858313385236  1.0000
  C   C17       1.0  0.07524733128985164  0.7953110339304601  0.7804443304753335  1.0000
  C   C18       1.0  0.19999161250218833  0.8954045128726024  0.7884464460957902  1.0000
  C   C19       1.0  0.2872229515569841  0.8598789813789833  0.769672880035003  1.0000
  C   C20       1.0  0.2660939223836111  0.830319661085561  0.716451850160617  1.0000
  C   C21       1.0  0.2169563456482706  0.9211606269165457  0.8385581519264562  1.0000
  C   C22       1.0  0.14255602347957094  0.8134409022272134  0.6488540710644912  1.0000
  C   C23       1.0  0.09588413041302607  0.7158320217814306  0.5644495583470645  1.0000
  C   C24       1.0  0.12181118272308582  0.7767154899073248  0.6086634589137179  1.0000
  C   C25       1.0  0.16000444190282082  0.45356939885905234  0.7309819988883532  1.0000
  C   C26       1.0  0.26033158787469546  0.3381775808459295  0.7160235761142886  1.0000
  C   C27       1.0  0.27976004707498686  0.33536922751864034  0.7698690301178035  1.0000
  C   C28       1.0  0.2202679112772259  0.3255680203682587  0.8894915281249284  1.0000
  C   C29       1.0  0.14824122727240757  0.3438296095239651  0.7068947931912817  1.0000
  C   C30       1.0  0.17854785800619058  0.44980534115484255  0.7848661122432861  1.0000
  C   C31       1.0  0.18080286151635513  0.33810575093548323  0.7978848074714338  1.0000
  C   C32       1.0  0.06447085208839813  0.23281315338678607  0.7832145542092875  1.0000
  C   C33       1.0  0.04505056428463659  0.2364805632324831  0.7293735981037344  1.0000
  C   C34       1.0  0.10009322216448875  0.38317706847328026  0.4349203848689883  1.0000
  C   C35       1.0  0.20131011715684372  0.3336864871436873  0.8479913738319027  1.0000
  C   C36       1.0  0.13120514914837136  0.3508128676226788  0.6566338706974123  1.0000
  C   C37       1.0  0.11776083944487681  0.3624364124464421  0.614843947834757  1.0000
  C   C38       1.0  0.7047359074571702  0.4555689283735304  0.2746280713345541  1.0000
  C   C39       1.0  0.5530195082034979  0.2497704128831657  0.2869522331955636  1.0000
  C   C40       1.0  0.5339499319290082  0.23024731085736505  0.23290180191154525  1.0000
  C   C41       1.0  0.5905100247009968  0.29195799551202123  0.11265550822250962  1.0000
  C   C42       1.0  0.6811577654415044  0.3390148675562656  0.2964309897296075  1.0000
  C   C43       1.0  0.6733630131533841  0.44169649604037886  0.22143564362848175  1.0000
  C   C44       1.0  0.6416299856955872  0.31925321428185777  0.20483271390804705  1.0000
  C   C45       1.0  0.7940740225838636  0.3973191236131867  0.4335664356416303  1.0000
  C   C46       1.0  0.7430116094220124  0.29741052845864857  0.21691595089137655  1.0000
  C   C47       1.0  0.7558634455988977  0.2951647618535063  0.2711909274067851  1.0000
  C   C48       1.0  0.6157251220178352  0.3052215978258204  0.1544784516895632  1.0000
  C   C49       1.0  0.7087877331387985  0.35307098802578446  0.3466761569945902  1.0000
  C   C50       1.0  0.7391471819555802  0.3696289002623985  0.3879200496053414  1.0000
  C   C51       1.0  0.17195377182548555  0.7362079770871831  0.27218349204689934  1.0000
  C   C52       1.0  0.2700614324172009  0.9458487680295704  0.286678495791577  1.0000
  C   C53       1.0  0.28570026744383636  0.9673794674485025  0.2327057547546048  1.0000
  C   C54       1.0  0.21575037748815626  0.9119052671195435  0.11312113627631962  1.0000
  C   C55       1.0  0.1570569910504033  0.8313345823872564  0.29719760920726673  1.0000
  C   C56       1.0  0.09791092046384621  0.71574300542256  0.43314630243017405  1.0000
  C   C57       1.0  0.18261307113262143  0.7544338534789359  0.21820446522360026  1.0000
  C   C58       1.0  0.18447000976179587  0.8684106590953107  0.20565197753190742  1.0000
  C   C59       1.0  0.06951802573998121  0.860353567849394  0.22198478890530282  1.0000
  C   C60       1.0  0.05385175005392982  0.8391081383826557  0.275946166485312  1.0000
  C   C61       1.0  0.20092037962666612  0.890125980396064  0.1551698142379934  1.0000
  C   C62       1.0  0.14199285157682326  0.8073511722912767  0.3475829329731824  1.0000
  C   C63       1.0  0.12532512437865503  0.7770423461119476  0.3887435675050313  1.0000
  C   C64       1.0  0.04872772426118389  0.28112654307405177  0.27349591073262053  1.0000
  C   C65       1.0  0.21485762355313645  0.2464453256008241  0.2891855429143604  1.0000
  C   C66       1.0  0.2351021565913811  0.24697466355858205  0.2351872524379601  1.0000
  C   C67       1.0  0.5866871591089832  0.2321224868078744  0.7262073804203908  1.0000
  C   C68       1.0  0.2279729356062177  0.3117489798458521  0.11665996371533541  1.0000
  C   C69       1.0  0.16530637370818368  0.3270809224080367  0.3001245837711651  1.0000
  C   C70       1.0  0.06706443003695736  0.28025979053245453  0.21960536027570046  1.0000
  C   C71       1.0  0.1965653013661495  0.3250845012770823  0.2089242883807358  1.0000
  C   C72       1.0  0.2678777020887466  0.4492938094006576  0.22792486596257083  1.0000
  C   C73       1.0  0.252414638763554  0.44978407993549047  0.2820241747895196  1.0000
  C   C74       1.0  0.2141956658813911  0.320313205891928  0.1586329478238326  1.0000
  C   C75       1.0  0.14542188485212648  0.3331450238636791  0.3501685140753352  1.0000
  C   C76       1.0  0.12653074975612805  0.3480391471392465  0.39083774326522314  1.0000
  C   C77       1.0  0.24109688599595105  0.9758633510499877  0.9294094654647511  1.0000
  C   C78       1.0  0.6719402418279613  0.23507184806524603  0.7650609372073732  1.0000
  C   C79       1.0  0.5421178297151172  0.26785927107823676  0.9347412438045171  1.0000
  C   C80       1.0  0.24399237797515375  0.2957609972226649  0.9354933440160736  1.0000
  C   C81       1.0  0.23701653055227467  0.9587593584863469  0.0658493338662112  1.0000
  C   C82       1.0  0.5411951167513465  0.26806105121005425  0.06595770299201581  1.0000
  C   C83       1.0  0.24567842404414356  0.2841726204184524  0.0693986912415383  1.0000
  C   C84       1.0  0.5912386193923069  0.2905556640700695  0.8880474928582489  1.0000
  I   I1        1.0  0.030741520824641096  0.5652947833721669  0.2901665568421095  1.0000
  O   O1        1.0  0.1678981145574454  0.6874907366722383  0.5496250016769721  1.0000
  O   O2        1.0  0.8213174205648597  0.3256329219541599  0.45148219774863213  1.0000
  O   O3        1.0  0.8165547358464379  0.4937007915674556  0.4519670668192077  1.0000
  O   O4        1.0  0.9992641747501666  0.6898984661108756  0.4516014196841596  1.0000
  O   O5        1.0  0.011242105696275892  0.5068424948685147  0.49922866085293555  1.0000
  O   O6        1.0  0.16887269259345317  0.2008339121685195  0.9527480055814337  1.0000
  O   O7        1.0  0.16766280694974253  0.0003024541321891999  0.945834083957678  1.0000
  O   O8        1.0  0.33004944620081034  0.9842407644582066  0.9515453740504256  1.0000
  O   O9        1.0  0.5191630824465107  0.17184184463991403  0.9540563108478395  1.0000
  O   O10       1.0  0.5197794979343511  0.3426009227208056  0.952682869035961  1.0000
  O   O11       1.0  0.3425521611646118  0.36623914198967367  0.9542105870557267  1.0000
  O   O12       1.0  0.17062335146238897  0.48549102817125345  0.5505509028583333  1.0000
  O   O13       1.0  0.1706425599510552  0.18773122629531963  0.053406648220651214  1.0000
  O   O14       1.0  0.16389061446249553  0.9828363074136066  0.04857068019028791  1.0000
  O   O15       1.0  0.33213751739009467  0.9770882944423674  0.0460477402587856  1.0000
  O   O16       1.0  0.5146008288108702  0.1702654588092898  0.04800916958500782  1.0000
  O   O17       1.0  0.5223210551018339  0.3443281223785775  0.046659017303099404  1.0000
  O   O18       1.0  0.33898421399728546  0.35828820528455196  0.048120245806416106  1.0000
  O   O19       1.0  0.325451112516788  0.1660998677423464  0.0002520469563123  1.0000
  O   O20       1.0  0.0005555542365342903  0.31608573932977174  0.5485610235684959  1.0000
  O   O21       1.0  0.8152176868625954  0.32471401311359926  0.5451041716810536  1.0000
  O   O22       1.0  0.8171890840889303  0.4961169800248085  0.5461561945834035  1.0000
  O   O23       1.0  0.998809160074671  0.691519310728786  0.5446850925172413  1.0000
  O   O24       1.0  0.16982663178853835  0.6881167759378782  0.4487909269563062  1.0000
  O   O25       1.0  0.16964363104010963  0.4835791490254094  0.4490175974893661  1.0000
  O   O26       1.0  0.004496773818345955  0.31038119309703666  0.455307601359806  1.0000
  O   O27       1.0  0.3281263208250068  0.6651757097019201  0.4974621743541904  1.0000
  O   O28       1.0  0.008098818138158501  0.016203384653664405  0.9983267367961305  1.0000
