data_image0
_chemical_formula_structural       Zn16H12C96S16N4Cl16O60
_chemical_formula_sum              "Zn16 H12 C96 S16 N4 Cl16 O60"
_cell_length_a       19.599532628610078
_cell_length_b       19.750698762405964
_cell_length_c       33.308819502290106
_cell_angle_alpha    78.95425491533905
_cell_angle_beta     79.41547852385231
_cell_angle_gamma    64.11860109907944

_space_group_name_H-M_alt    "P 1"
_space_group_IT_number       1

loop_
  _space_group_symop_operation_xyz
  'x, y, z'

loop_
  _atom_site_type_symbol
  _atom_site_label
  _atom_site_symmetry_multiplicity
  _atom_site_fract_x
  _atom_site_fract_y
  _atom_site_fract_z
  _atom_site_occupancy
  Zn  Zn1       1.0  0.056990203366659394  0.40141320987169143  0.47801273625017865  1.0000
  Zn  Zn2       1.0  0.9839911813703563  0.4836488751815296  0.5599972510092998  1.0000
  Zn  Zn3       1.0  0.06024172694981898  0.5602210336110289  0.48205504018385176  1.0000
  Zn  Zn4       1.0  0.8989956653582142  0.5541643285362882  0.48003199322056384  1.0000
  Zn  Zn5       1.0  0.6933225048451845  0.34941801273284073  0.2712330595504753  1.0000
  Zn  Zn6       1.0  0.6928055124341269  0.18683788748765548  0.267057074829296  1.0000
  Zn  Zn7       1.0  0.7682025937534434  0.2673232424645208  0.18993185300109866  1.0000
  Zn  Zn8       1.0  0.8482694634899914  0.19614214105185823  0.2731081654333991  1.0000
  Zn  Zn9       1.0  0.2647358692357002  0.7672162742188321  0.6897685843898032  1.0000
  Zn  Zn10      1.0  0.34869283581489435  0.6966247832333464  0.7712089293997123  1.0000
  Zn  Zn11      1.0  0.19229069338726387  0.8503312442108852  0.7705573972605747  1.0000
  Zn  Zn12      1.0  0.19052828338928407  0.6882617792719684  0.7667469037151661  1.0000
  Zn  Zn13      1.0  0.5590841085692588  0.06213086551849043  0.9829807806067522  1.0000
  Zn  Zn14      1.0  0.4017111383713825  0.05368411925025635  0.9776559929676479  1.0000
  Zn  Zn15      1.0  0.5566186023065569  0.901407595243086  0.9783476707312814  1.0000
  Zn  Zn16      1.0  0.48143030005015675  0.9856115569888788  0.060398381290376314  1.0000
  H   H1        1.0  0.951415615178341  0.2502665991679435  0.3523372857255538  1.0000
  H   H2        1.0  0.7465451337526829  0.45711062676713965  0.34995834350969796  1.0000
  H   H3        1.0  0.9990366898827148  0.2985454600743511  0.4008656465213818  1.0000
  H   H4        1.0  0.0983706423311546  0.5951686968908875  0.6997127133324952  1.0000
  H   H5        1.0  0.199673739770148  0.702589196536515  0.5973372396846981  1.0000
  H   H6        1.0  0.0511237544766772  0.5482405496321049  0.6502924960107065  1.0000
  H   H7        1.0  0.548561528796327  0.052401705386920065  0.1526174477401909  1.0000
  H   H8        1.0  0.6539639943096844  0.15259156611491423  0.04866972472672871  1.0000
  H   H9        1.0  0.5984861061503891  0.10031401682334012  0.20014530455857482  1.0000
  H   H10       1.0  0.5025182853790112  0.7963454184542236  0.8977771079332015  1.0000
  H   H11       1.0  0.29557510016319094  0.0009694445737195977  0.8997768878995984  1.0000
  H   H12       1.0  0.45182067198156517  0.750996033627331  0.8493615086789034  1.0000
  C   C1        1.0  0.0628531137020758  0.31749686000400595  0.5616508804057645  1.0000
  C   C2        1.0  0.06969370218891409  0.5688559028171909  0.5684216568205115  1.0000
  C   C3        1.0  0.1842588746226852  0.43996278550070406  0.437692610860033  1.0000
  C   C4        1.0  0.9360794650822368  0.6823075830410802  0.4390253152661643  1.0000
  C   C5        1.0  0.9303252521202975  0.4299299227765307  0.4322182636684886  1.0000
  C   C6        1.0  0.8166169323623009  0.5600838193933059  0.5632343704260591  1.0000
  C   C7        1.0  0.566468964399192  0.30796485468206913  0.3103421223211242  1.0000
  C   C8        1.0  0.6816827319375989  0.181044656924321  0.1810913638818121  1.0000
  C   C9        1.0  0.6911681176736977  0.4341782900975559  0.1882120458978704  1.0000
  C   C10       1.0  0.9345215125284199  0.18628811532855852  0.1900417663291734  1.0000
  C   C11       1.0  0.8175065326578093  0.32188198851638833  0.31959103016936297  1.0000
  C   C12       1.0  0.8142799143342998  0.06573475376095672  0.31286039985433683  1.0000
  C   C13       1.0  0.4325148980682556  0.6908722655346299  0.688300812281099  1.0000
  C   C14       1.0  0.3186945425242413  0.820399997915196  0.8181415398610383  1.0000
  C   C15       1.0  0.1861556623022551  0.9335028974508578  0.6869076932090934  1.0000
  C   C16       1.0  0.06702781908322211  0.808752828946851  0.811879580280781  1.0000
  C   C17       1.0  0.17998172439742888  0.6801465461783779  0.6804668426956794  1.0000
  C   C18       1.0  0.3141444945044327  0.5654270373892417  0.8101957187490995  1.0000
  C   C19       1.0  0.43671608222724245  0.1840725451809747  0.9383309151159266  1.0000
  C   C20       1.0  0.4315287236834564  0.9296997078128655  0.930257947675848  1.0000
  C   C21       1.0  0.683685144330461  0.9419229845513258  0.9383298505689552  1.0000
  C   C22       1.0  0.5600832739299477  0.8181686769275345  0.062124128356458606  1.0000
  C   C23       1.0  0.5687716814430601  0.07130446936199063  0.0692014958169835  1.0000
  C   C24       1.0  0.31437133688284996  0.06266770467112794  0.06024760035942481  1.0000
  C   C25       1.0  0.9007862720074228  0.4045522617147131  0.4022257918661508  1.0000
  C   C26       1.0  0.8463788461185473  0.35068724950287583  0.34827926324758346  1.0000
  C   C27       1.0  0.8298442590166103  0.44856135837856215  0.38724641239061697  1.0000
  C   C28       1.0  0.9176892528392031  0.30592745436729973  0.3624724197407261  1.0000
  C   C29       1.0  0.8020456551191516  0.4223923212090029  0.36091154291534616  1.0000
  C   C30       1.0  0.944073684934878  0.3327509762781135  0.38921438369334993  1.0000
  C   C31       1.0  0.09751377599632599  0.5996396322264986  0.5965212941740745  1.0000
  C   C32       1.0  0.15155542481099363  0.6516180394937122  0.6514674760877951  1.0000
  C   C33       1.0  0.13928293317948706  0.643573406098305  0.5822117290391731  1.0000
  C   C34       1.0  0.109615196805926  0.6082401055425848  0.6665689409108565  1.0000
  C   C35       1.0  0.1668772084402335  0.669019704680551  0.6089859161837836  1.0000
  C   C36       1.0  0.08334006055181932  0.5825179270961627  0.6392385624341442  1.0000
  C   C37       1.0  0.3062992500892178  0.45355843609589636  0.3996769981558828  1.0000
  C   C38       1.0  0.44492541226878757  0.29379599600282813  0.3490532116958249  1.0000
  C   C39       1.0  0.2593103434871368  0.4153577429508105  0.41314062331344553  1.0000
  C   C40       1.0  0.4919401175503141  0.33190059239798597  0.3354373576236043  1.0000
  C   C41       1.0  0.3773742868894061  0.3380771494636363  0.3725978075035812  1.0000
  C   C42       1.0  0.3741754084741444  0.40898963664711363  0.3763759776653116  1.0000
  C   C43       1.0  0.7252977225493212  0.5753493979365982  0.6311373530576034  1.0000
  C   C44       1.0  0.5240193044118158  0.6754467312934694  0.6205904147156146  1.0000
  C   C45       1.0  0.7423480812761838  0.585130005705352  0.5885214575489071  1.0000
  C   C46       1.0  0.5069153633324746  0.6660266163771454  0.6632303970676999  1.0000
  C   C47       1.0  0.6037790262432522  0.6427830471065122  0.6089334526167249  1.0000
  C   C48       1.0  0.6456131335747486  0.6087654638336063  0.6428471406539983  1.0000
  C   C49       1.0  0.07638345926608278  0.22527534502294344  0.6294465191968115  1.0000
  C   C50       1.0  0.1730092556163285  0.025489733447592828  0.6190526623078012  1.0000
  C   C51       1.0  0.08636335153800452  0.24311698556699923  0.5868512705795793  1.0000
  C   C52       1.0  0.16257317138561683  0.007783964333462735  0.661650613639594  1.0000
  C   C53       1.0  0.14117714974039328  0.10491028926350772  0.6073123817110113  1.0000
  C   C54       1.0  0.10770532510262139  0.14582588258891602  0.6411611489049776  1.0000
  C   C55       1.0  0.842977343958637  0.7999670299011613  0.3965047756941047  1.0000
  C   C56       1.0  0.9077835719056749  0.9474053471631837  0.35481820001163555  1.0000
  C   C57       1.0  0.9107928980911666  0.7571025081067051  0.4141707025184118  1.0000
  C   C58       1.0  0.8397346974299892  0.9907612645107595  0.3374466298761191  1.0000
  C   C59       1.0  0.9087980867966152  0.8779833221294101  0.3765343751892516  1.0000
  C   C60       1.0  0.8418391602298172  0.8696047050059194  0.3750270456661369  1.0000
  C   C61       1.0  0.6548955492786206  0.1519501422182047  0.15154271543311637  1.0000
  C   C62       1.0  0.598290175066019  0.09949857759080057  0.09790117101233159  1.0000
  C   C63       1.0  0.6700924195643267  0.16576013327613023  0.10863228931772538  1.0000
  C   C64       1.0  0.5827149098045581  0.08450843340376944  0.14060765513539053  1.0000
  C   C65       1.0  0.6419802805127403  0.14078756561578848  0.0818594220821751  1.0000
  C   C66       1.0  0.6105804742037577  0.11081623407099543  0.16688198443200256  1.0000
  C   C67       1.0  0.6745300596610306  0.5260533088589839  0.12013214751572575  1.0000
  C   C68       1.0  0.5755097135123748  0.7260634631648915  0.13013718431562893  1.0000
  C   C69       1.0  0.6657768232131502  0.5085182997001851  0.162818458850829  1.0000
  C   C70       1.0  0.5844690487866301  0.7438196532181608  0.08747686496688091  1.0000
  C   C71       1.0  0.6082321561008969  0.6466600401764138  0.14201562259724915  1.0000
  C   C72       1.0  0.6414346860460611  0.6055137297107577  0.10825465816807883  1.0000
  C   C73       1.0  0.08223582197817342  0.12283706155956513  0.17801598428425075  1.0000
  C   C74       1.0  0.1665473482389288  0.12563650817870106  0.07212240198899879  1.0000
  C   C75       1.0  0.009445429079178799  0.16080969227821384  0.1653179222381382  1.0000
  C   C76       1.0  0.23935710667634416  0.08762797730869215  0.0848235343409911  1.0000
  C   C77       1.0  0.10919520072626199  0.13836700768990082  0.1061490761790651  1.0000
  C   C78       1.0  0.1394883261548969  0.10997489141521302  0.1439841191447542  1.0000
  C   C79       1.0  0.34547171143579186  0.8490935299384363  0.8478911204453965  1.0000
  C   C80       1.0  0.4021778526613247  0.9012414859506426  0.9016269757127373  1.0000
  C   C81       1.0  0.3021384332574826  0.9192963159220117  0.8627786945562902  1.0000
  C   C82       1.0  0.4462821317413415  0.8305602821714831  0.8876196775985434  1.0000
  C   C83       1.0  0.3297513430934416  0.9459866633672295  0.8889233747076303  1.0000
  C   C84       1.0  0.4180738537086129  0.8053813111915462  0.8609446244609913  1.0000
  C   C85       1.0  0.4082388571213968  0.44773254979886457  0.8521644159782225  1.0000
  C   C86       1.0  0.34244358769502264  0.30206326766338526  0.8967165339984788  1.0000
  C   C87       1.0  0.3396373069794905  0.490942911769686  0.8353516804281327  1.0000
  C   C88       1.0  0.4111025917636084  0.2587781266791609  0.9134745876836304  1.0000
  C   C89       1.0  0.341423761127885  0.3710796372600883  0.8744264141285569  1.0000
  C   C90       1.0  0.409157676629512  0.37887654381547975  0.8746482901326046  1.0000
  C   C91       1.0  0.9446911629213729  0.7956150499548756  0.8498881673376103  1.0000
  C   C92       1.0  0.8062653722256101  0.9551048501306383  0.9006801639778388  1.0000
  C   C93       1.0  0.9923386029490258  0.8331890754038159  0.8369065214584025  1.0000
  C   C94       1.0  0.758604086925807  0.9175228104803282  0.9136023258552086  1.0000
  C   C95       1.0  0.8742971070016665  0.9105066684518236  0.8774999128936612  1.0000
  C   C96       1.0  0.8769188348012804  0.8400796780491719  0.8732114277566296  1.0000
  S   S1        1.0  0.2982317318979639  0.32522464290745035  0.3976177304221622  1.0000
  S   S2        1.0  0.453540629082525  0.4215866038854373  0.3515166968920838  1.0000
  S   S3        1.0  0.6612261268620969  0.6348999978568982  0.5628621848915998  1.0000
  S   S4        1.0  0.5881225214350962  0.6172275532476874  0.6889288213311602  1.0000
  S   S5        1.0  0.13381431567245272  0.1629623878173661  0.5612498208397625  1.0000
  S   S6        1.0  0.11432173881349429  0.08790355050544457  0.6872182309320252  1.0000
  S   S7        1.0  0.9728700899893142  0.8017070546413622  0.40446313109600857  1.0000
  S   S8        1.0  0.7774347052398197  0.9463744846382552  0.34752281980600946  1.0000
  S   S9        1.0  0.6168153828924119  0.5888676590552322  0.18822040395551912  1.0000
  S   S10       1.0  0.6327014328309417  0.6634099877254586  0.06206534075443669  1.0000
  S   S11       1.0  0.011100730117540498  0.18029911630475234  0.11192058577091758  1.0000
  S   S12       1.0  0.23754807947523915  0.06776374993820868  0.1382385683249439  1.0000
  S   S13       1.0  0.27650602122905343  0.44752939548614296  0.8470576354921986  1.0000
  S   S14       1.0  0.4739877229055196  0.3024921910240863  0.9020982351131223  1.0000
  S   S15       1.0  0.9543939510857624  0.9225047196019532  0.8533642278261482  1.0000
  S   S16       1.0  0.7969681347101484  0.8279189033739134  0.897440305072095  1.0000
  N   N1        1.0  0.7811260299102044  0.5267036077976499  0.39734148138293085  1.0000
  N   N2        1.0  0.1542681600959455  0.6680087313935205  0.5377729426599842  1.0000
  N   N3        1.0  0.7192235788443071  0.2054997697293004  0.0890542117732238  1.0000
  N   N4        1.0  0.223227987415882  0.9685864532478873  0.8528050274355438  1.0000
  Cl  Cl1       1.0  0.2887846381125385  0.5417173874341261  0.4092698313035115  1.0000
  Cl  Cl2       1.0  0.4626115421509668  0.20515227733154262  0.3399519021724231  1.0000
  Cl  Cl3       1.0  0.7888129218509903  0.5301549736581708  0.6666404331608929  1.0000
  Cl  Cl4       1.0  0.4606931748099114  0.7200698475719207  0.585014250794309  1.0000
  Cl  Cl5       1.0  0.03203029744211249  0.28763535296170767  0.6648708256535585  1.0000
  Cl  Cl6       1.0  0.21754176521195492  0.963061981917143  0.5836813625505144  1.0000
  Cl  Cl7       1.0  0.7689309748880432  0.7753954648230845  0.3990955134432426  1.0000
  Cl  Cl8       1.0  0.9828823804948855  0.9708370503256843  0.351620292906027  1.0000
  Cl  Cl9       1.0  0.7175736428312264  0.46331265260194965  0.08491840293739013  1.0000
  Cl  Cl10      1.0  0.5315160200722246  0.7885367180798893  0.1655339775670441  1.0000
  Cl  Cl11      1.0  0.10432780209873728  0.09335551674195841  0.22743639079155994  1.0000
  Cl  Cl12      1.0  0.1446308930206328  0.1552033407462261  0.02270025241541869  1.0000
  Cl  Cl13      1.0  0.4838264212489634  0.47083124122077896  0.8477300244190572  1.0000
  Cl  Cl14      1.0  0.26679964019427155  0.27904814879197914  0.9011624951323609  1.0000
  Cl  Cl15      1.0  0.9616430642048713  0.7074903494028036  0.840256656192892  1.0000
  Cl  Cl16      1.0  0.7890158299319765  0.04325037170308833  0.9102788910102858  1.0000
  O   O1        1.0  0.0003734665714886999  0.49933203996313597  0.49971161873901326  1.0000
  O   O2        1.0  0.074040988202583  0.3163380589331625  0.5225737723263251  1.0000
  O   O3        1.0  0.022479235673721096  0.5404961541358659  0.5851593341740297  1.0000
  O   O4        1.0  0.1529411343258857  0.5079083629681378  0.44620312106392385  1.0000
  O   O5        1.0  0.03405477515332219  0.3758865538497744  0.5805343402587153  1.0000
  O   O6        1.0  0.1569480137520216  0.3899053709671281  0.44817531373296043  1.0000
  O   O7        1.0  0.096099885801749  0.5726288275263017  0.5306174788640874  1.0000
  O   O8        1.0  0.0007166279713147001  0.6588666924271821  0.4527307260854839  1.0000
  O   O9        1.0  0.8827159968346551  0.4868767825045879  0.44990805239513065  1.0000
  O   O10       1.0  0.8927742752094474  0.6476344179530854  0.4447381611665904  1.0000
  O   O11       1.0  0.00031940272257459997  0.3914161160612509  0.4378237217922418  1.0000
  O   O12       1.0  0.8758102815836465  0.5192811238633155  0.5815589875933894  1.0000
  O   O13       1.0  0.8146111796948218  0.5818819829365298  0.5245007803196912  1.0000
  O   O14       1.0  0.7498632675676474  0.2504644665895911  0.2504386529045987  1.0000
  O   O15       1.0  0.5969284138999384  0.35542478092862945  0.30371171363982796  1.0000
  O   O16       1.0  0.6744689636366629  0.1548439172110038  0.21891885267487507  1.0000
  O   O17       1.0  0.7313186215104608  0.37585076673537543  0.16986247869634502  1.0000
  O   O18       1.0  0.5939757831598128  0.24338699993461435  0.29747026799792303  1.0000
  O   O19       1.0  0.6704612531961303  0.43528746506316196  0.2270238370539985  1.0000
  O   O20       1.0  0.7082830605738266  0.23002717382120616  0.1659778549791326  1.0000
  O   O21       1.0  0.876599690565719  0.21786247975188652  0.16959021077150274  1.0000
  O   O22       1.0  0.8610367529517403  0.2559691528792599  0.3096113685293389  1.0000
  O   O23       1.0  0.9335246635349106  0.1754264584548012  0.22905634817066564  1.0000
  O   O24       1.0  0.752323241323765  0.36544237607994057  0.30773347389302325  1.0000
  O   O25       1.0  0.7473087307649138  0.09197228972789158  0.3015633871372998  1.0000
  O   O26       1.0  0.859876951704905  0.09812808618850263  0.3048897315832875  1.0000
  O   O27       1.0  0.24869640197017154  0.7507847882609585  0.7501638177982527  1.0000
  O   O28       1.0  0.3732695051794792  0.72202484035148  0.6693634178782375  1.0000
  O   O29       1.0  0.3591373367699475  0.7518458357585305  0.8114299986705261  1.0000
  O   O30       1.0  0.16600479605723706  0.9347182410201001  0.72570592978402  1.0000
  O   O31       1.0  0.4343634241808303  0.6785388912860029  0.7274347513102339  1.0000
  O   O32       1.0  0.2241815184796607  0.8749788330877307  0.6683866054098146  1.0000
  O   O33       1.0  0.25889542527949055  0.8668991913068568  0.8017669155049417  1.0000
  O   O34       1.0  0.0980694488181655  0.855721157612898  0.8051471544686066  1.0000
  O   O35       1.0  0.1656276103517413  0.6616261205432893  0.7188371353072326  1.0000
  O   O36       1.0  0.0938881666573721  0.7441614851379584  0.7991165615753388  1.0000
  O   O37       1.0  0.21601284661622336  0.7207500721409306  0.6641412251433465  1.0000
  O   O38       1.0  0.3604287243319249  0.5969155484374938  0.8010277199233469  1.0000
  O   O39       1.0  0.24653490503231984  0.5918230699437785  0.7997347533955121  1.0000
  O   O40       1.0  0.5006028632763133  0.9998301013062016  0.9999034584667753  1.0000
  O   O41       1.0  0.5029128577214124  0.15899548780092243  0.9504132197808415  1.0000
  O   O42       1.0  0.3875225773932272  0.9947714160656884  0.9412206930448902  1.0000
  O   O43       1.0  0.6537088645057523  0.8939378896508999  0.945923026784449  1.0000
  O   O44       1.0  0.3918441591366033  0.15097519873257437  0.9455993309627074  1.0000
  O   O45       1.0  0.6552825153177365  0.007538752396619919  0.9499716913173302  1.0000
  O   O46       1.0  0.4975999488075971  0.8867075952235911  0.9411521961608996  1.0000
  O   O47       1.0  0.5768678405973091  0.8166283763447525  0.023118595452260127  1.0000
  O   O48       1.0  0.5295023725754078  0.033906706957473914  0.08568958592125848  1.0000
  O   O49       1.0  0.525015926926045  0.8768948402260434  0.08072293209686174  1.0000
  O   O50       1.0  0.5855704490250702  0.08710148823116978  0.03078568816502519  1.0000
  O   O51       1.0  0.3157640376909042  0.07548652607479775  0.02119753299991341  1.0000
  O   O52       1.0  0.37223814901453517  0.029623786717834846  0.08077278384632079  1.0000
  O   O53       1.0  0.8022277627543346  0.5767678642667562  0.38034117430345293  1.0000
  O   O54       1.0  0.721347020363666  0.5359948437963241  0.4202326674190714  1.0000
  O   O55       1.0  0.1001110952468167  0.7194742792002417  0.5211379521667611  1.0000
  O   O56       1.0  0.22058734971385258  0.6376919084927907  0.5215931293801217  1.0000
  O   O57       1.0  0.7886544992344396  0.16916579678894572  0.09025348962876481  1.0000
  O   O58       1.0  0.6870373484671219  0.270247877923133  0.07129379294283916  1.0000
  O   O59       1.0  0.17265834414387632  0.9486194483316124  0.8705836800354945  1.0000
  O   O60       1.0  0.21401901293879183  0.027665304747905923  0.8292754512207878  1.0000
