data_image0
_chemical_formula_structural       K4H44C36O16
_chemical_formula_sum              "K4 H44 C36 O16"
_cell_length_a       6.895171907257379
_cell_length_b       9.045411346014156
_cell_length_c       16.145429137427232
_cell_angle_alpha    89.99982098353537
_cell_angle_beta     91.91348003044236
_cell_angle_gamma    90.00009895024263

_space_group_name_H-M_alt    "P 1"
_space_group_IT_number       1

loop_
  _space_group_symop_operation_xyz
  'x, y, z'

loop_
  _atom_site_type_symbol
  _atom_site_label
  _atom_site_symmetry_multiplicity
  _atom_site_fract_x
  _atom_site_fract_y
  _atom_site_fract_z
  _atom_site_occupancy
  K   K1        1.0  0.26057752815839313  0.631501405334646  0.4649141836401611  1.0000
  K   K2        1.0  0.23942978467316328  0.13150182480990222  0.5350882247643085  1.0000
  K   K3        1.0  0.7394344556381188  0.3684941452227477  0.535090271682364  1.0000
  K   K4        1.0  0.7605807671351243  0.8685014644906771  0.46491125415622037  1.0000
  H   H1        1.0  0.1672974962551734  0.44112760355154274  0.015295857735388597  1.0000
  H   H2        1.0  0.33270901616358384  0.941131046359139  0.9847053710003734  1.0000
  H   H3        1.0  0.8327101533410471  0.558859102753452  0.9847035777763862  1.0000
  H   H4        1.0  0.6672957336591311  0.05888772040036369  0.015293401724875404  1.0000
  H   H5        1.0  0.8706828456539457  0.3121316741593745  0.2356408149190727  1.0000
  H   H6        1.0  0.6293220918727941  0.8121360604891378  0.7643631343296916  1.0000
  H   H7        1.0  0.1293175436929914  0.6878671929997464  0.7643597506950854  1.0000
  H   H8        1.0  0.3706869897463677  0.18787607306020246  0.23564127755522427  1.0000
  H   H9        1.0  0.8898628019324522  0.3193777679239744  0.084021425765215  1.0000
  H   H10       1.0  0.6101450577421235  0.8193879254166843  0.9159813156256503  1.0000
  H   H11       1.0  0.11013758979401443  0.6806133605064273  0.9159785205202197  1.0000
  H   H12       1.0  0.38986547498712565  0.180636368995664  0.08402311796027821  1.0000
  H   H13       1.0  0.45323356733463543  0.6728252524927071  0.0628635918323752  1.0000
  H   H14       1.0  0.04676947872709292  0.17282430200150153  0.9371386795524399  1.0000
  H   H15       1.0  0.5467624734885634  0.3271669814695883  0.9371356699818632  1.0000
  H   H16       1.0  0.953217862679516  0.8271723540921413  0.06285859398202828  1.0000
  H   H17       1.0  0.5803240905433498  0.5041762632332762  0.07286728787820348  1.0000
  H   H18       1.0  0.9196729586366106  0.0041780776650668  0.9271339918501127  1.0000
  H   H19       1.0  0.4196733989930408  0.49581928732698066  0.9271326149802019  1.0000
  H   H20       1.0  0.08032164303316591  0.995819683969458  0.0728621515704333  1.0000
  H   H21       1.0  0.7356668881120357  0.5941044959309281  0.19644515338737983  1.0000
  H   H22       1.0  0.7643376072398737  0.09411231200504488  0.8035554591210143  1.0000
  H   H23       1.0  0.2643305966410027  0.4058833158954798  0.8035559881486732  1.0000
  H   H24       1.0  0.2356598990087662  0.9058821330342609  0.19644010839014203  1.0000
  H   H25       1.0  0.594492660848225  0.7566265988549502  0.19133126142929058  1.0000
  H   H26       1.0  0.90551797678895  0.2566301533757238  0.8086697745447038  1.0000
  H   H27       1.0  0.4055193563773898  0.24337116279220788  0.8086645231948919  1.0000
  H   H28       1.0  0.09447226442588892  0.7433676082509421  0.1913281617474496  1.0000
  H   H29       1.0  0.22780696770303172  0.9151979486602927  0.3795394119712867  1.0000
  H   H30       1.0  0.2721864400962417  0.4151990465318177  0.6204591891270255  1.0000
  H   H31       1.0  0.77219051467511  0.08480202402650151  0.6204623488896459  1.0000
  H   H32       1.0  0.7278096007385317  0.5848042427596595  0.3795400726775995  1.0000
  H   H33       1.0  0.49158094335694363  0.7741624412223373  0.610990498509885  1.0000
  H   H34       1.0  0.008419412689008301  0.2741611465318313  0.38901155316806774  1.0000
  H   H35       1.0  0.5084179877286062  0.22583532039782028  0.3890119034000178  1.0000
  H   H36       1.0  0.9915780696856589  0.7258355095562122  0.6109902076957496  1.0000
  H   H37       1.0  0.6547136280348483  0.6511012619943486  0.6099270271901387  1.0000
  H   H38       1.0  0.8452851846480628  0.15110262298501445  0.39007277999170487  1.0000
  H   H39       1.0  0.34528385433866055  0.3488942885607713  0.39007473367463763  1.0000
  H   H40       1.0  0.15471665101981813  0.8488951386386745  0.6099290460059306  1.0000
  H   H41       1.0  0.4376446575320117  0.9842761993204905  0.3826182833544037  1.0000
  H   H42       1.0  0.062348892513888615  0.4842759280360625  0.6173808169135311  1.0000
  H   H43       1.0  0.5623513713576785  0.015720456764931598  0.6173840751332803  1.0000
  H   H44       1.0  0.9376471459297876  0.5157240446549521  0.38261906422943776  1.0000
  C   C1        1.0  0.1394824834927846  0.4299919803055019  0.2607818216507455  1.0000
  C   C2        1.0  0.3605211034089138  0.9299890757723475  0.7392193830386447  1.0000
  C   C3        1.0  0.8605164571467512  0.5700090979202558  0.7392181029144425  1.0000
  C   C4        1.0  0.6394836440053382  0.0700097913929199  0.2607800090393724  1.0000
  C   C5        1.0  0.2958232852454615  0.5013200757657258  0.21996193619292365  1.0000
  C   C6        1.0  0.20418085042813777  0.0013179913195741997  0.7800412745866152  1.0000
  C   C7        1.0  0.7041698510000389  0.49867658032471235  0.7800379015297452  1.0000
  C   C8        1.0  0.795822438723562  0.9986786647738198  0.21995995378810554  1.0000
  C   C9        1.0  0.3056667746798709  0.5039360141973434  0.1325982596405382  1.0000
  C   C10       1.0  0.19433012770171845  0.0039378567951189  0.867400502678791  1.0000
  C   C11       1.0  0.694335080089033  0.4960617474400236  0.8673986116734225  1.0000
  C   C12       1.0  0.8056644668179092  0.9960720656963814  0.1325974987375531  1.0000
  C   C13       1.0  0.1613680303052476  0.43960620048733295  0.08266037929939068  1.0000
  C   C14       1.0  0.3386355624056137  0.9396078117550459  0.917344524674135  1.0000
  C   C15       1.0  0.8386309055439868  0.5603805058070674  0.9173407839492143  1.0000
  C   C16       1.0  0.6613706265647326  0.06039989966763669  0.08265736644961659  1.0000
  C   C17       1.0  0.4619182201988394  0.5791772418086579  0.2564944641374325  1.0000
  C   C18       1.0  0.03808608326809091  0.07917624231604488  0.7435073725316099  1.0000
  C   C19       1.0  0.5380749184481816  0.420832680678508  0.7435047542382376  1.0000
  C   C20       1.0  0.9619143132428933  0.920823730381123  0.2564913350752107  1.0000
  C   C21       1.0  0.9929429464474072  0.36698174360546437  0.20754079066131226  1.0000
  C   C22       1.0  0.5070621035338547  0.8669836003647476  0.7924636825091226  1.0000
  C   C23       1.0  0.0070588916080965005  0.633016018019937  0.7924604160008641  1.0000
  C   C24       1.0  0.4929455293721148  0.13302521658663835  0.20754008833162627  1.0000
  C   C25       1.0  0.0050861808240086  0.3716521963303378  0.12174071080178088  1.0000
  C   C26       1.0  0.49491727915489764  0.8716531266421441  0.8782618340418151  1.0000
  C   C27       1.0  0.9949141965790036  0.6283411431556445  0.8782629514944771  1.0000
  C   C28       1.0  0.5050874658844507  0.1283579013835165  0.12173817736108107  1.0000
  C   C29       1.0  0.4874208395896887  0.5815833134795555  0.10603747606073448  1.0000
  C   C30       1.0  0.012582020205584906  0.08158255543808221  0.8939637153754985  1.0000
  C   C31       1.0  0.5125766571061166  0.4184089204870745  0.8939605687941776  1.0000
  C   C32       1.0  0.9874140277851282  0.9184141006610174  0.1060336884285178  1.0000
  C   C33       1.0  0.5864633512983843  0.6354325589139692  0.18713824780742525  1.0000
  C   C34       1.0  0.9135426816788839  0.13543610103989318  0.8128623145228742  1.0000
  C   C35       1.0  0.4135341525660935  0.3645652027223818  0.8128579390363055  1.0000
  C   C36       1.0  0.08645336392651612  0.8645627661233347  0.18713570861468296  1.0000
  O   O1        1.0  0.3467368662096676  0.924492144641768  0.41535268232575356  1.0000
  O   O2        1.0  0.15325510756249372  0.4244910699654695  0.5846465002303346  1.0000
  O   O3        1.0  0.653257706813207  0.0755100391039178  0.5846508931164465  1.0000
  O   O4        1.0  0.8467380286864812  0.575508902723726  0.41535333748944936  1.0000
  O   O5        1.0  0.13180913342849726  0.4216670894371574  0.3415829089398413  1.0000
  O   O6        1.0  0.36819152191253585  0.9216668519507821  0.6584213634831427  1.0000
  O   O7        1.0  0.8681869026275495  0.5783328832521518  0.658417591538587  1.0000
  O   O8        1.0  0.6318132159512048  0.07833201520764281  0.3415805059367116  1.0000
  O   O9        1.0  0.5000040306871371  0.6013573672657841  0.33152261762130303  1.0000
  O   O10       1.0  1.7703193151005988e-06  0.1013578362612009  0.6684792021739909  1.0000
  O   O11       1.0  0.4999891031950414  0.3986625050142294  0.6684778394166314  1.0000
  O   O12       1.0  2.833189960000285e-06  0.8986436788850724  0.33151705273937176  1.0000
  O   O13       1.0  0.5543208916486081  0.7010282645164096  0.5745644848302689  1.0000
  O   O14       1.0  0.9456809253712707  0.201022931486925  0.4254358982641122  1.0000
  O   O15       1.0  0.4456823975088753  0.2989739192415755  0.42543674353964883  1.0000
  O   O16       1.0  0.054318005716588416  0.7989770411990732  0.5745665036438722  1.0000
