data_image0
_chemical_formula_structural       Mg6H72C84N4O32F24
_chemical_formula_sum              "Mg6 H72 C84 N4 O32 F24"
_cell_length_a       8.382427579000117
_cell_length_b       16.316502556677644
_cell_length_c       21.69806500231659
_cell_angle_alpha    107.61430515794717
_cell_angle_beta     89.99999690257239
_cell_angle_gamma    90.00001882774406

_space_group_name_H-M_alt    "P 1"
_space_group_IT_number       1

loop_
  _space_group_symop_operation_xyz
  'x, y, z'

loop_
  _atom_site_type_symbol
  _atom_site_label
  _atom_site_symmetry_multiplicity
  _atom_site_fract_x
  _atom_site_fract_y
  _atom_site_fract_z
  _atom_site_occupancy
  Mg  Mg1       1.0  0.499999707662269  0.5000000243687951  0.9999999183390426  1.0000
  Mg  Mg2       1.0  0.9999999652249015  1.0654224520018698e-07  0.5000000602745728  1.0000
  Mg  Mg3       1.0  0.8533388417900055  0.5981756956338559  0.9609983381325475  1.0000
  Mg  Mg4       1.0  0.3533382272537295  0.9018240276559695  0.5390019089663909  1.0000
  Mg  Mg5       1.0  0.14666169695596662  0.40182392316398113  0.0390014724128491  1.0000
  Mg  Mg6       1.0  0.6466611185203774  0.09817559064161693  0.460998362335637  1.0000
  H   H1        1.0  0.7622136858869836  0.38484581070183305  0.015346132582656881  1.0000
  H   H2        1.0  0.2622140191623857  0.11515308100067051  0.4846530969465944  1.0000
  H   H3        1.0  0.23778685285882517  0.6151531655717832  0.9846530705242599  1.0000
  H   H4        1.0  0.7377865195833948  0.8848458947728091  0.5153465669169676  1.0000
  H   H5        1.0  0.38128332550274985  0.0008792055566502001  0.23884632995861915  1.0000
  H   H6        1.0  0.881283031051815  0.499120992737069  0.2611536559777292  1.0000
  H   H7        1.0  0.6187160202715491  0.9991210557652935  0.7611540880252434  1.0000
  H   H8        1.0  0.1187163147223274  0.5008786260606614  0.7388461545676533  1.0000
  H   H9        1.0  0.5643237046230353  0.9807427115862667  0.07086350665147728  1.0000
  H   H10       1.0  0.0643239843474674  0.5192573920674307  0.4291353787595681  1.0000
  H   H11       1.0  0.43567564115110696  0.0192569072114637  0.9291363038939123  1.0000
  H   H12       1.0  0.9356753614269665  0.48074287125508164  0.5708631961977346  1.0000
  H   H13       1.0  0.25157746119943164  0.018581514500155504  0.3443368429247896  1.0000
  H   H14       1.0  0.7515771701110835  0.48141801784680643  0.1556629938386607  1.0000
  H   H15       1.0  0.7484230775465407  0.9814181042976743  0.6556629676206072  1.0000
  H   H16       1.0  0.24842217566286  0.5185809579265593  0.8443366700248942  1.0000
  H   H17       1.0  0.9522553288716721  0.6804234147905815  0.8425219771432138  1.0000
  H   H18       1.0  0.45225583827465243  0.8195769690048138  0.657478418537316  1.0000
  H   H19       1.0  0.04774401690282559  0.31957748955572646  0.1574785875224833  1.0000
  H   H20       1.0  0.5477435074994831  0.18042264979290937  0.3425213920080735  1.0000
  H   H21       1.0  0.30287668633738457  0.7298276808789766  0.11301529266069822  1.0000
  H   H22       1.0  0.8028762280955063  0.7701731064571006  0.38698512628362636  1.0000
  H   H23       1.0  0.6971238524089499  0.27017322346743106  0.8869852720050131  1.0000
  H   H24       1.0  0.19712311767899138  0.22982779788920027  0.6130154383820781  1.0000
  H   H25       1.0  0.8133300306138055  0.0886255789691717  0.2708288707388817  1.0000
  H   H26       1.0  0.31332939572708807  0.4113746068152653  0.2291715746490297  1.0000
  H   H27       1.0  0.18667050813233027  0.9113746823528787  0.729171547244995  1.0000
  H   H28       1.0  0.6866711430188488  0.5886250114824277  0.7708286966530122  1.0000
  H   H29       1.0  0.6982896265788482  0.8392541686713885  0.040409112705852124  1.0000
  H   H30       1.0  0.1982899924717216  0.6607453146329333  0.45959055010951727  1.0000
  H   H31       1.0  0.3017097191952871  0.1607454501263419  0.9595906978395377  1.0000
  H   H32       1.0  0.8017093533024137  0.33925430416478974  0.5404092604358722  1.0000
  H   H33       1.0  0.16620033227837888  0.8714414362775997  0.14543897579434167  1.0000
  H   H34       1.0  0.6662009810335902  0.6285593274044529  0.3545609797684078  1.0000
  H   H35       1.0  0.8337990134959199  0.12855882504434388  0.8545614421895207  1.0000
  H   H36       1.0  0.3337983647407441  0.3714409344176346  0.6454389774588165  1.0000
  H   H37       1.0  0.9413752784245516  0.07182967781024982  0.16518886758301218  1.0000
  H   H38       1.0  0.44137463957532924  0.4281711741276126  0.334811266189277  1.0000
  H   H39       1.0  0.058624067349974496  0.928171227036195  0.8348112363260539  1.0000
  H   H40       1.0  0.5586247061989696  0.5718290871943381  0.6651891517945855  1.0000
  H   H41       1.0  0.3105832312500141  0.7122462544348734  0.7962100160089631  1.0000
  H   H42       1.0  0.8105840026958689  0.7877534612990477  0.7037902302688436  1.0000
  H   H43       1.0  0.6894173074959582  0.2877533643629634  0.20378979453643348  1.0000
  H   H44       1.0  0.18941653605026687  0.2122468000230029  0.2962101877150261  1.0000
  H   H45       1.0  0.23160256330612583  0.8188580958131199  0.8214023902758782  1.0000
  H   H46       1.0  0.7316020771644033  0.6811422494872519  0.6785975404102513  1.0000
  H   H47       1.0  0.7683979754400383  0.18114216600907443  0.17859756695136036  1.0000
  H   H48       1.0  0.2683984615815688  0.3188573693105853  0.3214022701351453  1.0000
  H   H49       1.0  0.10524176812506171  0.730314655026433  0.7824844256526972  1.0000
  H   H50       1.0  0.6052413331449316  0.7696850244182017  0.7175158166814126  1.0000
  H   H51       1.0  0.8947599635927473  0.2696849637715104  0.21751538489271377  1.0000
  H   H52       1.0  0.3947580126289836  0.23031395085502743  0.2824843079387733  1.0000
  H   H53       1.0  0.2250232948506152  0.7621447362740453  0.9748719630566142  1.0000
  H   H54       1.0  0.7250216733220756  0.7378556078634945  0.5251279675031526  1.0000
  H   H55       1.0  0.7749772438957123  0.23785616807236212  0.025128601609104396  1.0000
  H   H56       1.0  0.27497647948042203  0.2621446539584865  0.47487198972406464  1.0000
  H   H57       1.0  0.2999896722739379  0.8402261804186394  0.9396937750619256  1.0000
  H   H58       1.0  0.7999879959613523  0.6597735344431896  0.5603055494991266  1.0000
  H   H59       1.0  0.7000108664724535  0.1597747249280559  0.06030586809050929  1.0000
  H   H60       1.0  0.2000101568409818  0.34022608485457084  0.4396938002896107  1.0000
  H   H61       1.0  0.3888910944056008  0.7359523318608012  0.9192235799229846  1.0000
  H   H62       1.0  0.888890674843779  0.7640473982121848  0.5807762071021187  1.0000
  H   H63       1.0  0.6111082513686982  0.2640479294611424  0.0807768380608778  1.0000
  H   H64       1.0  0.11110867093036349  0.23595222058554552  0.4192236034432709  1.0000
  H   H65       1.0  0.00047846349011849987  0.45506764839125685  0.9144357901849955  1.0000
  H   H66       1.0  0.5004790962291423  0.0449320526645707  0.5855641623051183  1.0000
  H   H67       1.0  0.9995208822841876  0.5449326129306868  0.08556462779886687  1.0000
  H   H68       1.0  0.49952144251683  0.9550675661332662  0.4144356482402855  1.0000
  H   H69       1.0  0.917946586493173  0.4786854526373575  0.8563471084841933  1.0000
  H   H70       1.0  0.4179469072430351  0.0213149652202702  0.6436529987054483  1.0000
  H   H71       1.0  0.08205395225299128  0.5213148091848367  0.14365284874304507  1.0000
  H   H72       1.0  0.5820536315029373  0.9786846535775596  0.3563468118399483  1.0000
  C   C1        1.0  0.9414778555285324  0.0601937994817234  0.3773565650256642  1.0000
  C   C2        1.0  0.44147725362633145  0.43980576592541354  0.1226437361415549  1.0000
  C   C3        1.0  0.05852268321743989  0.9398058193161136  0.6226432455197325  1.0000
  C   C4        1.0  0.5585220921477756  0.5601938523721727  0.877356535160466  1.0000
  C   C5        1.0  0.2592769172500837  0.02132533091363341  0.1292521969450533  1.0000
  C   C6        1.0  0.7592765944906006  0.47867548934288345  0.37074747257330637  1.0000
  C   C7        1.0  0.7407236214960804  0.9786749309085535  0.8707477602821851  1.0000
  C   C8        1.0  0.2407227512837693  0.5213247729793481  0.6292520238972797  1.0000
  C   C9        1.0  0.35553452934774293  0.9369152158478613  0.11143679726323089  1.0000
  C   C10       1.0  0.8555339385665944  0.5630855817945032  0.3885627011791327  1.0000
  C   C11       1.0  0.6444660093984281  0.06308504597433282  0.8885631599640006  1.0000
  C   C12       1.0  0.14446660017960514  0.4369146805278348  0.6114367952914677  1.0000
  C   C13       1.0  0.8246084438557019  0.4253524383752207  0.9904657040173319  1.0000
  C   C14       1.0  0.3246076243669336  0.07464731996267912  0.5095342546978471  1.0000
  C   C15       1.0  0.1753909019186324  0.5746478234468667  0.009534253209892516  1.0000
  C   C16       1.0  0.6753917214072018  0.925352298835051  0.4904655558475354  1.0000
  C   C17       1.0  0.2571152442265968  0.021452306332165  0.2457339773163412  1.0000
  C   C18       1.0  0.7571149375882341  0.4785472269934702  0.2542658595534633  1.0000
  C   C19       1.0  0.7428864874912052  0.9785473124657715  0.7542658332290698  1.0000
  C   C20       1.0  0.24288560115770247  0.5214523913042229  0.7457344117485787  1.0000
  C   C21       1.0  0.5057714362019823  0.9272226073380169  0.08166756529099932  1.0000
  C   C22       1.0  0.0057717516264404  0.5727781289923328  0.4183314656773475  1.0000
  C   C23       1.0  0.49422790957235213  0.0727776544840708  0.9183323919362252  1.0000
  C   C24       1.0  0.9942275941479932  0.4272221343301865  0.5816671092799551  1.0000
  C   C25       1.0  0.3659632205887747  0.101951583419698  0.13698687001442517  1.0000
  C   C26       1.0  0.865962847388552  0.3980492551909194  0.36301326230953623  1.0000
  C   C27       1.0  0.6340373181571975  0.8980480353781389  0.8630129405309716  1.0000
  C   C28       1.0  0.1340364983859743  0.6019516496555254  0.6369868415995298  1.0000
  C   C29       1.0  0.5867777285944057  0.6888923252995269  0.051356616646693  1.0000
  C   C30       1.0  0.08677819208460849  0.8111071377976131  0.4486435047836678  1.0000
  C   C31       1.0  0.4132216171797297  0.31110729349820326  0.9486431938986895  1.0000
  C   C32       1.0  0.9132223466613355  0.18889248050007987  0.5513567665183672  1.0000
  C   C33       1.0  0.18419483980699164  0.030993127976245212  0.30513206757425587  1.0000
  C   C34       1.0  0.6841933423629314  0.4690063924623544  0.1948677678950688  1.0000
  C   C35       1.0  0.8158068919108175  0.9690064908216984  0.694867742971155  1.0000
  C   C36       1.0  0.31580481043940983  0.5309932268354134  0.8051315818936685  1.0000
  C   C37       1.0  0.027984895835196297  0.7017547002796152  0.8862001462810126  1.0000
  C   C38       1.0  0.5279856865023548  0.7982449655118347  0.6138000945693561  1.0000
  C   C39       1.0  0.9720156429109679  0.29824556154257925  0.11379981094622588  1.0000
  C   C40       1.0  0.4720148522436175  0.20175465328600245  0.38619971597604763  1.0000
  C   C41       1.0  0.3595631473877959  0.7857394424880441  0.1048966235623396  1.0000
  C   C42       1.0  0.8595638452633664  0.7142613558663912  0.3951028749574093  1.0000
  C   C43       1.0  0.6404373913583682  0.21426081933415017  0.8951033336648989  1.0000
  C   C44       1.0  0.14043550051138712  0.2857401925045551  0.6048969148768464  1.0000
  C   C45       1.0  0.9385085597446475  0.07017102329923118  0.26344237428179434  1.0000
  C   C46       1.0  0.43850912859398505  0.4298291851077565  0.23655761275361437  1.0000
  C   C47       1.0  0.06149197900148808  0.9298292380228191  0.7365580437020824  1.0000
  C   C48       1.0  0.5614902171803494  0.5701710767143309  0.763442344473617  1.0000
  C   C49       1.0  0.5821872227871409  0.8475814295119477  0.0641350423174529  1.0000
  C   C50       1.0  0.0821875866597708  0.6524186767985612  0.4358643041933021  1.0000
  C   C51       1.0  0.4178121229869944  0.15241818928578246  0.9358647682279295  1.0000
  C   C52       1.0  0.9178117591145921  0.34758158552366336  0.5641351922772769  1.0000
  C   C53       1.0  0.2833298853963838  0.8651506395143117  0.12276473821243172  1.0000
  C   C54       1.0  0.7833305350169868  0.6348495023433572  0.37723461216138077  1.0000
  C   C55       1.0  0.7166694603779147  0.134849621807632  0.877235679771438  1.0000
  C   C56       1.0  0.21667000372941203  0.36515140300333115  0.6227650309910543  1.0000
  C   C57       1.0  0.011564674140025499  0.0606250746393258  0.20394588131672717  1.0000
  C   C58       1.0  0.5115655296312698  0.4393750583155978  0.29605409751899714  1.0000
  C   C59       1.0  0.988435864606139  0.9393751871828613  0.7960540759105043  1.0000
  C   C60       1.0  0.48843500911490173  0.5606252035065965  0.7039458597082343  1.0000
  C   C61       1.0  0.023231929114338405  0.054738446236740415  0.3143536198272726  1.0000
  C   C62       1.0  0.5232316107528161  0.44526168877998623  0.18564635923252124  1.0000
  C   C63       1.0  0.9767686096316339  0.9452611725610965  0.685646190718124  1.0000
  C   C64       1.0  0.476767735021518  0.5547385730421013  0.8143535979947031  1.0000
  C   C65       1.0  0.5096091787696649  0.7761482792665505  0.07529109809371451  1.0000
  C   C66       1.0  0.0096107828087568  0.7238524572419962  0.4247083937049964  1.0000
  C   C67       1.0  0.490388974032868  0.2238519830555745  0.9247083983768576  1.0000
  C   C68       1.0  0.9903885629658048  0.27614844810459266  0.5752912494474316  1.0000
  C   C69       1.0  0.14237522286730098  0.0136585670868214  0.07178127788980497  1.0000
  C   C70       1.0  0.6423748970122319  0.4863422315098446  0.4282193108966722  1.0000
  C   C71       1.0  0.8576265088507284  0.9863416952356231  0.9282182185808024  1.0000
  C   C72       1.0  0.3576244487622589  0.5136586728364563  0.571781253769032  1.0000
  C   C73       1.0  0.17156008416918667  0.0351471132345793  0.19404565616929398  1.0000
  C   C74       1.0  0.6715597615907355  0.4648530474954526  0.3059547864958602  1.0000
  C   C75       1.0  0.8284392616051123  0.9648531480873715  0.8059547618145685  1.0000
  C   C76       1.0  0.3284407771554001  0.5351472138265975  0.6940456314880165  1.0000
  C   C77       1.0  0.2049264988821804  0.7512162373503486  0.8162249733046848  1.0000
  C   C78       1.0  0.7049272482120302  0.7487834597112696  0.68377527094394  1.0000
  C   C79       1.0  0.7950728468920829  0.24878402347145107  0.18377590543582295  1.0000
  C   C80       1.0  0.29507329053374326  0.2512155160622029  0.3162243929196222  1.0000
  C   C81       1.0  0.27601330304219823  0.7716386447169157  0.9311432119853719  1.0000
  C   C82       1.0  0.7760116693647844  0.7283617084318836  0.5688567195536791  1.0000
  C   C83       1.0  0.7239872357041647  0.22836226012963584  0.0688568919237014  1.0000
  C   C84       1.0  0.22398767640935796  0.27163791036584684  0.43114309099171066  1.0000
  N   N1        1.0  0.162711990102153  0.7413563133629495  0.8783635913175087  1.0000
  N   N2        1.0  0.6627127543757964  0.7586440197627767  0.6216363380455618  1.0000
  N   N3        1.0  0.8372873556722168  0.258643948959282  0.1216359051530773  1.0000
  N   N4        1.0  0.3372877843703748  0.24135624205941753  0.3783636191816768  1.0000
  O   O1        1.0  0.9883701614288612  0.689446438727522  0.9381056591925868  1.0000
  O   O2        1.0  0.4883694853904714  0.8105539519503396  0.561894276424894  1.0000
  O   O3        1.0  0.0116291843454732  0.31055382309456553  0.06189429803463751  1.0000
  O   O4        1.0  0.511629860383664  0.18944566684739073  0.43810553412049547  1.0000
  O   O5        1.0  0.9665028947664496  0.40565682083786925  0.9709697020036853  1.0000
  O   O6        1.0  0.4665044710942751  0.0943436056010327  0.5290304061185154  1.0000
  O   O7        1.0  0.03349645100807659  0.5943440840085755  0.029030401905380573  1.0000
  O   O8        1.0  0.5334960676518605  0.9056566557210176  0.4709700118653615  1.0000
  O   O9        1.0  0.9957021089391773  0.4995719662255951  0.8909322211424281  1.0000
  O   O10       1.0  0.4957024211542986  0.00042846537345300013  0.6090678875405402  1.0000
  O   O11       1.0  0.004298429807185799  0.5004289386209565  0.10906788276664509  1.0000
  O   O12       1.0  0.5042993105634749  0.9995711529243395  0.390932383761509  1.0000
  O   O13       1.0  0.7930196743039417  0.07879717809675668  0.38155045411910743  1.0000
  O   O14       1.0  0.29301906109840564  0.4212023615740961  0.11844938344025727  1.0000
  O   O15       1.0  0.20698086444180316  0.9212017971765788  0.6184496705010929  1.0000
  O   O16       1.0  0.7069802846759289  0.5787979002479917  0.8815505737869672  1.0000
  O   O17       1.0  0.720392960803835  0.6855282530272576  0.023130550592171114  1.0000
  O   O18       1.0  0.22039461548910566  0.8144712336832713  0.4768695734043504  1.0000
  O   O19       1.0  0.27960399902650585  0.3144707237461901  0.9768681917580719  1.0000
  O   O20       1.0  0.7796047302851931  0.1855290276386725  0.5231308445795121  1.0000
  O   O21       1.0  0.7492985390469897  0.490037280733283  0.984061623328337  1.0000
  O   O22       1.0  0.24929887030849324  0.009962464295497901  0.5159383339404895  1.0000
  O   O23       1.0  0.25070080672711736  0.5099623375643034  0.01593864797369092  1.0000
  O   O24       1.0  0.750701668437479  0.9900371545023391  0.4840614766049072  1.0000
  O   O25       1.0  0.025605932639202002  0.045370908891918305  0.42120486075481256  1.0000
  O   O26       1.0  0.5256056351259843  0.4546285835200052  0.0787949716687422  1.0000
  O   O27       1.0  0.9743957990785717  0.9546287094058812  0.5787954105472366  1.0000
  O   O28       1.0  0.4743937106481511  0.545371035277725  0.9212048388766474  1.0000
  O   O29       1.0  0.5108116473830292  0.6255283793284793  0.05912017098560804  1.0000
  O   O30       1.0  0.010813345412088901  0.8744723558921591  0.4408807031061173  1.0000
  O   O31       1.0  0.489187698391241  0.3744718814933207  0.9408807077548929  1.0000
  O   O32       1.0  0.9891871933342741  0.1255285489543922  0.5591194008029631  1.0000
  F   F1        1.0  0.2201215131306853  0.9897242212235894  0.013865546373509067  1.0000
  F   F2        1.0  0.7201220680064749  0.5102765514875856  0.4861348709814662  1.0000
  F   F3        1.0  0.7798790256156496  0.010276683122818  0.9861350182922025  1.0000
  F   F4        1.0  0.2798784707394971  0.48972306731025134  0.5138649395639304  1.0000
  F   F5        1.0  0.028737798250851702  0.9532339525523599  0.06885562500776395  1.0000
  F   F6        1.0  0.5287371911194542  0.5467661438120215  0.43114418123310827  1.0000
  F   F7        1.0  0.9712627404955398  0.04676695279433571  0.9311440181446712  1.0000
  F   F8        1.0  0.47126215465488025  0.45323411801006586  0.5688557759941161  1.0000
  F   F9        1.0  0.0656325615740343  0.0889744649559461  0.07556610122202298  1.0000
  F   F10       1.0  0.5656333810935762  0.41102567755417857  0.4244338786521027  1.0000
  F   F11       1.0  0.9343679771721654  0.911025797366392  0.9244333952485703  1.0000
  F   F12       1.0  0.43436596468075805  0.588974584267909  0.5755660785751217  1.0000
  F   F13       1.0  0.28386649993313273  0.1765852404410495  0.1631245313074956  1.0000
  F   F14       1.0  0.7838636967373631  0.32341558316058183  0.3368760601963742  1.0000
  F   F15       1.0  0.7161352317849036  0.8234150218813953  0.8368749651631118  1.0000
  F   F16       1.0  0.21613445606529783  0.6765853211856127  0.6631245044693158  1.0000
  F   F17       1.0  0.49173943155516037  0.10315536134483953  0.17753050614703617  1.0000
  F   F18       1.0  0.9917390632250404  0.3968442134449859  0.3224693352288455  1.0000
  F   F19       1.0  0.5082611071907763  0.8968442569528534  0.8224697651550058  1.0000
  F   F20       1.0  0.0082602825488749  0.6031547618282432  0.6775307893913406  1.0000
  F   F21       1.0  0.4284570556007026  0.1068273796358525  0.08027318781297768  1.0000
  F   F22       1.0  0.9284578643679638  0.39317346951900595  0.41972740646786366  1.0000
  F   F23       1.0  0.5715446761169075  0.8931715961377265  0.9197264760505987  1.0000
  F   F24       1.0  0.07154267437817201  0.6068267918030444  0.580273011516013  1.0000
