data_image0
_chemical_formula_structural       Zn6H34C60N4O24
_chemical_formula_sum              "Zn6 H34 C60 N4 O24"
_cell_length_a       18.613770733269778
_cell_length_b       18.664904527071073
_cell_length_c       18.700958016692912
_cell_angle_alpha    109.68077698835089
_cell_angle_beta     108.98970181401
_cell_angle_gamma    109.55266312219905

_space_group_name_H-M_alt    "P 1"
_space_group_IT_number       1

loop_
  _space_group_symop_operation_xyz
  'x, y, z'

loop_
  _atom_site_type_symbol
  _atom_site_label
  _atom_site_symmetry_multiplicity
  _atom_site_fract_x
  _atom_site_fract_y
  _atom_site_fract_z
  _atom_site_occupancy
  Zn  Zn1       1.0  0.49486433888691284  0.42970932881500085  0.4329742125498585  1.0000
  Zn  Zn2       1.0  0.5062358149791562  0.5600731011706797  0.565676702956324  1.0000
  Zn  Zn3       1.0  0.9402248758712658  0.44082652551130486  0.004049966409006175  1.0000
  Zn  Zn4       1.0  0.06868703175931751  0.5625902995702103  0.0019052261358751105  1.0000
  Zn  Zn5       1.0  0.053529519455125206  0.9936326720124524  0.5554708391934682  1.0000
  Zn  Zn6       1.0  0.9264382150559952  0.9964286895195116  0.43564579422555744  1.0000
  H   H1        1.0  0.6085413679357499  0.580718557939299  0.310491267977028  1.0000
  H   H2        1.0  0.8551865663050577  0.19437408541185872  0.7702179010128278  1.0000
  H   H3        1.0  0.07998789208559742  0.34498876008027685  0.14869789813922552  1.0000
  H   H4        1.0  0.138321191731734  0.33758713019319936  0.08986582417913519  1.0000
  H   H5        1.0  0.25386801081368293  0.34269060368443144  0.20888158344308033  1.0000
  H   H6        1.0  0.7378265148938326  0.7268397242643089  0.5911626738114535  1.0000
  H   H7        1.0  0.8470632414938918  0.8507642619735448  0.5922531416913304  1.0000
  H   H8        1.0  0.7090040058586453  0.7107033006324954  0.3112952798148855  1.0000
  H   H9        1.0  0.9461723923109417  0.48597625351307977  0.761994202751396  1.0000
  H   H10       1.0  0.8730989488243922  0.44250028685917897  0.6500507825388412  1.0000
  H   H11       1.0  0.9508342460856908  0.5558412590858879  0.7173152797118547  1.0000
  H   H12       1.0  0.6615852560417821  0.547922288183983  0.7882747791427748  1.0000
  H   H13       1.0  0.7335624674489408  0.5314877121804288  0.562690224514192  1.0000
  H   H14       1.0  0.8364559136641959  0.5356394462458951  0.6024500879926155  1.0000
  H   H15       1.0  0.7375958382739399  0.43408423116788697  0.5429637764159239  1.0000
  H   H16       1.0  0.9119183793264866  0.7538113666406546  0.07568954164553077  1.0000
  H   H17       1.0  0.022265058505816136  0.7874786175788484  0.1005648735006658  1.0000
  H   H18       1.0  0.9438537867808847  0.6747176315459669  0.04253050898432057  1.0000
  H   H19       1.0  0.024363170737736025  0.9473397232880528  0.2972028943411544  1.0000
  H   H20       1.0  0.023614899318310685  0.8982594532565926  0.19707630770083995  1.0000
  H   H21       1.0  0.9243359406933603  0.8693608786566925  0.19991272235732543  1.0000
  H   H22       1.0  0.06282032126092936  0.5835563197533986  0.2641075439319992  1.0000
  H   H23       1.0  0.2697866741466654  0.39454309625619277  0.5339921444887921  1.0000
  H   H24       1.0  0.05096394635063462  0.6231174017384831  0.35800898491113753  1.0000
  H   H25       1.0  0.9575069033037521  0.5417759327098182  0.2533349099509864  1.0000
  H   H26       1.0  0.2350174656323389  0.3329929784981544  0.33197479320783435  1.0000
  H   H27       1.0  0.1427325421117942  0.3484290114742378  0.30015224879878133  1.0000
  H   H28       1.0  0.13761345499040797  0.2515530603456284  0.23145364736226534  1.0000
  H   H29       1.0  0.1834469780245414  0.0786094740461536  0.40501819903099096  1.0000
  H   H30       1.0  0.307966322912911  0.183555937816358  0.4037217017708629  1.0000
  H   H31       1.0  0.04210999414229382  0.7514719953331621  0.4053004861441566  1.0000
  H   H32       1.0  0.12984288667906446  0.37178250514639904  0.8822609052997595  1.0000
  H   H33       1.0  0.1385147642732889  0.25712313302561535  0.7732056634762616  1.0000
  H   H34       1.0  0.8606503256696385  0.0853782726927435  0.6523909026486977  1.0000
  C   C1        1.0  0.6049489866811727  0.576131787462316  0.4554135094065614  1.0000
  C   C2        1.0  0.667616363480633  0.6465465172169972  0.4509365016568199  1.0000
  C   C3        1.0  0.711099844722561  0.538252699820056  0.7743341680559014  1.0000
  C   C4        1.0  0.39213708573321077  0.5357946661554749  0.41978049980727433  1.0000
  C   C5        1.0  0.7773527132229032  0.5365849989323194  0.8350829628813161  1.0000
  C   C6        1.0  0.8425330155614148  0.5258209469087162  0.8172721247543323  1.0000
  C   C7        1.0  0.8396397465680463  0.514756836189619  0.738032304425353  1.0000
  C   C8        1.0  0.7709612175472599  0.514334561731772  0.6756571643718845  1.0000
  C   C9        1.0  0.7066249274277112  0.5252088495113297  0.6946576305697862  1.0000
  C   C10       1.0  0.24932391100299606  0.32497205517609723  0.5039375595233296  1.0000
  C   C11       1.0  0.17621913322245322  0.2655385126983134  0.50031985358374  1.0000
  C   C12       1.0  0.20207722581417178  0.4682528225274253  0.2081850066081827  1.0000
  C   C13       1.0  0.15288817436616847  0.17623128024211349  0.4651417836184849  1.0000
  C   C14       1.0  0.20080526073556368  0.1473802600833451  0.43085699317654774  1.0000
  C   C15       1.0  0.2709583444095216  0.20592586820820455  0.4310264416715342  1.0000
  C   C16       1.0  0.37511588997676165  0.36074602834603536  0.47596811863294874  1.0000
  C   C17       1.0  0.2966601131908604  0.2953495344035416  0.46948392823126994  1.0000
  C   C18       1.0  0.9832483761576472  0.597301827482312  0.12051039038006923  1.0000
  C   C19       1.0  0.14752033418590568  0.5385604553581159  0.12965124527367067  1.0000
  C   C20       1.0  0.9879486860344784  0.3600653757518088  0.8960806139985211  1.0000
  C   C21       1.0  0.9117455950607861  0.5229993646075285  0.8836990380887356  1.0000
  C   C22       1.0  0.02098972663933537  0.8835833937082423  0.4031542086622011  1.0000
  C   C23       1.0  0.1454711815747344  0.3693196622845817  0.1549278389673319  1.0000
  C   C24       1.0  0.848794905474726  0.8655765207682291  0.45759919157433865  1.0000
  C   C25       1.0  0.0034256867550723946  0.10172094714231149  0.6346082915242166  1.0000
  C   C26       1.0  0.0830361711549514  0.1133130342205391  0.4715175848785834  1.0000
  C   C27       1.0  0.985581447875127  0.7401044253070878  0.180870347469707  1.0000
  C   C28       1.0  0.6281713780861864  0.5185017770018234  0.6298643574283675  1.0000
  C   C29       1.0  0.9977846823248696  0.8126963135830962  0.2502190209796638  1.0000
  C   C30       1.0  0.016580853336009182  0.8141668243812248  0.3302995972177173  1.0000
  C   C31       1.0  0.02549553802107598  0.7465927870740217  0.34166364447971637  1.0000
  C   C32       1.0  0.012038253448999118  0.6735310196726089  0.2735369964604929  1.0000
  C   C33       1.0  0.9915581135466952  0.6712291069126834  0.19292917577025287  1.0000
  C   C34       1.0  0.214298689981419  0.3674117104703996  0.23028345577944265  1.0000
  C   C35       1.0  0.07197216068945518  0.3076596744803126  0.8335411041473721  1.0000
  C   C36       1.0  0.07658732000316348  0.24435326030107515  0.7723692866764156  1.0000
  C   C37       1.0  4.171118873591342e-05  0.16490778803309075  0.7062470615108014  1.0000
  C   C38       1.0  0.9199666798614672  0.14702259703062734  0.7046735147166034  1.0000
  C   C39       1.0  0.916599641805611  0.2080380366197971  0.7695711355492211  1.0000
  C   C40       1.0  0.26083479894151645  0.4673005999383831  0.2761794065439035  1.0000
  C   C41       1.0  0.9921158626837396  0.28967040553599327  0.8326570020574026  1.0000
  C   C42       1.0  0.33069033854009416  0.543630168367123  0.3520562955893354  1.0000
  C   C43       1.0  0.3408134419190389  0.6239283505954558  0.35584685096868185  1.0000
  C   C44       1.0  0.28377236805405187  0.6246055146032317  0.2834472672869666  1.0000
  C   C45       1.0  0.7338690304153204  0.7230500550879455  0.5305032382071462  1.0000
  C   C46       1.0  0.21254412512945461  0.5452092514770116  0.2075131677147511  1.0000
  C   C47       1.0  0.41061534440908076  0.7060358481316056  0.4309112189180766  1.0000
  C   C48       1.0  0.7754150990358539  0.5456764653843108  0.9133008967009106  1.0000
  C   C49       1.0  0.905851358020648  0.49871576934967976  0.7160815747610416  1.0000
  C   C50       1.0  0.7696853604476956  0.503937713915512  0.5918586092094245  1.0000
  C   C51       1.0  0.12889091555994273  0.297071894770454  0.5363433701305739  1.0000
  C   C52       1.0  0.9645976148949771  0.7383086763049959  0.09520049695954912  1.0000
  C   C53       1.0  0.29784380473021327  0.7071144232867396  0.289990430493468  1.0000
  C   C54       1.0  0.9929343382274285  0.8861532339674696  0.23605337623040887  1.0000
  C   C55       1.0  0.021442042558028528  0.6017986263289712  0.2881462808157309  1.0000
  C   C56       1.0  0.7932442706769295  0.7922156443394357  0.5310553617636276  1.0000
  C   C57       1.0  0.18042428449290068  0.3226966589667554  0.2761812244991901  1.0000
  C   C58       1.0  0.7833411167353787  0.7881316776859604  0.4519474062458429  1.0000
  C   C59       1.0  0.7160014972598532  0.7128521374133996  0.3722707702696654  1.0000
  C   C60       1.0  0.65982027990745  0.640750890508329  0.3718300151244025  1.0000
  N   N1        1.0  0.46777309264841443  0.7739146447593794  0.49129833987624494  1.0000
  N   N2        1.0  0.7697335364638676  0.553997626672114  0.9756857950027965  1.0000
  N   N3        1.0  0.09145953773302298  0.3240502517843921  0.5668584589189367  1.0000
  N   N4        1.0  0.30911792439511027  0.7749780197246918  0.29655361013720233  1.0000
  O   O1        1.0  0.5700111710143929  0.49466616038951366  0.39820363888880195  1.0000
  O   O2        1.0  0.9712463892170006  0.9147631760822958  0.38317968402100167  1.0000
  O   O3        1.0  0.9273582745459166  0.9013421147223963  0.51750003682686  1.0000
  O   O4        1.0  0.5899500751846531  0.6016326799963636  0.5183890488829448  1.0000
  O   O5        1.0  0.8225233845584724  0.8922373997340994  0.4043391770791728  1.0000
  O   O6        1.0  0.06278986752084852  0.08041526384579359  0.6569610067990014  1.0000
  O   O7        1.0  0.9479620785998008  0.07470322009036319  0.5569329702286866  1.0000
  O   O8        1.0  0.1112730973313845  0.08934977955268407  0.5250870435402321  1.0000
  O   O9        1.0  0.002677595509972297  0.08877257126307819  0.42324222893940805  1.0000
  O   O10       1.0  0.4051668280441731  0.47249067036720044  0.3891418087155359  1.0000
  O   O11       1.0  0.42578331169492145  0.5898514483015018  0.5011256411073859  1.0000
  O   O12       1.0  0.03253758349407592  0.6182663539556047  0.08885822563424749  1.0000
  O   O13       1.0  0.401685998471514  0.3319063188847053  0.4227602998110315  1.0000
  O   O14       1.0  0.4096540398555888  0.4404926850622246  0.5331738611311821  1.0000
  O   O15       1.0  0.5917606467960398  0.46022283750963305  0.5504098002719503  1.0000
  O   O16       1.0  0.6015708459938551  0.5711358345831383  0.6601365054801749  1.0000
  O   O17       1.0  0.9291759144638406  0.5175420787059934  0.09489379664774598  1.0000
  O   O18       1.0  0.06903385116432043  0.480291807432067  0.09808840396422615  1.0000
  O   O19       1.0  0.17437779368563608  0.5881147261531439  0.09961820362507008  1.0000
  O   O20       1.0  0.9312836868140549  0.33716258379426733  0.9210114608708154  1.0000
  O   O21       1.0  0.040732323241101674  0.4388578547040537  0.9208904415129454  1.0000
  O   O22       1.0  0.8844880200510374  0.46948412604463385  0.9086996870811465  1.0000
  O   O23       1.0  0.99265241035895  0.5749396580743351  0.9110378906996675  1.0000
  O   O24       1.0  0.07254465105408055  0.9074216634901686  0.48282276757851866  1.0000
