data_image0
_chemical_formula_structural       Ba2CoH14C6O16
_chemical_formula_sum              "Ba2 Co1 H14 C6 O16"
_cell_length_a       6.900411411655559
_cell_length_b       7.141443868522483
_cell_length_c       8.738463361799386
_cell_angle_alpha    82.39127539710844
_cell_angle_beta     71.24908670459675
_cell_angle_gamma    81.33882594357105

_space_group_name_H-M_alt    "P 1"
_space_group_IT_number       1

loop_
  _space_group_symop_operation_xyz
  'x, y, z'

loop_
  _atom_site_type_symbol
  _atom_site_label
  _atom_site_symmetry_multiplicity
  _atom_site_fract_x
  _atom_site_fract_y
  _atom_site_fract_z
  _atom_site_occupancy
  Ba  Ba1       1.0  0.09735317178729733  0.7349940784262116  0.352114579029653  1.0000
  Ba  Ba2       1.0  0.9026472308309155  0.2650052359359236  0.6478861789242815  1.0000
  Co  Co1       1.0  0.9999984674712794  0.9999999877092944  1.5319373077844402e-06  1.0000
  H   H1        1.0  0.5949639639885191  0.8998074275566663  0.06477776525851911  1.0000
  H   H2        1.0  0.40503606129028924  0.10019473105857199  0.9352227834757089  1.0000
  H   H3        1.0  0.012288183834471101  0.37075835892824927  0.08564203166892533  1.0000
  H   H4        1.0  0.9877125926489541  0.6292381094340344  0.9143600809373781  1.0000
  H   H5        1.0  0.4673490053716948  0.38732301729649515  0.11418349756532822  1.0000
  H   H6        1.0  0.5326474062114954  0.612683391850716  0.8858140740506215  1.0000
  H   H7        1.0  0.3489429516531431  0.0572295645297842  0.4240521655673959  1.0000
  H   H8        1.0  0.6510591721634856  0.9427683399965118  0.575947165059084  1.0000
  H   H9        1.0  0.3012439428191557  0.9268403434836471  0.591332588312966  1.0000
  H   H10       1.0  0.6987595144339382  0.0731589902196532  0.4086685420643478  1.0000
  H   H11       1.0  0.38537626966492416  0.3498851624543774  0.42069617429182665  1.0000
  H   H12       1.0  0.6146260462955836  0.6501113216921083  0.5793021155118439  1.0000
  H   H13       1.0  0.3501012426471917  0.40519389316128246  0.5967846886709296  1.0000
  H   H14       1.0  0.6499008811694369  0.5948040113650066  0.4032146419555502  1.0000
  C   C1        1.0  0.6527867849406236  0.8055912410259366  0.15557448144832622  1.0000
  C   C2        1.0  0.3472145737746501  0.1944123467663132  0.8444278670367354  1.0000
  C   C3        1.0  0.047283568884303406  0.27596825114397916  0.18661239191712303  1.0000
  C   C4        1.0  0.9527170224036043  0.7240296410916043  0.8133884706466646  1.0000
  C   C5        1.0  0.5860642434852465  0.2719695213291331  0.13476320968345595  1.0000
  C   C6        1.0  0.413935977411633  0.7280312186530511  0.8652351527952932  1.0000
  O   O1        1.0  0.8360643512734782  0.8222364156762084  0.15502142226367246  1.0000
  O   O2        1.0  0.1639352931917486  0.17776858544537788  0.8449800626835043  1.0000
  O   O3        1.0  0.5400445204478714  0.6898227183099479  0.2508746378235998  1.0000
  O   O4        1.0  0.4599547432037739  0.310185125318  0.7491277833365332  1.0000
  O   O5        1.0  0.0709797562562002  0.346805345942542  0.3022556550829378  1.0000
  O   O6        1.0  0.9290177769226418  0.653192525205128  0.6977459804901258  1.0000
  O   O7        1.0  0.062314291246600824  0.0959083776904848  0.17486517141689012  1.0000
  O   O8        1.0  0.9376889842851668  0.9040923816328643  0.8251335634852384  1.0000
  O   O9        1.0  0.7337873174151497  0.22624550677690536  0.0108148584709156  1.0000
  O   O10       1.0  0.2662125330906946  0.7737580809518716  0.9891810039227948  1.0000
  O   O11       1.0  0.5581948890287691  0.19969656955860426  0.2808297857814637  1.0000
  O   O12       1.0  0.4418026476242504  0.8003013033358143  0.7191707043589375  1.0000
  O   O13       1.0  0.2430131642289837  0.986055456650007  0.5037347972266986  1.0000
  O   O14       1.0  0.7569874305331085  0.013942437332325102  0.4962649199044264  1.0000
  O   O15       1.0  0.286227783305975  0.42394127753088645  0.5077923350169941  1.0000
  O   O16       1.0  0.713772622786415  0.5760580385779974  0.49220727750427073  1.0000
