data_image0
_chemical_formula_structural       Fe2H48C36S4N28
_chemical_formula_sum              "Fe2 H48 C36 S4 N28"
_cell_length_a       8.870057715517317
_cell_length_b       10.385967476733494
_cell_length_c       13.4705
_cell_angle_alpha    103.80630142158287
_cell_angle_beta     100.05340629844571
_cell_angle_gamma    99.65525164447017

_space_group_name_H-M_alt    "P 1"
_space_group_IT_number       1

loop_
  _space_group_symop_operation_xyz
  'x, y, z'

loop_
  _atom_site_type_symbol
  _atom_site_label
  _atom_site_symmetry_multiplicity
  _atom_site_fract_x
  _atom_site_fract_y
  _atom_site_fract_z
  _atom_site_occupancy
  Fe  Fe1       1.0  0.00016468874570559845  0.5000981052573792  0.4999898415594757  1.0000
  Fe  Fe2       1.0  0.008230330269519512  0.9899656770754959  0.003706155243783387  1.0000
  H   H1        1.0  0.1945702554338951  0.4058629830791958  0.6865246416969129  1.0000
  H   H2        1.0  0.8054450448749505  0.5940294005088234  0.3134536785445974  1.0000
  H   H3        1.0  0.25868556744253357  0.3717286883541675  0.3787249804789711  1.0000
  H   H4        1.0  0.7412785875500417  0.6281108557683339  0.6212176946778032  1.0000
  H   H5        1.0  0.40602005095232124  0.2983346707488082  0.7490190696642858  1.0000
  H   H6        1.0  0.5943382915646822  0.7018910079294045  0.251036994205343  1.0000
  H   H7        1.0  0.5748130563107808  0.331707873941653  0.6972694511694685  1.0000
  H   H8        1.0  0.4253375739932323  0.6685838540684585  0.30271624263625097  1.0000
  H   H9        1.0  0.4963133474371233  0.0988870274309548  0.5735458619187385  1.0000
  H   H10       1.0  0.5036195888869912  0.9012411014647626  0.42628745730593215  1.0000
  H   H11       1.0  0.3139479247012744  0.0717082354265983  0.6112861436933913  1.0000
  H   H12       1.0  0.686366989286732  0.9283955060234987  0.3890104852739499  1.0000
  H   H13       1.0  0.6352944698733791  0.1219351958327479  0.7601168885798231  1.0000
  H   H14       1.0  0.36566075112657603  0.878020188656471  0.2396328975984261  1.0000
  H   H15       1.0  0.45282057835370176  0.0936437266217993  0.7944938404230444  1.0000
  H   H16       1.0  0.548487239525592  0.9063929493528278  0.20557126045369495  1.0000
  H   H17       1.0  0.5560063862347491  0.8846230895591631  0.6311149235900261  1.0000
  H   H18       1.0  0.44485269426831303  0.1154501675839086  0.3686848446637541  1.0000
  H   H19       1.0  0.5660217369858529  0.8868067820860759  0.7642792592150371  1.0000
  H   H20       1.0  0.4350944517690039  0.11321465173504211  0.235505636882813  1.0000
  H   H21       1.0  0.34270255640685576  0.6889900491943237  0.5252398303624304  1.0000
  H   H22       1.0  0.6576421041684168  0.3111045469636693  0.4744238149179624  1.0000
  H   H23       1.0  0.018165536796281877  0.7308683740485264  0.7190143120715078  1.0000
  H   H24       1.0  0.9828569084488236  0.2691083494556068  0.2810990077337436  1.0000
  H   H25       1.0  0.1956136221955518  0.049011652699221  0.2449527601565649  1.0000
  H   H26       1.0  0.8140891524021755  0.94265301642141  0.7535117127271321  1.0000
  H   H27       1.0  0.7408598746430926  0.8219991776274895  0.09584193319457053  1.0000
  H   H28       1.0  0.2673167954612481  0.1747147088808703  0.8992560350161654  1.0000
  H   H29       1.0  0.21518083715272235  0.9974536390256218  0.4186308744365733  1.0000
  H   H30       1.0  0.7841358252794278  0.0037963123687987  0.5823476289318066  1.0000
  H   H31       1.0  0.14320885017713184  0.8178055531237335  0.38139678559699774  1.0000
  H   H32       1.0  0.8563309866092367  0.1834576081370685  0.6195251724620761  1.0000
  H   H33       1.0  0.9087351755935344  0.8517386514223659  0.4561299362987867  1.0000
  H   H34       1.0  0.0895322516427512  0.149228812060251  0.5434273283306369  1.0000
  H   H35       1.0  0.08745126308002679  0.9077220651393391  0.5490738067173098  1.0000
  H   H36       1.0  0.9105544141850074  0.0934780952202701  0.4506580204748902  1.0000
  H   H37       1.0  0.03702242513976733  0.6657081677719674  0.9456211930691226  1.0000
  H   H38       1.0  0.9572403954317181  0.3363343756052402  0.05803345616065771  1.0000
  H   H39       1.0  0.380448447771407  0.030773907946752395  0.030036301551334108  1.0000
  H   H40       1.0  0.6131691683730195  0.9724209422361766  0.9703212883494601  1.0000
  H   H41       1.0  0.350789728998798  0.5594825514953286  0.8622062858672948  1.0000
  H   H42       1.0  0.6445192310535717  0.4449357355430763  0.13771414104716231  1.0000
  H   H43       1.0  0.22309520528972365  0.5010736030823395  0.9392917119552706  1.0000
  H   H44       1.0  0.7724054902342914  0.5018072587381894  0.0601986167101742  1.0000
  H   H45       1.0  0.44685027434333335  0.5799486990916805  0.09608155082082703  1.0000
  H   H46       1.0  0.5483728463230975  0.4240712596681959  0.9038262429121602  1.0000
  H   H47       1.0  0.5674634465112902  0.654016419882403  0.02211817523616591  1.0000
  H   H48       1.0  0.4275838420525986  0.3502545263386878  0.9778371159594812  1.0000
  C   C1        1.0  0.9137548057783957  0.4353484209821517  0.6979780563051534  1.0000
  C   C2        1.0  0.0860585304666159  0.5660092416304465  0.3022837712550981  1.0000
  C   C3        1.0  0.2374824513798472  0.3856996462660049  0.6151531769637587  1.0000
  C   C4        1.0  0.7626679653763018  0.6143512557185744  0.3848728107900499  1.0000
  C   C5        1.0  0.2695730160900069  0.3637773649371852  0.4586032931359228  1.0000
  C   C6        1.0  0.7304999252261268  0.6361709065470578  0.5413822852385053  1.0000
  C   C7        1.0  0.4522803425296047  0.2748576897614612  0.6780871823694241  1.0000
  C   C8        1.0  0.5479711068767869  0.7252531646936049  0.3219406637314819  1.0000
  C   C9        1.0  0.4387141789602609  0.1220053097389169  0.6397833221334821  1.0000
  C   C10       1.0  0.561651510381644  0.8781045285725853  0.3602663770427199  1.0000
  C   C11       1.0  0.511191794169761  0.0692725392949072  0.7290551708229103  1.0000
  C   C12       1.0  0.4897156587360526  0.9307610882490209  0.2708156176604604  1.0000
  C   C13       1.0  0.503799740414884  0.9172534918040398  0.6986200224065016  1.0000
  C   C14       1.0  0.4971820408953818  0.0827933456062624  0.3012209105930311  1.0000
  C   C15       1.0  0.2819661707462373  0.7252846651442084  0.5859741520966466  1.0000
  C   C16       1.0  0.7186446364987873  0.2748119633009196  0.4138407230174579  1.0000
  C   C17       1.0  0.12097425532167695  0.7490106013056348  0.6868214344752559  1.0000
  C   C18       1.0  0.8799806099992435  0.2510067679412131  0.3132262678237296  1.0000
  C   C19       1.0  0.7414924755121176  0.7518679970179107  0.8610123941048259  1.0000
  C   C20       1.0  0.2626600231712857  0.2412477251173542  0.1408738033717611  1.0000
  C   C21       1.0  0.08129444423727247  0.9823324065951908  0.2275882784429797  1.0000
  C   C22       1.0  0.9271672211704072  0.0114062115470475  0.7703230268721413  1.0000
  C   C23       1.0  0.8497485212777959  0.865833578849454  0.15410097183433888  1.0000
  C   C24       1.0  0.15717806707107937  0.1307136601138126  0.8421373639983898  1.0000
  C   C25       1.0  0.10851171716714698  0.9162251545135618  0.39615114095273896  1.0000
  C   C26       1.0  0.8907505541830644  0.0849455376825787  0.6041287495605092  1.0000
  C   C27       1.0  0.01726648821220777  0.9307448299519406  0.48242277486087204  1.0000
  C   C28       1.0  0.9808699314043137  0.0703882649322054  0.5171796005992917  1.0000
  C   C29       1.0  0.1469571093803381  0.7405481576741124  0.9672518480360497  1.0000
  C   C30       1.0  0.8469860263776567  0.2615523058864468  0.035746444879706005  1.0000
  C   C31       1.0  0.32467292682095206  0.9238421666967866  0.009000347416311172  1.0000
  C   C32       1.0  0.6692891768504763  0.0794471848379459  0.9920652808514063  1.0000
  C   C33       1.0  0.3275527713912822  0.5762865176738146  0.941454898572623  1.0000
  C   C34       1.0  0.6674654824944567  0.427303612356944  0.058356198469063314  1.0000
  C   C35       1.0  0.47238851508751617  0.5688676534862864  0.01782604512656866  1.0000
  C   C36       1.0  0.5228467767490981  0.4351868541548924  0.9820865350450492  1.0000
  S   S1        1.0  0.8880784335386096  0.3992905664835362  0.8057136763512179  1.0000
  S   S2        1.0  0.1111474915414661  0.6031309984444064  0.19479664522324208  1.0000
  S   S3        1.0  0.6001789081149838  0.6354392831783429  0.7779196199876425  1.0000
  S   S4        1.0  0.39719560525016107  0.366108398281412  0.22139010211540014  1.0000
  N   N1        1.0  0.934062069586801  0.4588081275288474  0.6184048487726914  1.0000
  N   N2        1.0  0.06611243020542901  0.5416187475757681  0.3816366650251126  1.0000
  N   N3        1.0  0.1776400464224963  0.41088171615989916  0.5247833595071114  1.0000
  N   N4        1.0  0.8225636432091079  0.5892077992802527  0.4752372974974294  1.0000
  N   N5        1.0  0.8617847177993027  0.3312871905046393  0.4053120189458427  1.0000
  N   N6        1.0  0.13882141084023655  0.6688724388416745  0.5945948278069864  1.0000
  N   N7        1.0  0.3583399983104414  0.3257238044716715  0.6024904273594132  1.0000
  N   N8        1.0  0.6417129420347862  0.6742132894333253  0.3975049002102651  1.0000
  N   N9        1.0  0.38054893281678653  0.3103739397385112  0.5033102755646084  1.0000
  N   N10       1.0  0.6194570453628074  0.6895042178395627  0.4966606437789808  1.0000
  N   N11       1.0  0.3443071555312826  0.8343483704053298  0.6690731425364049  1.0000
  N   N12       1.0  0.6566597762657195  0.1655582391926345  0.33084940961721543  1.0000
  N   N13       1.0  0.2441436513854001  0.8507783957509217  0.734427636467686  1.0000
  N   N14       1.0  0.7570215307195268  0.1490428577873644  0.2656237466209532  1.0000
  N   N15       1.0  0.8438861396042726  0.8398335133835887  0.920247826180706  1.0000
  N   N16       1.0  0.165241203048879  0.147395689064183  0.0837179752612442  1.0000
  N   N17       1.0  0.9752070266401275  0.9464706678051299  0.1362286702192606  1.0000
  N   N18       1.0  0.036989303866150194  0.0443465375800685  0.8590377478078963  1.0000
  N   N19       1.0  0.02179031970241142  0.9244376268274407  0.2957001056522657  1.0000
  N   N20       1.0  0.9799226048531935  0.0761823155550303  0.7035330218944866  1.0000
  N   N21       1.0  0.8742742123852167  0.8488782072793839  0.24984810756821232  1.0000
  N   N22       1.0  0.12685185304262347  0.1537496347927956  0.7484435478973952  1.0000
  N   N23       1.0  0.1661399451726595  0.8767083473106112  0.9926063119065773  1.0000
  N   N24       1.0  0.8270265924884795  0.1262964840251684  0.011088984946582104  1.0000
  N   N25       1.0  0.28880238358585325  0.7098880578069355  0.9691622016796444  1.0000
  N   N26       1.0  0.7050881360279531  0.2932630982025941  0.03115635999564149  1.0000
  N   N27       1.0  0.40286564838395816  0.8251664971279027  0.9953130927787655  1.0000
  N   N28       1.0  0.5902165149063805  0.1780842409512502  0.003554531465262313  1.0000
