data_image0
_chemical_formula_structural       CdH26C34N10Cl2O4
_chemical_formula_sum              "Cd1 H26 C34 N10 Cl2 O4"
_cell_length_a       8.413716190028383
_cell_length_b       9.114337662784285
_cell_length_c       11.9015546302365
_cell_angle_alpha    78.5614367747331
_cell_angle_beta     75.54831448971574
_cell_angle_gamma    87.1733487139464

_space_group_name_H-M_alt    "P 1"
_space_group_IT_number       1

loop_
  _space_group_symop_operation_xyz
  'x, y, z'

loop_
  _atom_site_type_symbol
  _atom_site_label
  _atom_site_symmetry_multiplicity
  _atom_site_fract_x
  _atom_site_fract_y
  _atom_site_fract_z
  _atom_site_occupancy
  Cd  Cd1       1.0  0.49999954599546476  0.49999656319903374  1.2391809175623557e-07  1.0000
  H   H1        1.0  0.19014870204071596  0.7917167347174685  0.6358985280448975  1.0000
  H   H2        1.0  0.8098608759715162  0.20828329446447214  0.3640989485762205  1.0000
  H   H3        1.0  0.9476335160209572  0.6953858067113928  0.5810004493913682  1.0000
  H   H4        1.0  0.0523649931530557  0.3046176417036933  0.4189999939125357  1.0000
  H   H5        1.0  0.31701809665884173  0.6386875410658989  0.7864187189353659  1.0000
  H   H6        1.0  0.6829878408833565  0.36130908813741064  0.21357739837035436  1.0000
  H   H7        1.0  0.25416080944798847  0.11774606335579559  0.7566845550652417  1.0000
  H   H8        1.0  0.7458474733424013  0.8822495430149502  0.24331638098986721  1.0000
  H   H9        1.0  0.32206477492376717  0.09071732401385903  0.9526859133569943  1.0000
  H   H10       1.0  0.6779287305762622  0.9092738757721367  0.047319885506595855  1.0000
  H   H11       1.0  0.400149608850242  0.8353385686366225  0.05139088674845029  1.0000
  H   H12       1.0  0.5998402561797532  0.16464923117074903  0.9486135527997489  1.0000
  H   H13       1.0  0.35981068379138753  0.13897208441066775  0.3190274830328903  1.0000
  H   H14       1.0  0.6401927404533864  0.8610279769942792  0.6809718541004199  1.0000
  H   H15       1.0  0.2522059926693245  0.08100001094454973  0.15440874849212347  1.0000
  H   H16       1.0  0.7477937475634207  0.9190045537141883  0.845591307369304  1.0000
  H   H17       1.0  0.06178964659385139  0.8567529799778772  0.19908130200020208  1.0000
  H   H18       1.0  0.938211356016076  0.14325154748765104  0.8009168687730864  1.0000
  H   H19       1.0  0.784209811009994  0.6030291026958566  0.7675913516715482  1.0000
  H   H20       1.0  0.21578378920501962  0.3969743578315885  0.23240990760402974  1.0000
  H   H21       1.0  0.3999368301959265  0.31483949744472284  0.8138517535294768  1.0000
  H   H22       1.0  0.6000580499649999  0.6851639088069562  0.18614678011035574  1.0000
  H   H23       1.0  0.47427614566181836  0.29762971151782125  0.5980358912716994  1.0000
  H   H24       1.0  0.5257236533888588  0.7023714269954626  0.4019613527479676  1.0000
  H   H25       1.0  0.7069166399418447  0.4579139740898129  0.4603158046425406  1.0000
  H   H26       1.0  0.29308433364241177  0.5420872126430609  0.5396837570270492  1.0000
  C   C1        1.0  0.3200913962568065  0.7417064583362746  0.819704957144971  1.0000
  C   C2        1.0  0.6799108206097201  0.2582890948446845  0.1802936366842829  1.0000
  C   C3        1.0  0.28290382896851435  0.8801679658357672  0.755686055761295  1.0000
  C   C4        1.0  0.7171044927783045  0.11982872564160373  0.24431301574903588  1.0000
  C   C5        1.0  0.2846534012220943  0.008779682306894196  0.8031498488838905  1.0000
  C   C6        1.0  0.7153511998490456  0.9912159331481265  0.1968516991499739  1.0000
  C   C7        1.0  0.32413663206141047  0.9929846189379604  0.9118899883540122  1.0000
  C   C8        1.0  0.675860590295308  0.0070065375986417015  0.08811351743560178  1.0000
  C   C9        1.0  0.3643296166018644  0.8518332139242802  0.9678089372311405  1.0000
  C   C10       1.0  0.6356663647653704  0.1481590819947129  0.03219542964944108  1.0000
  C   C11       1.0  0.28331901079023686  0.9931714565660746  0.5484506491507232  1.0000
  C   C12       1.0  0.7166819941124771  0.006828576729930101  0.4515474148732039  1.0000
  C   C13       1.0  0.22401363442822486  0.9591422975100418  0.4470523520859685  1.0000
  C   C14       1.0  0.775988566395789  0.0408588861947337  0.5529470055906955  1.0000
  C   C15       1.0  0.2757722988816625  0.046180909252093706  0.3337923760901588  1.0000
  C   C16       1.0  0.7242311330010764  0.9538213906963335  0.666206594144029  1.0000
  C   C17       1.0  0.21751217221956404  0.010870980734218003  0.24247789329801614  1.0000
  C   C18       1.0  0.7824912596631749  0.9891313192142096  0.7575210769361715  1.0000
  C   C19       1.0  0.11029523013965556  0.8901326957031233  0.26699633750483537  1.0000
  C   C20       1.0  0.8897033103528146  0.10986959927510752  0.7330026081534128  1.0000
  C   C21       1.0  0.06199481479954729  0.811788775658002  0.3834379555150987  1.0000
  C   C22       1.0  0.9380061801724152  0.18821351326404573  0.6165605821573124  1.0000
  C   C23       1.0  0.9369210730859693  0.6877452268109112  0.41648829934081266  1.0000
  C   C24       1.0  0.0630786243713644  0.3122571334694727  0.5835138045149577  1.0000
  C   C25       1.0  0.7615227486497887  0.5444903440496703  0.6024910153905694  1.0000
  C   C26       1.0  0.23847698776396703  0.45551310133733125  0.39750922392041577  1.0000
  C   C27       1.0  0.7176576988662972  0.5388028130967727  0.7251634183735547  1.0000
  C   C28       1.0  0.28233712858847326  0.4612006444025881  0.2748376369091048  1.0000
  C   C29       1.0  0.5050925065258696  0.3741387494228903  0.751179501033789  1.0000
  C   C30       1.0  0.4949060652850578  0.6258623921184849  0.24881794697880358  1.0000
  C   C31       1.0  0.5449947913590235  0.368724304271467  0.6312798868858921  1.0000
  C   C32       1.0  0.45500499776090214  0.6312790898678531  0.3687178307822662  1.0000
  C   C33       1.0  0.6740335755442217  0.4557576462858109  0.5549162941437089  1.0000
  C   C34       1.0  0.3259674308846954  0.5442480004514607  0.4450816931800148  1.0000
  N   N1        1.0  0.36254603271811453  0.728480254650741  0.9222150406913769  1.0000
  N   N2        1.0  0.637452463472748  0.27151422250786794  0.0777860296614108  1.0000
  N   N3        1.0  0.2442634396159065  0.8834247129634963  0.6474000965047608  1.0000
  N   N4        1.0  0.7557449249063171  0.11657418289222933  0.3525969270112199  1.0000
  N   N5        1.0  0.11821424918380069  0.845528244336272  0.4713965232857617  1.0000
  N   N6        1.0  0.8817879478212234  0.15447182009676652  0.5286030178404673  1.0000
  N   N7        1.0  0.8896463940379392  0.6394338396842872  0.5362031995366863  1.0000
  N   N8        1.0  0.11035090928402978  0.3605707139480785  0.4637964237629646  1.0000
  N   N9        1.0  0.5914115253767419  0.4573643825647836  0.7969912842312682  1.0000
  N   N10       1.0  0.40858333721546797  0.5426390407694585  0.20300808995617103  1.0000
  Cl  Cl1       1.0  0.754365676832549  0.662238998792546  0.971577190984476  1.0000
  Cl  Cl2       1.0  0.24563161350626214  0.3377565835833352  0.028423059364065816  1.0000
  O   O1        1.0  0.3581789730335885  0.109729912304104  0.5402349877053608  1.0000
  O   O2        1.0  0.641819518571701  0.8902735531935451  0.4597662961461567  1.0000
  O   O3        1.0  0.8848309451318457  0.6404532039021407  0.3419705984872721  1.0000
  O   O4        1.0  0.11516761674832308  0.3595501932652709  0.6580273231738047  1.0000
