data_image0
_chemical_formula_structural       Sr2H18C8O15
_chemical_formula_sum              "Sr2 H18 C8 O15"
_cell_length_a       6.437360870889471
_cell_length_b       7.814774546284839
_cell_length_c       8.921572733144123
_cell_angle_alpha    72.88200033954313
_cell_angle_beta     75.16644634926132
_cell_angle_gamma    86.23966006302308

_space_group_name_H-M_alt    "P 1"
_space_group_IT_number       1

loop_
  _space_group_symop_operation_xyz
  'x, y, z'

loop_
  _atom_site_type_symbol
  _atom_site_label
  _atom_site_symmetry_multiplicity
  _atom_site_fract_x
  _atom_site_fract_y
  _atom_site_fract_z
  _atom_site_occupancy
  Sr  Sr1       1.0  0.20568185674743947  0.11837315944822542  0.5886188719031222  1.0000
  Sr  Sr2       1.0  0.16518029880111842  0.46117109982063903  0.10484232527009847  1.0000
  H   H1        1.0  0.7920985603746046  0.6504458899631799  0.7374305039376238  1.0000
  H   H2        1.0  0.9745129402485448  0.7674728901938153  0.36809611604159875  1.0000
  H   H3        1.0  0.7356304525323764  0.6379337606899399  0.4737653090118813  1.0000
  H   H4        1.0  0.4227001285082678  0.8143025068227061  0.3039016622768854  1.0000
  H   H5        1.0  0.6693837103594333  0.9276776250262061  0.19655976628919083  1.0000
  H   H6        1.0  0.5852249897808548  0.9313395974991535  0.9334664019394195  1.0000
  H   H7        1.0  0.6092852481240598  0.22055632795208882  0.6686366599633756  1.0000
  H   H8        1.0  0.43919286622656273  0.20829971491259164  0.8357862140904188  1.0000
  H   H9        1.0  0.9770041762730415  0.10905271227585439  0.9484250515621894  1.0000
  H   H10       1.0  0.9473183356964086  0.9003014024024196  0.9544562061338766  1.0000
  H   H11       1.0  0.1490936384581545  0.693441784739555  0.6895370589612567  1.0000
  H   H12       1.0  0.22743144039318958  0.8931798207945929  0.9934644264184769  1.0000
  H   H13       1.0  0.6710044502024033  0.3499950713715165  0.26565060488800196  1.0000
  H   H14       1.0  0.7805373872695397  0.22948710256019214  0.4040595334356922  1.0000
  H   H15       1.0  0.9314075341806144  0.36777975675053654  0.8445234505559398  1.0000
  H   H16       1.0  0.7749504755556842  0.37217928374867165  0.011409905786379687  1.0000
  H   H17       1.0  0.39243772739137484  0.4716199144025736  0.7353045488032066  1.0000
  H   H18       1.0  0.42801420490469866  0.6774114771525889  0.7258954967213994  1.0000
  C   C1        1.0  0.7257813351275431  0.915457030796979  0.6069259942368318  1.0000
  C   C2        1.0  0.8703044404925039  0.7513408428924463  0.6243380608660445  1.0000
  C   C3        1.0  0.8945551828959494  0.6713990484933491  0.48305412440458884  1.0000
  C   C4        1.0  0.021988116460029503  0.49844059304157184  0.5101466495627918  1.0000
  C   C5        1.0  0.3936820620231885  0.08832035164465421  0.16990930936290743  1.0000
  C   C6        1.0  0.5051632643773303  0.9082554093966663  0.18825780186893576  1.0000
  C   C7        1.0  0.5114231120671137  0.830777241207457  0.048324495496700606  1.0000
  C   C8        1.0  0.6552217762663161  0.6660933829549549  0.05773361288442663  1.0000
  O   O1        1.0  0.46256619740415056  0.25647556978352526  0.7151233074106996  1.0000
  O   O2        1.0  0.04153627378239119  0.010339529175652704  0.901970794580734  1.0000
  O   O3        1.0  0.8118453199967278  0.0689133988583848  0.5755309037095415  1.0000
  O   O4        1.0  0.5274186691245504  0.8896864675817326  0.6246493259767262  1.0000
  O   O5        1.0  0.07436847014739101  0.8005286042938592  0.6332116794169238  1.0000
  O   O6        1.0  0.32996093486683264  0.14401969777730986  0.2943651290950626  1.0000
  O   O7        1.0  0.3676292756811534  0.1798475443180365  0.0321641415869252  1.0000
  O   O8        1.0  0.8540445242087671  0.69283598054151  0.040362766387985985  1.0000
  O   O9        1.0  0.5711568692609106  0.5147236580383207  0.08083923152231877  1.0000
  O   O10       1.0  0.3019726995654466  0.7851680888087033  0.04750085541084554  1.0000
  O   O11       1.0  0.16358640792127935  0.4668475523935313  0.3938012716615873  1.0000
  O   O12       1.0  0.9786419171613333  0.38711366869925007  0.6517378404421876  1.0000
  O   O13       1.0  0.8002937913929459  0.3336858352252462  0.3065965586896411  1.0000
  O   O14       1.0  0.9144218185422447  0.3228058072147348  0.9642342516735525  1.0000
  O   O15       1.0  0.32860548395102285  0.5717709966606253  0.7792843467334831  1.0000
