data_image0
_chemical_formula_structural       Zn8H80C96N16O16
_chemical_formula_sum              "Zn8 H80 C96 N16 O16"
_cell_length_a       13.71554075387112
_cell_length_b       18.11082808686015
_cell_length_c       18.110818373470824
_cell_angle_alpha    81.61512189856015
_cell_angle_beta     67.78131498570994
_cell_angle_gamma    67.78131485367166

_space_group_name_H-M_alt    "P 1"
_space_group_IT_number       1

loop_
  _space_group_symop_operation_xyz
  'x, y, z'

loop_
  _atom_site_type_symbol
  _atom_site_label
  _atom_site_symmetry_multiplicity
  _atom_site_fract_x
  _atom_site_fract_y
  _atom_site_fract_z
  _atom_site_occupancy
  Zn  Zn1       1.0  0.12777564502045644  0.7160832079170945  0.2687412768850308  1.0000
  Zn  Zn2       1.0  0.8874373189560177  0.768728063083536  0.21600749731798893  1.0000
  Zn  Zn3       1.0  0.3722233190178842  0.7312595529450975  0.2839165210155911  1.0000
  Zn  Zn4       1.0  0.6125624339999833  0.7839921023263444  0.23127168127741268  1.0000
  Zn  Zn5       1.0  0.8722229043859571  0.2839177608745089  0.7312590890272331  1.0000
  Zn  Zn6       1.0  0.11256323293359588  0.23127111869038688  0.7839917698448176  1.0000
  Zn  Zn7       1.0  0.6277783500319458  0.2687396282230595  0.7160832050326461  1.0000
  Zn  Zn8       1.0  0.38743726546355395  0.21600767473370303  0.7687281356516067  1.0000
  H   H1        1.0  0.28993902218959994  0.5156735090218092  0.13720124450736648  1.0000
  H   H2        1.0  0.057781677684786786  0.636752382827929  0.015413035659271716  1.0000
  H   H3        1.0  0.21006284051619434  0.8627992327732629  0.484325727483693  1.0000
  H   H4        1.0  0.44222050540373953  0.9845876164861876  0.36324663113161654  1.0000
  H   H5        1.0  0.7100651712415531  0.4843250774137786  0.8627978401109002  1.0000
  H   H6        1.0  0.9422210718432569  0.36324799032245647  0.9845873771511647  1.0000
  H   H7        1.0  0.7899385309025821  0.1372005448403328  0.515673997781569  1.0000
  H   H8        1.0  0.5577819831752466  0.015412160521641698  0.6367535530190834  1.0000
  H   H9        1.0  0.39581806993687974  0.41039184187841476  0.032261145926426586  1.0000
  H   H10       1.0  0.16280847275674395  0.5317863565667764  0.9101570504834839  1.0000
  H   H11       1.0  0.10418288020395058  0.9677390535142864  0.5896077623992468  1.0000
  H   H12       1.0  0.33719294454395776  0.08984346957681309  0.46821299923609416  1.0000
  H   H13       1.0  0.6041825186347367  0.5896061473075136  0.9677378933596117  1.0000
  H   H14       1.0  0.8371931633961722  0.46821401572717036  0.089843683433422  1.0000
  H   H15       1.0  0.8958151068372686  0.0322619170424119  0.41039159407839776  1.0000
  H   H16       1.0  0.6628064535034498  0.9101569053908705  0.5317860369180565  1.0000
  H   H17       1.0  0.628210315077141  0.38632833592247817  0.80226097685685  1.0000
  H   H18       1.0  0.18333736885801966  0.3023949804959969  0.8864399530858832  1.0000
  H   H19       1.0  0.8717905640228953  0.197738249768733  0.6136713514828145  1.0000
  H   H20       1.0  0.3166631570233992  0.11356067416637218  0.697604513540753  1.0000
  H   H21       1.0  0.3717893439193175  0.6136726351877686  0.1977382879570442  1.0000
  H   H22       1.0  0.816663186816676  0.6976041998157215  0.11356009406883065  1.0000
  H   H23       1.0  0.12820768775246458  0.8022633154683093  0.3863290136464741  1.0000
  H   H24       1.0  0.6833356824439039  0.8864397011041946  0.30239429317067845  1.0000
  H   H25       1.0  0.5578853470114427  0.4117341684922665  0.9044821092847922  1.0000
  H   H26       1.0  0.12635726981878997  0.404626719973166  0.9117644881894407  1.0000
  H   H27       1.0  0.9421152401727897  0.09551686544512711  0.5882662106822422  1.0000
  H   H28       1.0  0.37364439367533464  0.08823592478574233  0.5953723813530445  1.0000
  H   H29       1.0  0.44211460961606985  0.5882662061725342  0.09551715631206999  1.0000
  H   H30       1.0  0.8736424334298291  0.595373055624677  0.08823610873147904  1.0000
  H   H31       1.0  0.057882453022465266  0.9044847000948054  0.4117339250043272  1.0000
  H   H32       1.0  0.6263561101770492  0.9117644539627819  0.4046247737108286  1.0000
  H   H33       1.0  0.5175896134482801  0.47966401288620364  0.8313844048893768  1.0000
  H   H34       1.0  0.1715642840440883  0.33155898931705974  0.979804466893782  1.0000
  H   H35       1.0  0.9824095728974319  0.16861523943972398  0.5203358028126032  1.0000
  H   H36       1.0  0.32843638626513894  0.020195950053746997  0.6684406803904679  1.0000
  H   H37       1.0  0.48240867500907597  0.5203363597628438  0.16861573236313623  1.0000
  H   H38       1.0  0.8284362754156831  0.6684401895324542  0.020196360252825087  1.0000
  H   H39       1.0  0.01758782266676929  0.8313869225456472  0.47966433209099796  1.0000
  H   H40       1.0  0.671561894622059  0.9798044255197028  0.3315578968782518  1.0000
  H   H41       1.0  0.20667585069566755  0.8240899971520649  0.045578657365439285  1.0000
  H   H42       1.0  0.9234355479011783  0.5454745628063052  0.3240456644533508  1.0000
  H   H43       1.0  0.2933212453816339  0.9544232655019304  0.17591172480532452  1.0000
  H   H44       1.0  0.5765640664054602  0.6759549669963861  0.45452592810232767  1.0000
  H   H45       1.0  0.793324672082115  0.17591037428544357  0.9544223976579429  1.0000
  H   H46       1.0  0.07656641877969868  0.4545240219164128  0.6759540623778618  1.0000
  H   H47       1.0  0.7066815483985637  0.045575912136051513  0.8240900201121446  1.0000
  H   H48       1.0  0.42343730122824064  0.32404481207941427  0.5454730171710408  1.0000
  H   H49       1.0  0.2078889688654831  0.9287631956641533  0.9395163928552462  1.0000
  H   H50       1.0  0.9235231904567627  0.43935401568055  0.4286222003029961  1.0000
  H   H51       1.0  0.29210597135791266  0.06048437882902393  0.07123529963178746  1.0000
  H   H52       1.0  0.576476169998337  0.5713770485840542  0.5606450838087864  1.0000
  H   H53       1.0  0.7921081771048932  0.0712383657920483  0.06048585336431953  1.0000
  H   H54       1.0  0.07647740189992915  0.560643972043181  0.5713776189749423  1.0000
  H   H55       1.0  0.7078931441987567  0.9395165867352946  0.9287668557069962  1.0000
  H   H56       1.0  0.423524639055259  0.42862273079462915  0.43935363202186284  1.0000
  H   H57       1.0  0.004537676744661147  0.13855731485566036  0.8899678182661007  1.0000
  H   H58       1.0  0.9669678606953627  0.3899248935738058  0.6385810847049525  1.0000
  H   H59       1.0  0.4954597412951716  0.1100324371353594  0.8614429209443272  1.0000
  H   H60       1.0  0.5330304409134643  0.36141914049054696  0.610075195936531  1.0000
  H   H61       1.0  0.9954606154977699  0.8614430563311901  0.11003309897832031  1.0000
  H   H62       1.0  0.03303154113712756  0.6100754799316803  0.36141873144109843  1.0000
  H   H63       1.0  0.5045376909510254  0.8899685322620173  0.1385569860825058  1.0000
  H   H64       1.0  0.4669684061239964  0.6385812318556177  0.3899251707587013  1.0000
  H   H65       1.0  0.00504270993645444  0.10566396953159803  0.9869643802954966  1.0000
  H   H66       1.0  0.902434730181753  0.4869021138339633  0.6056619927848742  1.0000
  H   H67       1.0  0.49495749713958775  0.013033859749420205  0.8943362010993637  1.0000
  H   H68       1.0  0.5975642431387133  0.39433803111386106  0.513098154707599  1.0000
  H   H69       1.0  0.9949561371010066  0.8943364028145737  0.013035986399735636  1.0000
  H   H70       1.0  0.09756467165073722  0.5130982596715228  0.3943378233611766  1.0000
  H   H71       1.0  0.505041088948822  0.9869659164541962  0.10566393693613213  1.0000
  H   H72       1.0  0.40243460389874763  0.6056623412323107  0.4869022119876334  1.0000
  H   H73       1.0  0.06207743764356654  0.0354481698969451  0.9098353994487737  1.0000
  H   H74       1.0  0.9925606470920133  0.4097518030168389  0.5354538709792959  1.0000
  H   H75       1.0  0.43792092298537033  0.09016426857199632  0.9645522553700232  1.0000
  H   H76       1.0  0.5074389523695829  0.46454623863159134  0.5902481437882442  1.0000
  H   H77       1.0  0.9379222656050531  0.9645516057008976  0.09016519747214598  1.0000
  H   H78       1.0  0.007438754740476871  0.5902485704886403  0.46454594516675485  1.0000
  H   H79       1.0  0.562079889853301  0.9098355093444827  0.03544724045252676  1.0000
  H   H80       1.0  0.49256045324798253  0.5354541334116903  0.40975245234970703  1.0000
  C   C1        1.0  0.10471974342183203  0.6452089742465432  0.1452338513759628  1.0000
  C   C2        1.0  0.3952805885713534  0.8547667209508846  0.35479034989016606  1.0000
  C   C3        1.0  0.8952819294130735  0.35479020545940904  0.8547666546641819  1.0000
  C   C4        1.0  0.6047199671033427  0.1452324593608409  0.6452096972645407  1.0000
  C   C5        1.0  0.16750781674568327  0.58257931343298  0.08263922077134819  1.0000
  C   C6        1.0  0.33249377963456817  0.9173617192158687  0.41741971163924046  1.0000
  C   C7        1.0  0.8324957852084369  0.41742046443128095  0.9173606422728824  1.0000
  C   C8        1.0  0.6675081503643131  0.0826380580948438  0.5825802430687402  1.0000
  C   C9        1.0  0.26315557447405513  0.5187423457366834  0.08699193058964741  1.0000
  C   C10       1.0  0.13172950800660757  0.5867266572647835  0.018607618994401824  1.0000
  C   C11       1.0  0.2368472773855785  0.913008175400755  0.4812570342229279  1.0000
  C   C12       1.0  0.368272642169835  0.9813935316948773  0.41327294965400796  1.0000
  C   C13       1.0  0.7368483617931223  0.481255643094144  0.9130077053607834  1.0000
  C   C14       1.0  0.8682735429375655  0.41327311797795835  0.9813935745909104  1.0000
  C   C15       1.0  0.7631532416071212  0.08699219749896514  0.5187432408085471  1.0000
  C   C16       1.0  0.6317287292489414  0.01860624591871841  0.5867267756112609  1.0000
  C   C17       1.0  0.322155165032399  0.4603972092047855  0.028188153785841125  1.0000
  C   C18       1.0  0.19024395425906726  0.5278886191107119  0.9603119958112459  1.0000
  C   C19       1.0  0.17784630418390915  0.9718116948764646  0.5396030571681932  1.0000
  C   C20       1.0  0.3097579589304545  0.0396888964142192  0.47211025400396517  1.0000
  C   C21       1.0  0.6778467978634031  0.5396013769801371  0.9718107930534642  1.0000
  C   C22       1.0  0.8097551941945226  0.47211115532780923  0.03968915165886242  1.0000
  C   C23       1.0  0.8221539538597329  0.028188081880699708  0.46039698920354505  1.0000
  C   C24       1.0  0.6902434087032463  0.9603108826615814  0.5278886912694033  1.0000
  C   C25       1.0  0.2865642011468313  0.46382584449958847  0.963965981303694  1.0000
  C   C26       1.0  0.21343787716714513  0.03603448298400741  0.5361737998649189  1.0000
  C   C27       1.0  0.713437206953941  0.5361727405260127  0.036033516084799405  1.0000
  C   C28       1.0  0.7865629356715265  0.9639652949324711  0.46382569595763085  1.0000
  C   C29       1.0  0.34825470870644915  0.40199550321698047  0.9021952592228998  1.0000
  C   C30       1.0  0.15174568612599892  0.09780386695204159  0.5980046133701932  1.0000
  C   C31       1.0  0.6517443992800623  0.59800546527174  0.09780533613207615  1.0000
  C   C32       1.0  0.8482540500195416  0.9021947175200111  0.401994975682058  1.0000
  C   C33       1.0  0.4618614351854476  0.38033161426210427  0.8519756366654007  1.0000
  C   C34       1.0  0.30619097699523956  0.35192977728164726  0.8804790878047583  1.0000
  C   C35       1.0  0.03813864670576091  0.1480244479639268  0.6196681955078773  1.0000
  C   C36       1.0  0.19380995322230657  0.11952087626806217  0.6480693105637129  1.0000
  C   C37       1.0  0.5381379704321178  0.6196687577811774  0.14802495947255076  1.0000
  C   C38       1.0  0.6938090200993515  0.6480694033329544  0.11952072990723653  1.0000
  C   C39       1.0  0.9618604979627536  0.8519753279367991  0.38033217197033037  1.0000
  C   C40       1.0  0.8061894410400258  0.8804795001618261  0.3519289455985301  1.0000
  C   C41       1.0  0.54595270740613  0.41599309800702866  0.8471480095684283  1.0000
  C   C42       1.0  0.191178551095263  0.3472578595103997  0.9161137475625266  1.0000
  C   C43       1.0  0.9540469168732245  0.15285177622553192  0.5840065337224444  1.0000
  C   C44       1.0  0.3088210653641996  0.0838872325175402  0.652741534362704  1.0000
  C   C45       1.0  0.45404587489719744  0.5840066796587848  0.152851348475167  1.0000
  C   C46       1.0  0.8088211521533569  0.6527419160874429  0.08388684935840009  1.0000
  C   C47       1.0  0.04595077632203014  0.8471497893143936  0.41599360196412494  1.0000
  C   C48       1.0  0.6911769178919444  0.9161137395013486  0.34725704212304  1.0000
  C   C49       1.0  0.24999914674798873  0.8202243522388174  0.17977777457132754  1.0000
  C   C50       1.0  0.7500010018315424  0.6797933616220817  0.32020653762487666  1.0000
  C   C51       1.0  0.7500027908210503  0.1797754221474932  0.8202237401204541  1.0000
  C   C52       1.0  0.25000181727541815  0.32020462781451187  0.679792639440123  1.0000
  C   C53       1.0  0.24999708412464375  0.8829489148992594  0.11705266335091116  1.0000
  C   C54       1.0  0.749999516760319  0.6170514663034724  0.38294924357690957  1.0000
  C   C55       1.0  0.7500037400692607  0.11705085863061271  0.88294917244734  1.0000
  C   C56       1.0  0.25000158992432403  0.3829477166297721  0.6170494730367082  1.0000
  C   C57       1.0  0.2250531683894508  0.8762850511213147  0.05053704389504792  1.0000
  C   C58       1.0  0.8479911161959214  0.5504822198799458  0.3762742033366777  1.0000
  C   C59       1.0  0.27493999392338264  0.9494651165437917  0.12371607140656239  1.0000
  C   C60       1.0  0.6520082555227306  0.6237253478609758  0.44951807335639415  1.0000
  C   C61       1.0  0.7749447857548549  0.1237171105611736  0.9494633204512722  1.0000
  C   C62       1.0  0.1520097333247465  0.4495163654485382  0.6237250646091042  1.0000
  C   C63       1.0  0.7250599664892123  0.050535256658804394  0.8762839741822005  1.0000
  C   C64       1.0  0.3479936744761575  0.3762744294497367  0.5504818813515868  1.0000
  C   C65       1.0  0.22518251299425912  0.9350486552974858  0.9918594857526059  1.0000
  C   C66       1.0  0.8477134119390118  0.4917504136599009  0.4349879649127216  1.0000
  C   C67       1.0  0.27481519342485683  0.0081405459017745  0.06495100304945108  1.0000
  C   C68       1.0  0.6522867169310732  0.5650109353052598  0.5082489599320325  1.0000
  C   C69       1.0  0.7748170764232898  0.0649546995265453  0.008141014806724937  1.0000
  C   C70       1.0  0.1522874375816628  0.5082481716685835  0.56501130303306  1.0000
  C   C71       1.0  0.7251844693566911  0.9918604237462676  0.9350490417563434  1.0000
  C   C72       1.0  0.347714687384624  0.4349876511825388  0.49174975746456073  1.0000
  C   C73       1.0  0.24999967729927902  0.0021844283481442994  0.9978157745627952  1.0000
  C   C74       1.0  0.7499995095908008  0.49777649089838144  0.5022225148080537  1.0000
  C   C75       1.0  0.7499985453642352  0.9978183265524909  0.002186378427069295  1.0000
  C   C76       1.0  0.25000048371871486  0.5022226911784318  0.4977765229120407  1.0000
  C   C77       1.0  0.24999900959451812  0.06405258780741012  0.9359447037616561  1.0000
  C   C78       1.0  0.7499996081390067  0.4359005683738602  0.5640980001813317  1.0000
  C   C79       1.0  0.7499980516566328  0.9359513632113945  0.0640556582357447  1.0000
  C   C80       1.0  0.2500003851705019  0.5640986137029529  0.4359010375387625  1.0000
  C   C81       1.0  0.16564923435166187  0.10318880990737261  0.9026404414364889  1.0000
  C   C82       1.0  0.8285365801460643  0.40257642615435424  0.6032322685069075  1.0000
  C   C83       1.0  0.33434745104283814  0.09735962046153901  0.8968128574726748  1.0000
  C   C84       1.0  0.6714640131199234  0.39676590424554803  0.5974223883619273  1.0000
  C   C85       1.0  0.8343481725677723  0.896813347691392  0.09736203344282049  1.0000
  C   C86       1.0  0.17146397174354902  0.5974227556195758  0.39676699865589876  1.0000
  C   C87       1.0  0.6656508083026725  0.9026419418511012  0.10318906764041462  1.0000
  C   C88       1.0  0.32853598397466777  0.6032332763690604  0.4025774293500675  1.0000
  C   C89       1.0  0.05406661124297326  0.09522618419458692  0.9229774591564351  1.0000
  C   C90       1.0  0.9277643246797431  0.42291276486902524  0.5952423461278897  1.0000
  C   C91       1.0  0.4459310851261409  0.07702134445284507  0.9047743389933272  1.0000
  C   C92       1.0  0.5722345563685421  0.40475736028108156  0.5770870737810583  1.0000
  C   C93       1.0  0.9459322357944872  0.9047741881515777  0.07702290753879745  1.0000
  C   C94       1.0  0.0722356319477697  0.5770876097957754  0.40475691946898  1.0000
  C   C95       1.0  0.554067464280273  0.9229796243387586  0.09522602691892959  1.0000
  C   C96       1.0  0.4277642906689183  0.5952430120650831  0.422913292914174  1.0000
  N   N1        1.0  0.4853162538265962  0.32121389502331976  0.8032105144401314  1.0000
  N   N2        1.0  0.3903463695171683  0.3032266631895553  0.8212360103990405  1.0000
  N   N3        1.0  0.014684797143601831  0.19678937272066582  0.6787860049466302  1.0000
  N   N4        1.0  0.10965515025872467  0.1787632480648398  0.6967724935212941  1.0000
  N   N5        1.0  0.514682593210864  0.6787864773228521  0.19678985225510093  1.0000
  N   N6        1.0  0.6096538847413981  0.6967731150298067  0.17876325598079756  1.0000
  N   N7        1.0  0.9853146046888884  0.8032110007848203  0.3212138111994208  1.0000
  N   N8        1.0  0.8903451002147593  0.8212365316167265  0.3032259928666363  1.0000
  N   N9        1.0  0.19818907560332405  0.15638968482613075  0.8478912708183656  1.0000
  N   N10       1.0  0.7975394368293609  0.3478338346282115  0.656436927329274  1.0000
  N   N11       1.0  0.30180974800016014  0.15210858291797544  0.8436111634544119  1.0000
  N   N12       1.0  0.7024602711506063  0.34356283754606665  0.6521668453838315  1.0000
  N   N13       1.0  0.801810330014242  0.8436106872171508  0.15210932531958582  1.0000
  N   N14       1.0  0.2024599687882046  0.65216653741507  0.34356366880867734  1.0000
  N   N15       1.0  0.6981896576174054  0.847891789125306  0.15638943268353953  1.0000
  N   N16       1.0  0.297539990678118  0.6564369377488931  0.3478339809798072  1.0000
  O   O1        1.0  0.13007889223294472  0.6322586472946271  0.20813462699975097  1.0000
  O   O2        1.0  0.02939247031532941  0.7079950088114161  0.1321588823693389  1.0000
  O   O3        1.0  0.3699202400416584  0.7918666710090321  0.367741499178983  1.0000
  O   O4        1.0  0.47060897211335384  0.8678412220593259  0.29200374577956006  1.0000
  O   O5        1.0  0.8699230377659437  0.3677411300160855  0.7918653277082298  1.0000
  O   O6        1.0  0.9706081220413701  0.2920029789123078  0.8678409369085995  1.0000
  O   O7        1.0  0.6300780522007728  0.20813370017781102  0.6322594180654376  1.0000
  O   O8        1.0  0.5293912821452127  0.13215855616004288  0.7079955206002778  1.0000
  O   O9        1.0  0.21789920767127322  0.7641344544179846  0.1742196639866193  1.0000
  O   O10       1.0  0.8436452282863912  0.6742203473841286  0.26407775794464067  1.0000
  O   O11       1.0  0.28210057074739603  0.8257808099208006  0.2358651292677294  1.0000
  O   O12       1.0  0.6563553387711569  0.7359207428603584  0.3257799855168031  1.0000
  O   O13       1.0  0.7821010503723689  0.2358653223391727  0.825780382385119  1.0000
  O   O14       1.0  0.15635558833736277  0.3257794290701526  0.7359225178698097  1.0000
  O   O15       1.0  0.7178996910813287  0.174218965374159  0.7641356970959093  1.0000
  O   O16       1.0  0.3436466937035619  0.2640754596107727  0.6742177255770655  1.0000
