data_image0
_chemical_formula_structural       Rb2H14C8O20
_chemical_formula_sum              "Rb2 H14 C8 O20"
_cell_length_a       6.319797365010208
_cell_length_b       7.172882132446249
_cell_length_c       10.616940140781823
_cell_angle_alpha    94.02515046872313
_cell_angle_beta     100.60779693920198
_cell_angle_gamma    97.81486653667645

_space_group_name_H-M_alt    "P 1"
_space_group_IT_number       1

loop_
  _space_group_symop_operation_xyz
  'x, y, z'

loop_
  _atom_site_type_symbol
  _atom_site_label
  _atom_site_symmetry_multiplicity
  _atom_site_fract_x
  _atom_site_fract_y
  _atom_site_fract_z
  _atom_site_occupancy
  Rb  Rb1       1.0  0.6583460611502687  0.6475753802035629  0.271511523192963  1.0000
  Rb  Rb2       1.0  0.34165177919155815  0.35242468392683435  0.7284888159736481  1.0000
  H   H1        1.0  0.1333620520415124  0.4334538169713724  0.24698155073907907  1.0000
  H   H2        1.0  0.866637398215495  0.5665462476208206  0.7530189622011249  1.0000
  H   H3        1.0  0.14706350357504047  0.9353656171118843  0.2435595436754596  1.0000
  H   H4        1.0  0.852937549635122  0.06463446013334821  0.7564392590966873  1.0000
  H   H5        1.0  0.639809916231755  0.15100197990047093  0.23194762557893966  1.0000
  H   H6        1.0  0.3601911404594134  0.8489980912491435  0.7680521191640252  1.0000
  H   H7        1.0  0.2625611577109339  0.3046247506369043  0.39010299357418177  1.0000
  H   H8        1.0  0.7374412655495635  0.6953739009060843  0.609897768749164  1.0000
  H   H9        1.0  0.23659598158423023  0.5218199254330501  0.4257476791589667  1.0000
  H   H10       1.0  0.7634050785879509  0.4781801396209461  0.5742530075548231  1.0000
  H   H11       1.0  0.4119808009130494  0.1967828997983148  0.07503739151277238  1.0000
  H   H12       1.0  0.5880184025170933  0.8032157508210819  0.924963023263409  1.0000
  H   H13       1.0  0.6492016413835701  0.29115263541503117  0.062804235381499  1.0000
  H   H14       1.0  0.35079941878861126  0.708847429638965  0.9371964513322838  1.0000
  C   C1        1.0  0.08419299490973489  0.5135657717006269  0.0639475698148715  1.0000
  C   C2        1.0  0.915806208520401  0.48643287891876963  0.9360528449613097  1.0000
  C   C3        1.0  0.987747049858548  0.9533533862822314  0.06225173070880889  1.0000
  C   C4        1.0  0.012255613266788099  0.046646691424804515  0.9377472458369239  1.0000
  C   C5        1.0  0.22485577564702913  0.9405817584966771  0.45790448300656544  1.0000
  C   C6        1.0  0.7751436711289657  0.05941831219114852  0.5420950879628137  1.0000
  C   C7        1.0  0.742904411849942  0.17518934218554705  0.4230049612288411  1.0000
  C   C8        1.0  0.2570950349260528  0.8248107285022713  0.5769946097405381  1.0000
  O   O1        1.0  0.26830035399726887  0.4323883337032229  0.35715813313690586  1.0000
  O   O2        1.0  0.7316988494328741  0.5676103169161664  0.6428422816392754  1.0000
  O   O3        1.0  0.5587316744475146  0.24790975334601487  0.1254986845004211  1.0000
  O   O4        1.0  0.4412675289826282  0.7520888972733745  0.8745017302757532  1.0000
  O   O5        1.0  0.011718454146915698  0.427301637065206  0.1545812398859283  1.0000
  O   O6        1.0  0.9882823626794135  0.5726970079203682  0.8454202906346564  1.0000
  O   O7        1.0  0.2655331959746263  0.6101967966131525  0.07274008449788029  1.0000
  O   O8        1.0  0.7344676208517028  0.38980184837241444  0.9272614460227047  1.0000
  O   O9        1.0  0.15318844950567012  0.008415950492043604  0.1558422606074359  1.0000
  O   O10       1.0  0.846814213619666  0.9915841272149922  0.844156715938297  1.0000
  O   O11       1.0  0.8237320153159686  0.8383468353503433  0.06528603824499161  1.0000
  O   O12       1.0  0.176269037894194  0.1616532418948893  0.9347127645271556  1.0000
  O   O13       1.0  0.15724487394096803  0.8398317297223062  0.3504910091360074  1.0000
  O   O14       1.0  0.8427529629198532  0.16016834050371645  0.6495083880597861  1.0000
  O   O15       1.0  0.7322228695926541  0.8823694760655062  0.5228899944925941  1.0000
  O   O16       1.0  0.2677765806643535  0.11763058852669422  0.4771105184476028  1.0000
  O   O17       1.0  0.6831526279957032  0.07122046386241722  0.31259966799016325  1.0000
  O   O18       1.0  0.3168484286954651  0.9287796072872043  0.6874000767528017  1.0000
  O   O19       1.0  0.7725393346989761  0.3503071714161337  0.43631147940362774  1.0000
  O   O20       1.0  0.22746011207701858  0.6496928992716846  0.5636880915657584  1.0000
