data_image0
_chemical_formula_structural       Zn8H26C90N6O26F4
_chemical_formula_sum              "Zn8 H26 C90 N6 O26 F4"
_cell_length_a       25.638461369006478
_cell_length_b       25.647475086428535
_cell_length_c       25.61708227831177
_cell_angle_alpha    59.955094781997055
_cell_angle_beta     90.0267047901343
_cell_angle_gamma    119.99614025863016

_space_group_name_H-M_alt    "P 1"
_space_group_IT_number       1

loop_
  _space_group_symop_operation_xyz
  'x, y, z'

loop_
  _atom_site_type_symbol
  _atom_site_label
  _atom_site_symmetry_multiplicity
  _atom_site_fract_x
  _atom_site_fract_y
  _atom_site_fract_z
  _atom_site_occupancy
  Zn  Zn1       1.0  0.8441956866479428  0.5625788157350868  0.7195654759467017  1.0000
  Zn  Zn2       1.0  0.15580451851232607  0.4374212587534457  0.28043406505789636  1.0000
  Zn  Zn3       1.0  0.7183994626795779  0.5626490011435906  0.7193365063455487  1.0000
  Zn  Zn4       1.0  0.2816015826088076  0.43735191331381884  0.2806630953368412  1.0000
  Zn  Zn5       1.0  0.7187597609892006  0.43749930408518617  0.8443397126743123  1.0000
  Zn  Zn6       1.0  0.28124043834505835  0.5625002865504385  0.15566060387971695  1.0000
  Zn  Zn7       1.0  0.7182925669878202  0.43701330376986663  0.7191058966260966  1.0000
  Zn  Zn8       1.0  0.2817088026256511  0.5629874575576536  0.2808932486350669  1.0000
  H   H1        1.0  0.6030131097255164  0.620881005823442  0.4421703537178701  1.0000
  H   H2        1.0  0.5240447401910084  0.5917963151115372  0.8870420856350307  1.0000
  H   H3        1.0  0.017848564008403255  0.9546977533358711  0.442276637338857  1.0000
  H   H4        1.0  0.9821519261113777  0.045302605529393115  0.5577239707598167  1.0000
  H   H5        1.0  0.11253614446791708  0.04496534917019081  0.47283661240660274  1.0000
  H   H6        1.0  0.8874640213267707  0.9550351628249629  0.5271644521132968  1.0000
  H   H7        1.0  0.11279665676799758  0.5894626651547981  0.47885575650132495  1.0000
  H   H8        1.0  0.8872027900936953  0.4105347398071189  0.5211453684981676  1.0000
  H   H9        1.0  0.9318266361904364  0.376975405744432  0.02249291437137643  1.0000
  H   H10       1.0  0.06817379398735564  0.6230248936132271  0.9775068521875951  1.0000
  H   H11       1.0  0.0674298894576351  0.466382681128209  0.9783754197852232  1.0000
  H   H12       1.0  0.3969876112377903  0.3791200617638495  0.5578297043857461  1.0000
  H   H13       1.0  0.9325707715636895  0.5336183269514763  0.021623796778691053  1.0000
  H   H14       1.0  0.9324365936445176  0.4101983708865049  0.11300890988808719  1.0000
  H   H15       1.0  0.06756413314479881  0.5898031805537015  0.886990372666105  1.0000
  H   H16       1.0  0.4450750565733231  0.04497410114640855  0.024258386798841458  1.0000
  H   H17       1.0  0.5549246985518931  0.9550255236038792  0.9757407030970102  1.0000
  H   H18       1.0  0.4802501192706784  0.955398284857317  0.11308633056508911  1.0000
  H   H19       1.0  0.5197500259476084  0.04460173012360245  0.8869123688998074  1.0000
  H   H20       1.0  0.4821718673834068  0.5947265051096621  0.47272240422646666  1.0000
  H   H21       1.0  0.517828238469306  0.4052739473778785  0.5272778187537313  1.0000
  H   H22       1.0  0.6000820754328302  0.5309160945713671  0.02335441335608115  1.0000
  H   H23       1.0  0.39991788723189314  0.4690823034893155  0.9766472287424295  1.0000
  H   H24       1.0  0.5557452390466933  0.6221919903811043  0.9793807843144577  1.0000
  H   H25       1.0  0.44425472361803037  0.3778064076795788  0.020620857784052742  1.0000
  H   H26       1.0  0.4759554474912449  0.4082023078182716  0.11295978201786028  1.0000
  C   C1        1.0  0.6506572725847589  0.5003900068126725  0.6501792058681133  1.0000
  C   C2        1.0  0.9628865587749401  0.5186322050840034  0.012540685378411513  1.0000
  C   C3        1.0  0.9624719740518656  0.4315174422138881  0.013022076728965765  1.0000
  C   C4        1.0  0.037528686969459  0.5684835658657974  0.9869771398349485  1.0000
  C   C5        1.0  0.8891953479733556  0.4996664647296923  0.8897272226569439  1.0000
  C   C6        1.0  0.11080486301292322  0.5003340936117483  0.1102715427982233  1.0000
  C   C7        1.0  0.03801353072598329  0.5499982404412405  0.9374802601008341  1.0000
  C   C8        1.0  0.9619867402022777  0.45000237740781307  0.06251934689403527  1.0000
  C   C9        1.0  0.9624435644877919  0.500340466443632  0.9617188025055795  1.0000
  C   C10       1.0  0.037557096533532654  0.49966054163605367  0.0382804140583417  1.0000
  C   C11       1.0  0.9229813691877451  0.49983729558958595  0.9232313466832879  1.0000
  C   C12       1.0  0.3493429925174921  0.4996101271834732  0.349821176676187  1.0000
  C   C13       1.0  0.07701945108311736  0.5001633939987044  0.07676802944472881  1.0000
  C   C14       1.0  0.4448211787723006  0.9754448414321784  0.9888075031591227  1.0000
  C   C15       1.0  0.5551786421209002  0.02455532667863031  0.011191652726999702  1.0000
  C   C16       1.0  0.8498030564249957  0.4998389886278717  0.8499791028202566  1.0000
  C   C17       1.0  0.15019675864220244  0.5001606956300221  0.1500208286152969  1.0000
  C   C18       1.0  0.46934734848450427  0.024572637059243597  0.01404764501857871  1.0000
  C   C19       1.0  0.5306526374842446  0.9754276964130781  0.9859508948822153  1.0000
  C   C20       1.0  0.6103030931899908  0.22142326024841455  0.8892427736831648  1.0000
  C   C21       1.0  0.38969843567301143  0.7785771825877106  0.11075653114210844  1.0000
  C   C22       1.0  0.5111321534600178  0.024511822719397003  0.9371354450054739  1.0000
  C   C23       1.0  0.9373018182462899  0.45018162744499085  0.5117070219781751  1.0000
  C   C24       1.0  0.4888676674331903  0.9754883453914189  0.06286371088064878  1.0000
  C   C25       1.0  0.5372984925180333  0.07641911347607808  0.9609632011410908  1.0000
  C   C26       1.0  0.4627013283751749  0.9235810546347308  0.03903595474503163  1.0000
  C   C27       1.0  0.5761434034697782  0.1542645924904846  0.9224092611093297  1.0000
  C   C28       1.0  0.4238565824989706  0.8457357409818371  0.07758927879146435  1.0000
  C   C29       1.0  0.5299363648888756  0.5147051240684917  0.4452448819590131  1.0000
  C   C30       1.0  0.4700643560744309  0.4852959435187997  0.5547551761446029  1.0000
  C   C31       1.0  0.5568506391223095  0.5672983058894517  0.46780463307325687  1.0000
  C   C32       1.0  0.4431498568234743  0.432702536828721  0.5321951994759856  1.0000
  C   C33       1.0  0.6107745357086356  0.5004308926937354  0.6103763528743756  1.0000
  C   C34       1.0  0.06269739777186331  0.5498150687948992  0.4882946530163749  1.0000
  C   C35       1.0  0.3892255643180674  0.4995690759408973  0.3896246456552531  1.0000
  C   C36       1.0  0.5093873489576524  0.4470480596388812  0.5152985206274395  1.0000
  C   C37       1.0  0.4906131469881315  0.5529527830792986  0.4847013119218034  1.0000
  C   C38       1.0  0.5383853223439771  0.49993314056969507  0.5375984255774496  1.0000
  C   C39       1.0  0.4616151677757967  0.5000672182955695  0.4624021825212239  1.0000
  C   C40       1.0  0.8497174667996814  0.6992544614072995  0.6502003132687477  1.0000
  C   C41       1.0  0.15028400212134563  0.3007459219212122  0.34979815001681663  1.0000
  C   C42       1.0  0.5774517501037122  0.500413413303811  0.5765308474144107  1.0000
  C   C43       1.0  0.4225489050916095  0.49958711092296687  0.4234691446989345  1.0000
  C   C44       1.0  0.5314483205131635  0.5680197353199077  0.9880101381962801  1.0000
  C   C45       1.0  0.9607934521145438  0.49868705852443174  0.5386168207123986  1.0000
  C   C46       1.0  0.4685520322446309  0.431979052971407  0.011991113471275093  1.0000
  C   C47       1.0  0.5552238004175933  0.5171451495903767  0.013473651822167245  1.0000
  C   C48       1.0  0.44477616224713024  0.4828532484703062  0.9865279902763506  1.0000
  C   C49       1.0  0.6104919025482969  0.4998653788412778  0.8895717071942499  1.0000
  C   C50       1.0  0.3895079125189013  0.5001343054166227  0.11042822424130354  1.0000
  C   C51       1.0  0.5130070226749905  0.5511094197033087  0.9375072862316571  1.0000
  C   C52       1.0  0.4869929399897329  0.44888897835737407  0.06249435586685339  1.0000
  C   C53       1.0  0.5379270721849706  0.5004375980532885  0.9616527928560148  1.0000
  C   C54       1.0  0.4620728904797531  0.4995608000073943  0.0383488492424959  1.0000
  C   C55       1.0  0.5768772372880375  0.49998915203899924  0.9230982901178422  1.0000
  C   C56       1.0  0.0392052861549955  0.5013105931896504  0.46138437558984446  1.0000
  C   C57       1.0  0.42312273120269567  0.5000097298745912  0.07690257643124447  1.0000
  C   C58       1.0  0.9847694203172779  0.02478206790169689  0.4452120312230575  1.0000
  C   C59       1.0  0.015230910552965103  0.9752186094549627  0.5547884173115136  1.0000
  C   C60       1.0  0.01043603750267834  0.9752729246594424  0.4678737528721442  1.0000
  C   C61       1.0  0.9895639032744938  0.024727362466585343  0.532127086093382  1.0000
  C   C62       1.0  0.889593648648649  0.7789173801663268  0.6104280596132198  1.0000
  C   C63       1.0  0.110406721587168  0.221082859683719  0.3895708654060499  1.0000
  C   C64       1.0  0.6502596261478643  0.30076384861022387  0.8495142793571232  1.0000
  C   C65       1.0  0.34974080985593736  0.6992369346003356  0.1504847116524175  1.0000
  C   C66       1.0  0.9376689658999238  0.9753833354261444  0.5152414406260206  1.0000
  C   C67       1.0  0.9220775660731132  0.4988169001063766  0.5776123898628286  1.0000
  C   C68       1.0  0.06233119989476412  0.024617176569009303  0.4847596238938792  1.0000
  C   C69       1.0  0.9615303857218435  0.9240288660219492  0.5376537921428052  1.0000
  C   C70       1.0  0.038469945148392304  0.07597181133471749  0.46234665639176603  1.0000
  C   C71       1.0  0.922928052569297  0.8460569933027741  0.5766024404628709  1.0000
  C   C72       1.0  0.07707198751543116  0.15394291582424557  0.4233977165270559  1.0000
  C   C73       1.0  0.6500888866268963  0.5000121872135638  0.8498361740144275  1.0000
  C   C74       1.0  0.3499115435509025  0.4999881121440878  0.15016359254454412  1.0000
  C   C75       1.0  0.8494247155720345  0.5001451638487424  0.6505032524314059  1.0000
  C   C76       1.0  0.15057571460576452  0.49985513550891614  0.3494965141275657  1.0000
  C   C77       1.0  0.9870910371752684  0.4326638958004879  0.5295661752624881  1.0000
  C   C78       1.0  0.07792172153903444  0.5011808233469423  0.4223885755725619  1.0000
  C   C79       1.0  0.012908568935955538  0.5673331906700341  0.4704351093011141  1.0000
  C   C80       1.0  0.01260289473865564  0.48073811154518603  0.556895884049915  1.0000
  C   C81       1.0  0.9873969305640882  0.5192587159415467  0.4431064016174845  1.0000
  C   C82       1.0  0.8892181700791041  0.4996901826817107  0.6109661120901322  1.0000
  C   C83       1.0  0.11078173846964734  0.5003086397242669  0.38903391291925254  1.0000
  C   C84       1.0  0.024701647643539073  0.45984881892835716  0.6158586054025577  1.0000
  C   C85       1.0  0.9752986393462706  0.5401494260024364  0.3841425802747338  1.0000
  C   C86       1.0  0.5603632516258941  0.5299286985379582  0.3881333896208757  1.0000
  C   C87       1.0  0.4396377878364888  0.47007173206654335  0.6118669876109522  1.0000
  C   C88       1.0  0.9695253608336003  0.05134611473695149  0.38807713587228676  1.0000
  C   C89       1.0  0.03711432726390699  0.4813690278648008  0.9874587567398762  1.0000
  C   C90       1.0  0.030474904268650682  0.9486540192591874  0.6119232466720134  1.0000
  N   N1        1.0  0.03413005066150963  0.4419155718533998  0.6645949598355472  1.0000
  N   N2        1.0  0.9658703678642695  0.5580837597984285  0.33540635782228617  1.0000
  N   N3        1.0  0.5851546092939014  0.5423878448351614  0.34117511217633734  1.0000
  N   N4        1.0  0.41484995575649425  0.4576161110063594  0.6588248917813287  1.0000
  N   N5        1.0  0.9571427461019439  0.07337652426105726  0.34111219499853007  1.0000
  N   N6        1.0  0.042857128907236385  0.9266232195044495  0.6588885779767182  1.0000
  O   O1        1.0  0.7501358750492173  0.5003077512585962  0.7496228657235375  1.0000
  O   O2        1.0  0.2105798417047423  0.5446537604817934  0.1213818160673696  1.0000
  O   O3        1.0  0.6660011700210828  0.45560853955196723  0.6655311650945424  1.0000
  O   O4        1.0  0.3339990950811681  0.5443915944441713  0.334469217449758  1.0000
  O   O5        1.0  0.8790602087318573  0.5446869421260203  0.7895018491796646  1.0000
  O   O6        1.0  0.1209406115390052  0.455313747462263  0.21049752694835183  1.0000
  O   O7        1.0  0.7896088142931246  0.6684750353933423  0.6655892685875601  1.0000
  O   O8        1.0  0.21039242378437  0.3315246392131357  0.33440974469306883  1.0000
  O   O9        1.0  0.6659212125009049  0.3321656989591448  0.8783086616121734  1.0000
  O   O10       1.0  0.33407899265936436  0.6678343755293881  0.12169087939242476  1.0000
  O   O11       1.0  0.6659263834481303  0.5451129551465995  0.7893634249890484  1.0000
  O   O12       1.0  0.24986510447118349  0.4996926198382923  0.2503766699685884  1.0000
  O   O13       1.0  0.33407427174719106  0.45488756908017786  0.21063656712429688  1.0000
  O   O14       1.0  0.7893768011543825  0.45549440238854555  0.6656972110714818  1.0000
  O   O15       1.0  0.21062363484941912  0.5445063808220211  0.33430177993805893  1.0000
  O   O16       1.0  0.6656975853776641  0.45525755692627706  0.8785436825347546  1.0000
  O   O17       1.0  0.33430261978260484  0.5447425175622556  0.12145585846984365  1.0000
  O   O18       1.0  0.8786680952525783  0.5450147155390326  0.6656054433377533  1.0000
  O   O19       1.0  0.12133288426782218  0.4549856555578558  0.3343940923543656  1.0000
  O   O20       1.0  0.8788788310836819  0.6683136873713168  0.6654998478757007  1.0000
  O   O21       1.0  0.12112402730807033  0.3316876076653016  0.33449844522080957  1.0000
  O   O22       1.0  0.6659272770636164  0.3317124395779629  0.7891256825911694  1.0000
  O   O23       1.0  0.3340735432072463  0.6682882500103274  0.2108736935368469  1.0000
  O   O24       1.0  0.666336996215918  0.5450921833420426  0.6655580348426895  1.0000
  O   O25       1.0  0.33366326888633313  0.4549079506541035  0.33444234770161063  1.0000
  O   O26       1.0  0.7894205227050645  0.45534599551534416  0.878617884501331  1.0000
  F   F1        1.0  0.9744326825266895  0.36471890286421177  0.5594749657435044  1.0000
  F   F2        1.0  0.025566929410544503  0.6352786674592182  0.44052554327066673  1.0000
  F   F3        1.0  0.38801231679848724  0.9496110276283146  0.9778942447559515  1.0000
  F   F4        1.0  0.6119878225937966  0.050388503499697014  0.022105230258375665  1.0000
