data_image0
_chemical_formula_structural       Cd2H16C20N16
_chemical_formula_sum              "Cd2 H16 C20 N16"
_cell_length_a       6.653283085701374
_cell_length_b       9.519571314934435
_cell_length_c       9.519600563568137
_cell_angle_alpha    101.1225930989828
_cell_angle_beta     91.04365125663949
_cell_angle_gamma    91.04347547035846

_space_group_name_H-M_alt    "P 1"
_space_group_IT_number       1

loop_
  _space_group_symop_operation_xyz
  'x, y, z'

loop_
  _atom_site_type_symbol
  _atom_site_label
  _atom_site_symmetry_multiplicity
  _atom_site_fract_x
  _atom_site_fract_y
  _atom_site_fract_z
  _atom_site_occupancy
  Cd  Cd1       1.0  0.7499991341748355  0.5644774657465066  0.43552118272928203  1.0000
  Cd  Cd2       1.0  0.24999979209460577  0.4355222779871823  0.5644773155142814  1.0000
  H   H1        1.0  0.889105047370634  0.9616761370967097  0.11200658038492148  1.0000
  H   H2        1.0  0.6108970561910068  0.887992273727413  0.038322067270414144  1.0000
  H   H3        1.0  0.11089835847403147  0.038322547841211516  0.8879928271706133  1.0000
  H   H4        1.0  0.38910190372779846  0.11200855001963111  0.9616776811317748  1.0000
  H   H5        1.0  0.1396990106742706  0.7714367304819663  0.5239010199682994  1.0000
  H   H6        1.0  0.36029824772692354  0.47610064287672316  0.2285633603321031  1.0000
  H   H7        1.0  0.860294072334902  0.2285684188143335  0.47610470792780996  1.0000
  H   H8        1.0  0.6397036851313872  0.5238991027162144  0.7714351745935986  1.0000
  H   H9        1.0  0.34485548259080895  0.9623696217222107  0.4389799818483056  1.0000
  H   H10       1.0  0.15514394112309296  0.5610205290591068  0.037628071867914094  1.0000
  H   H11       1.0  0.6551419790454958  0.0376312287382632  0.561022904883913  1.0000
  H   H12       1.0  0.8448593974228444  0.4389759958521111  0.962368835370377  1.0000
  H   H13       1.0  0.21199428289585137  0.05892546510336423  0.22819294540211393  1.0000
  H   H14       1.0  0.2880073009449617  0.7718064850539507  0.941072049885193  1.0000
  H   H15       1.0  0.7880076533037509  0.9410742989182813  0.7718076939709848  1.0000
  H   H16       1.0  0.7119930966401923  0.22819218881036823  0.058926268764516  1.0000
  C   C1        1.0  0.845569412790553  0.8120101056678452  0.25432367226320457  1.0000
  C   C2        1.0  0.6544311579800137  0.7456747325781594  0.187987745947062  1.0000
  C   C3        1.0  0.15442954879889467  0.18799072729354552  0.7456771283626795  1.0000
  C   C4        1.0  0.34556930523321927  0.25432609209850204  0.812012020796196  1.0000
  C   C5        1.0  0.9482690335411234  0.9208320274779356  0.20292531467445238  1.0000
  C   C6        1.0  0.5517334992013688  0.7970741365279965  0.07916614248372164  1.0000
  C   C7        1.0  0.051731431342759  0.0791688064130867  0.7970755042925006  1.0000
  C   C8        1.0  0.44826843365693486  0.2029256090649483  0.92083239244198  1.0000
  C   C9        1.0  0.0922276896476433  0.8160472293564568  0.431947511730364  1.0000
  C   C10       1.0  0.40777263471230196  0.5680520619562088  0.18395110098747844  1.0000
  C   C11       1.0  0.9077698376167475  0.18395577191635942  0.5680568230954038  1.0000
  C   C12       1.0  0.5922292644966376  0.4319466036233808  0.8160461837795979  1.0000
  C   C13       1.0  0.20375810723000143  0.9223625123029678  0.38494907515421073  1.0000
  C   C14       1.0  0.29624270645131645  0.6150515705703654  0.07763461433928853  1.0000
  C   C15       1.0  0.7962393863850251  0.07763940895650023  0.6150540095129315  1.0000
  C   C16       1.0  0.703762165697121  0.38494601685512453  0.9223614569513005  1.0000
  C   C17       1.0  0.1292529980924328  0.9757067366090485  0.26840092556303574  1.0000
  C   C18       1.0  0.37074976367820495  0.7315990519601172  0.024290069311199074  1.0000
  C   C19       1.0  0.8707474381540335  0.02429304491167981  0.7316017999163904  1.0000
  C   C20       1.0  0.6292551421196038  0.26839961547872093  0.9757072521380082  1.0000
  N   N1        1.0  0.04440857538346419  0.34313748436041897  0.24321881127850284  1.0000
  N   N2        1.0  0.45559146916250626  0.7567802806413441  0.6568627836656445  1.0000
  N   N3        1.0  0.9555932851641699  0.6568600735627683  0.7567740666588492  1.0000
  N   N4        1.0  0.5444060227818781  0.24322163140377742  0.3431392487777956  1.0000
  N   N5        1.0  0.9186929704790571  0.7623336636945339  0.3682521094392754  1.0000
  N   N6        1.0  0.5813061499625221  0.631747089069684  0.23766497323766345  1.0000
  N   N7        1.0  0.0813045551146914  0.2376693283639356  0.6317511731627904  1.0000
  N   N8        1.0  0.41869581654514587  0.3682537365366089  0.7623348118466566  1.0000
  N   N9        1.0  0.0165375047925806  0.40963034545579563  0.3623119317596633  1.0000
  N   N10       1.0  0.4834627180294432  0.6376889380423664  0.5903702501284869  1.0000
  N   N11       1.0  0.9834630610393943  0.5903737284752708  0.6376926376831591  1.0000
  N   N12       1.0  0.5165361476238602  0.36230868252204124  0.40962995669263347  1.0000
  N   N13       1.0  0.07439567503360678  0.2789756263517377  0.1283295025379161  1.0000
  N   N14       1.0  0.42560392616415743  0.8716712331850047  0.7210263388721716  1.0000
  N   N15       1.0  0.9256003825857136  0.7210284540048095  0.871676064105408  1.0000
  N   N16       1.0  0.5743949058397746  0.12832530736605466  0.2789726177903233  1.0000
