data_image0
_chemical_formula_structural       Ho2H32C30O22
_chemical_formula_sum              "Ho2 H32 C30 O22"
_cell_length_a       8.049244641179897
_cell_length_b       9.304445176385784
_cell_length_c       12.742581461840917
_cell_angle_alpha    104.59126719673358
_cell_angle_beta     94.9511339950378
_cell_angle_gamma    110.06904219896522

_space_group_name_H-M_alt    "P 1"
_space_group_IT_number       1

loop_
  _space_group_symop_operation_xyz
  'x, y, z'

loop_
  _atom_site_type_symbol
  _atom_site_label
  _atom_site_symmetry_multiplicity
  _atom_site_fract_x
  _atom_site_fract_y
  _atom_site_fract_z
  _atom_site_occupancy
  Ho  Ho1       1.0  0.3651870902189743  0.7780662658694624  0.9879097686329882  1.0000
  Ho  Ho2       1.0  0.6348059473623522  0.2219250408296958  0.012086034899681403  1.0000
  H   H1        1.0  0.4931989248800193  0.4683698471392005  0.19657665358542428  1.0000
  H   H2        1.0  0.5067917928447159  0.5316155362984033  0.8034234609923628  1.0000
  H   H3        1.0  0.6434406262729127  0.6629969680441336  0.27974578916018084  1.0000
  H   H4        1.0  0.3565585208372468  0.33700045891851  0.7202506640019803  1.0000
  H   H5        1.0  0.25357662952404786  0.6029433181556385  0.4946961894490299  1.0000
  H   H6        1.0  0.7464382995426393  0.3970725319682486  0.5053138499756216  1.0000
  H   H7        1.0  0.6558946412403656  0.46404127638851367  0.3409078414186623  1.0000
  H   H8        1.0  0.3441157882747917  0.5359661053956515  0.659098085147974  1.0000
  H   H9        1.0  0.5395410508077276  0.009532715251339093  0.3056228657113848  1.0000
  H   H10       1.0  0.4604650012601115  0.9904697496918687  0.6943795844351541  1.0000
  H   H11       1.0  0.7168816900250832  0.9412507493161468  0.2748464146878716  1.0000
  H   H12       1.0  0.2831151166068437  0.05872769634014219  0.7251481099710586  1.0000
  H   H13       1.0  0.5925032285754241  0.8851379289971675  0.4279371494348893  1.0000
  H   H14       1.0  0.4074949301403876  0.11489275333548928  0.5720792676628716  1.0000
  H   H15       1.0  0.6578123910550815  0.807724219605582  0.5898456595845616  1.0000
  H   H16       1.0  0.3421421352911124  0.19228716580623476  0.41016483988936864  1.0000
  H   H17       1.0  0.034715100645868815  0.3420305669783729  0.5639997204306083  1.0000
  H   H18       1.0  0.9653151157697905  0.6579630477864169  0.4359829241879608  1.0000
  H   H19       1.0  0.09084834885656083  0.2685962808250438  0.7353654797416025  1.0000
  H   H20       1.0  0.9091779419740079  0.7313937179743417  0.26462179294210836  1.0000
  H   H21       1.0  0.7491894060490765  0.7614275480723265  0.7174538451197987  1.0000
  H   H22       1.0  0.2508083652925848  0.23856616996905433  0.2825332390770966  1.0000
  H   H23       1.0  0.93006591789576  0.8112319512266093  0.8254461705107798  1.0000
  H   H24       1.0  0.06994508939481392  0.1887669904015752  0.17454416673172085  1.0000
  H   H25       1.0  0.31827262334577705  0.4326325055052961  0.9192589477112205  1.0000
  H   H26       1.0  0.6817242007211917  0.5673590287808563  0.08074417615244299  1.0000
  H   H27       1.0  0.13402220605589577  0.44660023002299437  0.9437659989537293  1.0000
  H   H28       1.0  0.8659720883763027  0.5533912035136053  0.05623617744991084  1.0000
  H   H29       1.0  0.9536551967549585  0.6350993077542879  0.907132740439138  1.0000
  H   H30       1.0  0.0463344892077302  0.36489323535378293  0.09287643208180899  1.0000
  H   H31       1.0  0.037287866470300864  0.7763481693443237  0.021694556401463682  1.0000
  H   H32       1.0  0.9627110162495995  0.22364234832621577  0.9783155683752935  1.0000
  C   C1        1.0  0.45101506269195824  0.6607452348076777  0.15452743753377968  1.0000
  C   C2        1.0  0.5489862694241552  0.33925468625802313  0.8454735067708724  1.0000
  C   C3        1.0  0.5015010312529641  0.5898468269627698  0.24002113030172006  1.0000
  C   C4        1.0  0.49849964284917553  0.4101708369045126  0.7599852753949531  1.0000
  C   C5        1.0  0.44715669923713364  0.5391849515835075  0.4070374663169359  1.0000
  C   C6        1.0  0.5528564834995819  0.4608165759029318  0.5929644410372104  1.0000
  C   C7        1.0  0.36005121760682374  0.5561206201329798  0.4967765059017778  1.0000
  C   C8        1.0  0.639960349841587  0.44388330640480683  0.5032327974415267  1.0000
  C   C9        1.0  0.5872904373161135  0.4818895870516045  0.4101010612883228  1.0000
  C   C10       1.0  0.41272020728822423  0.518111921245449  0.5899061910228197  1.0000
  C   C11       1.0  0.6905296195986494  0.10774176244066778  0.19459265227646227  1.0000
  C   C12       1.0  0.3094640955561019  0.892244869696725  0.8054047159646628  1.0000
  C   C13       1.0  0.6814722507854823  0.04829897141168259  0.29472313513554127  1.0000
  C   C14       1.0  0.31852737411956156  0.9517127634962035  0.705283729299559  1.0000
  C   C15       1.0  0.8161646030389421  0.11642681509693627  0.4823752665958806  1.0000
  C   C16       1.0  0.18383432260882424  0.8835765465229386  0.5176245801345373  1.0000
  C   C17       1.0  0.7069652479317767  0.9690008511838286  0.4922844620367569  1.0000
  C   C18       1.0  0.2930254080516476  0.031006913334216797  0.5077133372615137  1.0000
  C   C19       1.0  0.7429974642293189  0.9256533812609574  0.5869789828254992  1.0000
  C   C20       1.0  0.257000100960596  0.07435938045756528  0.4130216672486354  1.0000
  C   C21       1.0  0.9532006350051958  0.22545275564979758  0.5710249465216534  1.0000
  C   C22       1.0  0.046814198512294104  0.7745592880997875  0.4289647926618868  1.0000
  C   C23       1.0  0.986688767281933  0.18343726788124576  0.6653131336995058  1.0000
  C   C24       1.0  0.013319255325043907  0.8165603027068966  0.33467051125412434  1.0000
  C   C25       1.0  0.7271195635671005  0.9014775854941631  0.8750218245772101  1.0000
  C   C26       1.0  0.272872207603534  0.09851368612275022  0.12497468505362966  1.0000
  C   C27       1.0  0.8384557321976801  0.8587135259788281  0.7898208470356136  1.0000
  C   C28       1.0  0.1615178971023852  0.1412888281455054  0.21016952509455675  1.0000
  C   C29       1.0  0.8869263839493015  0.030582317653767187  0.6719935086954223  1.0000
  C   C30       1.0  0.11308106194445615  0.9694236828953321  0.32800493903021527  1.0000
  O   O1        1.0  0.31782855071791966  0.7032748733990885  0.15147335660630284  1.0000
  O   O2        1.0  0.6821737095532683  0.2967274149322279  0.8485257059698765  1.0000
  O   O3        1.0  0.5529145533531191  0.6745825071855691  0.08193761990434473  1.0000
  O   O4        1.0  0.44708665453436675  0.32541388277141436  0.9180642610666537  1.0000
  O   O5        1.0  0.3893905444296167  0.5842625154322786  0.3199269391582503  1.0000
  O   O6        1.0  0.610619420476901  0.41574368781658677  0.6800803215486865  1.0000
  O   O7        1.0  0.5886083823321329  0.005191976160688206  0.1038912191808734  1.0000
  O   O8        1.0  0.4113836049898937  0.994793411774097  0.8961058296423514  1.0000
  O   O9        1.0  0.7850064698830578  0.24832469575085264  0.19603036998667275  1.0000
  O   O10       1.0  0.21497702737443794  0.751671019544318  0.803967238420533  1.0000
  O   O11       1.0  0.7995245424549396  0.16667873140014683  0.39006862222747424  1.0000
  O   O12       1.0  0.20048231991255963  0.8333225085298251  0.6099281635441683  1.0000
  O   O13       1.0  0.24120875215977125  0.4967519156341567  0.9135585221572098  1.0000
  O   O14       1.0  0.7587860079432716  0.5032406862427193  0.0864415335539945  1.0000
  O   O15       1.0  0.017910159436347377  0.6632260137997578  0.9824140731307975  1.0000
  O   O16       1.0  0.9820734180597056  0.33676039884980447  0.017593663208529595  1.0000
  O   O17       1.0  0.7740930823131363  0.04868718636923568  0.9288119111881056  1.0000
  O   O18       1.0  0.22590847976297818  0.9513067184790527  0.07117934713126314  1.0000
  O   O19       1.0  0.5963836824911226  0.7867034784676434  0.8871674380753587  1.0000
  O   O20       1.0  0.4036268378845946  0.21329449872069964  0.11284075090212298  1.0000
  O   O21       1.0  0.9496134454158278  0.9946100280137667  0.7631462529160514  1.0000
  O   O22       1.0  0.050373625362524904  0.005391767965463098  0.23685577697338533  1.0000
