data_image0
_chemical_formula_structural       Mg6H54C96O18
_chemical_formula_sum              "Mg6 H54 C96 O18"
_cell_length_a       6.908301329258385
_cell_length_b       34.38696403487068
_cell_length_c       34.38962390296011
_cell_angle_alpha    119.55108833241272
_cell_angle_beta     93.8353328226952
_cell_angle_gamma    93.84657646183975

_space_group_name_H-M_alt    "P 1"
_space_group_IT_number       1

loop_
  _space_group_symop_operation_xyz
  'x, y, z'

loop_
  _atom_site_type_symbol
  _atom_site_label
  _atom_site_symmetry_multiplicity
  _atom_site_fract_x
  _atom_site_fract_y
  _atom_site_fract_z
  _atom_site_occupancy
  Mg  Mg1       1.0  0.2458992200428868  0.66980313530528  0.30462934620362603  1.0000
  Mg  Mg2       1.0  0.5762042884735622  0.6348083368612479  0.3301388163311856  1.0000
  Mg  Mg3       1.0  0.9412578398068377  0.6953108522355079  0.36512997205585423  1.0000
  Mg  Mg4       1.0  0.7541001307764645  0.330197264889506  0.6953709487009975  1.0000
  Mg  Mg5       1.0  0.42379489459895586  0.36519172681772016  0.6698610195579279  1.0000
  Mg  Mg6       1.0  0.058741342680093574  0.3046892114207936  0.6348701545995753  1.0000
  H   H1        1.0  0.281285650866927  0.1787336093680381  0.5780815777510853  1.0000
  H   H2        1.0  0.5250475679527754  0.0703061511902874  0.537759432001387  1.0000
  H   H3        1.0  0.1486534347263344  0.1146982410745352  0.5642495892329222  1.0000
  H   H4        1.0  0.3836206423477081  0.04985537206327711  0.4701815261323504  1.0000
  H   H5        1.0  0.42370430970269984  0.9936475944844219  0.39263890188114214  1.0000
  H   H6        1.0  0.2013637174909988  0.9211803644066876  0.3524243959021193  1.0000
  H   H7        1.0  0.9429016781247269  0.9065123398023616  0.39075099980255606  1.0000
  H   H8        1.0  0.0023690144817935153  0.803230278604609  0.3825918893745951  1.0000
  H   H9        1.0  0.18495787055736915  0.8800965504684444  0.42580356570204725  1.0000
  H   H10       1.0  0.10262423111583269  0.3993381890150474  0.8213452945555347  1.0000
  H   H11       1.0  0.45473012480328384  0.46752533624643894  0.9297698001421042  1.0000
  H   H12       1.0  0.03407766989722204  0.4495820143528064  0.8853017095339484  1.0000
  H   H13       1.0  0.3340790987144899  0.4204071282583186  0.9502391089572271  1.0000
  H   H14       1.0  0.4303132620836579  0.39910141351041534  0.006452930391034873  1.0000
  H   H15       1.0  0.28025372923316644  0.43129451625354426  0.07887574178275264  1.0000
  H   H16       1.0  0.03644654572597255  0.48427370612802173  0.09350500765096828  1.0000
  H   H17       1.0  0.1991398679129973  0.579375739973358  0.1967291376629064  1.0000
  H   H18       1.0  0.30469664980358163  0.5456912383293756  0.11988318220075915  1.0000
  H   H19       1.0  0.7031383400755403  0.42193441591091835  0.6006365071165902  1.0000
  H   H20       1.0  0.987271886364596  0.4622551274780378  0.5325200449074501  1.0000
  H   H21       1.0  0.5844252329371359  0.4357658427957105  0.550462780754721  1.0000
  H   H22       1.0  0.9134238018368351  0.5298591049019663  0.5796402332066323  1.0000
  H   H23       1.0  0.03087657414496896  0.6074365350093274  0.601012933059785  1.0000
  H   H24       1.0  0.848550289714325  0.6476536586208043  0.5687902295868312  1.0000
  H   H25       1.0  0.5519184967645857  0.6092710170726291  0.5157579526179035  1.0000
  H   H26       1.0  0.6198964417362305  0.617383298170637  0.4206465206069368  1.0000
  H   H27       1.0  0.7592430853135922  0.5742200448472304  0.45435089689403463  1.0000
  H   H28       1.0  0.7187160965354522  0.8212657812403137  0.42191825163877195  1.0000
  H   H29       1.0  0.47495289699188015  0.9296935759420394  0.46224054602125636  1.0000
  H   H30       1.0  0.8513473668831678  0.8853021591347527  0.4357507252881092  1.0000
  H   H31       1.0  0.6163785407248099  0.9501446916156909  0.529818309756763  1.0000
  H   H32       1.0  0.5762948727842316  0.006352469171879698  0.6073612247742801  1.0000
  H   H33       1.0  0.7986340142057813  0.0788196992351189  0.647575711136902  1.0000
  H   H34       1.0  0.057099122899188594  0.09348806038425289  0.6092496054847913  1.0000
  H   H35       1.0  0.9976321232069695  0.196770794658967  0.6174090524111477  1.0000
  H   H36       1.0  0.81504745116942  0.11990418630016114  0.5741972666837327  1.0000
  H   H37       1.0  0.8973747830386714  0.600661538102777  0.17865466385070042  1.0000
  H   H38       1.0  0.5452677746403296  0.5324750639111713  0.07023076591242024  1.0000
  H   H39       1.0  0.9659213442572823  0.5504177127650183  0.11469824887228008  1.0000
  H   H40       1.0  0.6659200849436149  0.5795929354433228  0.04976043616557053  1.0000
  H   H41       1.0  0.5696889909015824  0.6008989867360413  0.9935471129800959  1.0000
  H   H42       1.0  0.7197483536628865  0.5687055473864293  0.9211250056381177  1.0000
  H   H43       1.0  0.9635539198042693  0.5157260210269713  0.906494679605359  1.0000
  H   H44       1.0  0.8008594823207603  0.42062466019876155  0.8032714480080259  1.0000
  H   H45       1.0  0.6953012502256256  0.454309161850901  0.8801170930874564  1.0000
  H   H46       1.0  0.296862124869108  0.5780653112214155  0.3993634709060531  1.0000
  H   H47       1.0  0.012734886737924011  0.5377456093277431  0.4674805163284221  1.0000
  H   H48       1.0  0.4155794183878996  0.564233547932311  0.4495359248026959  1.0000
  H   H49       1.0  0.0865753812356829  0.4701409587770087  0.42035960268248124  1.0000
  H   H50       1.0  0.9691227766743894  0.39256386518545844  0.3989873618448386  1.0000
  H   H51       1.0  0.1514488927725993  0.3523464050354975  0.4312098970685911  1.0000
  H   H52       1.0  0.44808068572234566  0.3907290465836724  0.4842421740375259  1.0000
  H   H53       1.0  0.3801038548759977  0.3826160924232127  0.5793532891665053  1.0000
  H   H54       1.0  0.2407573790454762  0.42577968226243  0.5456493718949176  1.0000
  C   C1        1.0  0.743721730649604  0.2312341729051326  0.6244281952002666  1.0000
  C   C2        1.0  0.5367702455946813  0.225148374346233  0.6119708972544089  1.0000
  C   C3        1.0  0.43774131231781876  0.18148927787351  0.5873186799368781  1.0000
  C   C4        1.0  0.5325368873052342  0.14296615731088017  0.5742801655313343  1.0000
  C   C5        1.0  0.431214446557469  0.09737344951319221  0.5510109053550282  1.0000
  C   C6        1.0  0.2360509096085437  0.0868312021413331  0.547030487857441  1.0000
  C   C7        1.0  0.1245080880642746  0.0421868277175435  0.5231303209968203  1.0000
  C   C8        1.0  0.9765283374383741  0.0322777741931901  0.5448672593848016  1.0000
  C   C9        1.0  0.8498153630020583  0.9902811153782736  0.5217929319503655  1.0000
  C   C10       1.0  0.2919203235385909  0.017762926414434298  0.4537977904629288  1.0000
  C   C11       1.0  0.31310011812256994  0.9864778454143988  0.4101386065537014  1.0000
  C   C12       1.0  0.1875116542587847  0.9455342630500496  0.3873948273779106  1.0000
  C   C13       1.0  0.045103037790887805  0.9370593631239784  0.4091629998839821  1.0000
  C   C14       1.0  0.16034679594402948  0.8078589282571402  0.3909939654475993  1.0000
  C   C15       1.0  0.26245695260367796  0.8504619986019365  0.4152243033757659  1.0000
  C   C16       1.0  0.5791910401076024  0.736877912799919  0.37677426552515686  1.0000
  C   C17       1.0  0.5125234871873589  0.39316506706811094  0.7688126192956021  1.0000
  C   C18       1.0  0.31167214681158845  0.3867894656624955  0.7749240147306011  1.0000
  C   C19       1.0  0.2563425113727932  0.40581632863795397  0.8185922010334822  1.0000
  C   C20       1.0  0.3896247665984661  0.43133772180053853  0.8571059066061794  1.0000
  C   C21       1.0  0.3338955742910628  0.4536797823431868  0.902691267563455  1.0000
  C   C22       1.0  0.14921427230120807  0.4602366141113877  0.9131910115822282  1.0000
  C   C23       1.0  0.08231991397890677  0.4809631872179451  0.9578185580262756  1.0000
  C   C24       1.0  0.9439276425863383  0.512508668416956  0.9676817502321315  1.0000
  C   C25       1.0  0.8591849028716825  0.5314170634368764  0.009663384408078493  1.0000
  C   C26       1.0  0.2745400506902556  0.4361507945149299  0.982332567452673  1.0000
  C   C27       1.0  0.3270684767503483  0.42381121292304874  0.013641570775334346  1.0000
  C   C28       1.0  0.2424077474105815  0.4419938985884713  0.05456994430718254  1.0000
  C   C29       1.0  0.1083794641996718  0.47220887770693304  0.0630054886267573  1.0000
  C   C30       1.0  0.3524772590916072  0.5831498445595785  0.19209936754122495  1.0000
  C   C31       1.0  0.41195575845140536  0.5647485905508133  0.14949397181769092  1.0000
  C   C32       1.0  0.8423846396741157  0.6398926876566763  0.2630321637610039  1.0000
  C   C33       1.0  0.11916267925582955  0.37559569006625537  0.6068098776944311  1.0000
  C   C34       1.0  0.9246615411126698  0.38803624365827727  0.6131520913070363  1.0000
  C   C35       1.0  0.8503308655214853  0.41268176828593534  0.594131943740031  1.0000
  C   C36       1.0  0.9581542127509763  0.42571177696955687  0.5686385182821851  1.0000
  C   C37       1.0  0.8802079040914634  0.4490066063342439  0.5463424182025137  1.0000
  C   C38       1.0  0.6889869430897378  0.452996481951331  0.539813593794193  1.0000
  C   C39       1.0  0.6013834767814926  0.47688408465577237  0.5190646105656642  1.0000
  C   C40       1.0  0.4316411810307059  0.45513110821180913  0.48744618383331334  1.0000
  C   C41       1.0  0.3279628944778281  0.47819855567246355  0.46852531223069604  1.0000
  C   C42       1.0  0.8381044189510405  0.5462457659472619  0.563941084979902  1.0000
  C   C43       1.0  0.902838680475263  0.5899199111132917  0.5763263574000561  1.0000
  C   C44       1.0  0.799903249936058  0.6126632120395001  0.5581413962683826  1.0000
  C   C45       1.0  0.6357829562779428  0.590860719114275  0.5278804547175042  1.0000
  C   C46       1.0  0.7695188204099496  0.6090065019741716  0.4168926160616311  1.0000
  C   C47       1.0  0.8473875712218161  0.5848063192636986  0.43530291922679254  1.0000
  C   C48       1.0  0.20266863500240362  0.6232026854586222  0.3601300910490225  1.0000
  C   C49       1.0  0.25627762075533406  0.7687662273123123  0.3755718089380481  1.0000
  C   C50       1.0  0.4632305571859944  0.7748520259083873  0.38802883573399777  1.0000
  C   C51       1.0  0.5622593209592567  0.8185107857972935  0.41268146633495933  1.0000
  C   C52       1.0  0.46746502784397853  0.8570335698132894  0.4257201228740328  1.0000
  C   C53       1.0  0.5687890877143219  0.9026266141639497  0.44898957091594155  1.0000
  C   C54       1.0  0.7639498920009585  0.913169198067955  0.4529698266635906  1.0000
  C   C55       1.0  0.8754927135452277  0.9578135724917375  0.47686999352421133  1.0000
  C   C56       1.0  0.023472463585534245  0.9677226259934244  0.4551333459025457  1.0000
  C   C57       1.0  0.15018543860744427  0.0097192848310144  0.47820738257066625  1.0000
  C   C58       1.0  0.7080786912015072  0.9822368007260565  0.5462018771769905  1.0000
  C   C59       1.0  0.6868976141597971  0.013522218250066899  0.5898612097190041  1.0000
  C   C60       1.0  0.812487527056966  0.0544658005609193  0.6126058808101434  1.0000
  C   C61       1.0  0.9548977638186145  0.0629410370853094  0.5908373146370567  1.0000
  C   C62       1.0  0.8396551203763637  0.1921407989123551  0.6090057414251362  1.0000
  C   C63       1.0  0.7375451314635484  0.14953806508336953  0.5847758625124797  1.0000
  C   C64       1.0  0.4208081429649154  0.263122150879056  0.6232255703639566  1.0000
  C   C65       1.0  0.48747697775729654  0.6068346600642159  0.23118735872704127  1.0000
  C   C66       1.0  0.6883268673429157  0.6132102614553291  0.22507594367563402  1.0000
  C   C67       1.0  0.7436566711141309  0.5941837350183549  0.1814079256219473  1.0000
  C   C68       1.0  0.6103729650983142  0.5686623418412607  0.14289420043284198  1.0000
  C   C69       1.0  0.6661048906535925  0.5463199447891398  0.09730871045918124  1.0000
  C   C70       1.0  0.850781840272994  0.5397631129774324  0.08680890759118393  1.0000
  C   C71       1.0  0.917677481638613  0.5190362033695662  0.0421809217480345  1.0000
  C   C72       1.0  0.05607248569346981  0.48749038563841657  0.0323178912921165  1.0000
  C   C73       1.0  0.14081121087370008  0.46858266369727625  0.990335953232702  1.0000
  C   C74       1.0  0.725460247093153  0.5638485961242594  0.01766666078814437  1.0000
  C   C75       1.0  0.6729307069077636  0.5761888507785928  0.9863579743474704  1.0000
  C   C76       1.0  0.7575925492016468  0.5580054920053785  0.9454298654662595  1.0000
  C   C77       1.0  0.891618099750275  0.5277908494190555  0.936994159396754  1.0000
  C   C78       1.0  0.6475219233953169  0.4168502190967232  0.8079007591141975  1.0000
  C   C79       1.0  0.5880434240355187  0.4352514731054883  0.8505061548377386  1.0000
  C   C80       1.0  0.15761599360295966  0.36010737601413473  0.7369679825108337  1.0000
  C   C81       1.0  0.8808377856888258  0.6244040370660713  0.3931901003282122  1.0000
  C   C82       1.0  0.07533764195985528  0.6119638200206907  0.3868477445820773  1.0000
  C   C83       1.0  0.14966960000875662  0.5873179588690575  0.4058677435162963  1.0000
  C   C84       1.0  0.041847871901843726  0.5742882867384154  0.43136135683974436  1.0000
  C   C85       1.0  0.11979887018223688  0.5509941305168625  0.45365756150072667  1.0000
  C   C86       1.0  0.31101224115396053  0.5470035817729766  0.4601856605622956  1.0000
  C   C87       1.0  0.3986197225822181  0.5231153060124142  0.48093465690796944  1.0000
  C   C88       1.0  0.5683621866654249  0.5448686189948545  0.5125532518895214  1.0000
  C   C89       1.0  0.6720404732183028  0.5218011715342075  0.5314741234921316  1.0000
  C   C90       1.0  0.16189766570177969  0.4537542977607174  0.43605879014202753  1.0000
  C   C91       1.0  0.09716195280181233  0.4100801525575192  0.4236737888717813  1.0000
  C   C92       1.0  0.20009593255086597  0.3873368516168015  0.4418587303870467  1.0000
  C   C93       1.0  0.36421750925229895  0.40913900804072517  0.47211923253882304  1.0000
  C   C94       1.0  0.23048164453470582  0.3909932251581552  0.5831073619610053  1.0000
  C   C95       1.0  0.15261451284541042  0.41519374442160756  0.5646972466614529  1.0000
  C   C96       1.0  0.7973305480701214  0.3767973782203455  0.639869744840091  1.0000
  O   O1        1.0  0.7591071958781798  0.7433973727930693  0.39165637868875086  1.0000
  O   O2        1.0  0.4928211111630816  0.6965064718021168  0.35086683394366264  1.0000
  O   O3        1.0  0.15063031730465334  0.7284062847461003  0.35053424809832023  1.0000
  O   O4        1.0  0.015779847027879143  0.648275256223478  0.25651156045173457  1.0000
  O   O5        1.0  0.7964694686160102  0.6542923527481647  0.3034042252626391  1.0000
  O   O6        1.0  0.4223156766953551  0.6221384222048626  0.2715517946145312  1.0000
  O   O7        1.0  0.36775124077386306  0.6083384114418137  0.3517947711175964  1.0000
  O   O8        1.0  0.14211303394614555  0.6490838202012696  0.34563570410509215  1.0000
  O   O9        1.0  0.8001783290811558  0.6494136894309648  0.37783570890951523  1.0000
  O   O10       1.0  0.24089070415102753  0.2566030273872144  0.6083438965994648  1.0000
  O   O11       1.0  0.5071780707382628  0.30349359183151847  0.6491335834780828  1.0000
  O   O12       1.0  0.8493688663534515  0.271593778955534  0.6494652970244845  1.0000
  O   O13       1.0  0.9842193354590522  0.35172480743283074  0.7434885662036947  1.0000
  O   O14       1.0  0.2035297132853273  0.34570771088547053  0.6965961921591062  1.0000
  O   O15       1.0  0.5776835052059823  0.37786164142877254  0.7284486228072071  1.0000
  O   O16       1.0  0.6322493925032121  0.3916616522289971  0.648205375154241  1.0000
  O   O17       1.0  0.8578875993309296  0.35091624346953415  0.6543644421667453  1.0000
  O   O18       1.0  0.19982213527790552  0.35058603767869573  0.6221645598794368  1.0000
