data_image0
_chemical_formula_structural       Zn4H16C12N12O12
_chemical_formula_sum              "Zn4 H16 C12 N12 O12"
_cell_length_a       7.68166909240397
_cell_length_b       8.58357950901448
_cell_length_c       9.998411864489029
_cell_angle_alpha    89.99993516141375
_cell_angle_beta     102.74631042086082
_cell_angle_gamma    89.99982290775777

_space_group_name_H-M_alt    "P 1"
_space_group_IT_number       1

loop_
  _space_group_symop_operation_xyz
  'x, y, z'

loop_
  _atom_site_type_symbol
  _atom_site_label
  _atom_site_symmetry_multiplicity
  _atom_site_fract_x
  _atom_site_fract_y
  _atom_site_fract_z
  _atom_site_occupancy
  Zn  Zn1       1.0  0.2101340447014337  0.5361885169759192  0.1378431672964666  1.0000
  Zn  Zn2       1.0  0.7898692798657195  0.03619105186226081  0.3621588717458338  1.0000
  Zn  Zn3       1.0  0.7898561387549137  0.46381883102232285  0.862154428912973  1.0000
  Zn  Zn4       1.0  0.21014250133769957  0.963816296099253  0.6378500122571467  1.0000
  H   H1        1.0  0.9216897172667161  0.8154859609895341  0.13732114673014453  1.0000
  H   H2        1.0  0.0783138491578939  0.3154822473510209  0.36268165094489296  1.0000
  H   H3        1.0  0.07831942634028621  0.18451789192971554  0.8626883366066807  1.0000
  H   H4        1.0  0.9216776996887219  0.6845239356294287  0.6373171533288869  1.0000
  H   H5        1.0  0.32467734424724165  0.6586487040815144  0.46406227549074697  1.0000
  H   H6        1.0  0.6753254876990268  0.1586485005521538  0.03593956649510234  1.0000
  H   H7        1.0  0.6753332579154047  0.3413574788631307  0.5359514313654543  1.0000
  H   H8        1.0  0.3246686366478144  0.8413518573509933  0.9640566281471052  1.0000
  H   H9        1.0  0.5045041363049662  0.48624031734413353  0.2995400930639107  1.0000
  H   H10       1.0  0.495493685396319  0.9862450863512677  0.20047066456272233  1.0000
  H   H11       1.0  0.4954863888210142  0.513748390403947  0.7004685598392797  1.0000
  H   H12       1.0  0.5045167304566648  0.0137436213708284  0.7995370113918554  1.0000
  H   H13       1.0  0.42808131002146144  0.3212602769655035  0.3288141706938603  1.0000
  H   H14       1.0  0.5719128307226242  0.8212683765278828  0.17118518699908952  1.0000
  H   H15       1.0  0.5719105183728176  0.6787307608116394  0.6711936799656257  1.0000
  H   H16       1.0  0.4280946369381838  0.17872732129546162  0.8288130367547665  1.0000
  C   C1        1.0  0.009150502573703497  0.8033360067558702  0.2380897819389887  1.0000
  C   C2        1.0  0.9908504440614507  0.3033346460312104  0.2619126294638576  1.0000
  C   C3        1.0  0.9908560965999057  0.19666901117943072  0.7619233161857792  1.0000
  C   C4        1.0  0.009139677282305999  0.6966715369533675  0.7380829564412892  1.0000
  C   C5        1.0  0.2124150577671244  0.7229845259201185  0.404795463955125  1.0000
  C   C6        1.0  0.7875861810403605  0.22298510481061842  0.09520607159234369  1.0000
  C   C7        1.0  0.7875940237155704  0.2770239870611205  0.5952120090727249  1.0000
  C   C8        1.0  0.21240400242301397  0.7770187481422327  0.9047915246199025  1.0000
  C   C9        1.0  0.5521611105757173  0.5731855151356059  0.03471935177657313  1.0000
  C   C10       1.0  0.4478457886508664  0.073180669582726  0.4652741900962384  1.0000
  C   C11       1.0  0.4477910594397229  0.42681251281099725  0.9652514547333623  1.0000
  C   C12       1.0  0.5522129115513296  0.9268115331094721  0.5347488318648672  1.0000
  N   N1        1.0  0.14798053092359706  0.7027693635335694  0.26868169885682386  1.0000
  N   N2        1.0  0.8520235510454555  0.20276608706413413  0.23132329050270078  1.0000
  N   N3        1.0  0.852027557877186  0.2972309943356067  0.7313366279455451  1.0000
  N   N4        1.0  0.14797454524233442  0.79723077578857  0.7686725077220729  1.0000
  N   N5        1.0  0.9896611776440879  0.8818811015134216  0.3487088501536278  1.0000
  N   N6        1.0  0.010339484073526303  0.38188368648662424  0.15129444000663742  1.0000
  N   N7        1.0  0.010354513366593196  0.11813207152016503  0.6512976271191988  1.0000
  N   N8        1.0  0.9896441519439918  0.6181318166242349  0.8487061622527393  1.0000
  N   N9        1.0  0.12045678299565311  0.8309314207083818  0.4561434360767294  1.0000
  N   N10       1.0  0.8795412907838839  0.33093648394277153  0.043855509635953596  1.0000
  N   N11       1.0  0.8795613903381677  0.1690782572803613  0.5438574161048066  1.0000
  N   N12       1.0  0.12043958340500892  0.6690766891438856  0.9561416713458826  1.0000
  O   O1        1.0  0.6825541322681657  0.6214302892320022  0.9891755715543269  1.0000
  O   O2        1.0  0.31742016022483455  0.1214147694261882  0.5108135034495547  1.0000
  O   O3        1.0  0.31739102444644374  0.3785758938382387  0.010783163716354212  1.0000
  O   O4        1.0  0.6826190529857143  0.8785832583580985  0.4892235624394488  1.0000
  O   O5        1.0  0.4963104403181973  0.6346785153744461  0.13374032655731583  1.0000
  O   O6        1.0  0.5036804790916632  0.1346724915894839  0.3662597278080995  1.0000
  O   O7        1.0  0.5036511321511626  0.36530669739075716  0.8662339106436932  1.0000
  O   O8        1.0  0.49636121646781106  0.8653092259835304  0.6337717129999235  1.0000
  O   O9        1.0  0.401036935399503  0.43551451642640165  0.32246853360735633  1.0000
  O   O10       1.0  0.5989581111237712  0.9355190397042819  0.17753184829793872  1.0000
  O   O11       1.0  0.5989477554875081  0.5644730263260057  0.6775232252117861  1.0000
  O   O12       1.0  0.40105367011479837  0.06447083303028481  0.8224770357191035  1.0000
