data_image0
_chemical_formula_structural       Zn2H18C32N2O10
_chemical_formula_sum              "Zn2 H18 C32 N2 O10"
_cell_length_a       8.988997817271205
_cell_length_b       16.504140603149672
_cell_length_c       17.9563575261621
_cell_angle_alpha    89.13211983726933
_cell_angle_beta     89.20319164705255
_cell_angle_gamma    79.96455214057201

_space_group_name_H-M_alt    "P 1"
_space_group_IT_number       1

loop_
  _space_group_symop_operation_xyz
  'x, y, z'

loop_
  _atom_site_type_symbol
  _atom_site_label
  _atom_site_symmetry_multiplicity
  _atom_site_fract_x
  _atom_site_fract_y
  _atom_site_fract_z
  _atom_site_occupancy
  Zn  Zn1       1.0  0.48841147745383046  0.5847928328703204  0.4986509108297952  1.0000
  Zn  Zn2       1.0  0.5116021132734189  0.4152080391999248  0.5013544985634084  1.0000
  H   H1        1.0  0.02732282121320401  0.40529988407084255  0.4970749277162269  1.0000
  H   H2        1.0  0.9726839930186771  0.594712778263151  0.502914256712522  1.0000
  H   H3        1.0  0.5009347751171518  0.6291000597222053  0.8765328432516453  1.0000
  H   H4        1.0  0.49952287849232135  0.37084631203763513  0.1234639825136625  1.0000
  H   H5        1.0  0.49915608111064097  0.6299769052260868  0.7368165316226507  1.0000
  H   H6        1.0  0.5013563645149474  0.36995386045929024  0.2631863312760458  1.0000
  H   H7        1.0  0.5000796039905921  0.36997210507602313  0.7395045943320468  1.0000
  H   H8        1.0  0.499886107118847  0.6300141610730848  0.2605078200801713  1.0000
  H   H9        1.0  0.6752232285138292  0.84850052434863  0.4157309795174696  1.0000
  H   H10       1.0  0.3248382081750449  0.15148975960980948  0.5842665289759807  1.0000
  H   H11       1.0  0.6622223282933389  0.6972306084709529  0.41899107716498196  1.0000
  H   H12       1.0  0.3378147333430307  0.30276282002364496  0.5810104022104241  1.0000
  H   H13       1.0  0.32918191454323414  0.7284505807939751  0.5821157780236844  1.0000
  H   H14       1.0  0.6708254517470705  0.2715639263460616  0.4178728312774069  1.0000
  H   H15       1.0  0.32661199131868557  0.8811499606294857  0.5868419751327778  1.0000
  H   H16       1.0  0.6734229025802563  0.11886200468266848  0.413142645191158  1.0000
  H   H17       1.0  0.4980971983826449  0.30997782844627847  0.8545951558072175  1.0000
  H   H18       1.0  0.5018878778354435  0.6900175422200902  0.1454248976450643  1.0000
  C   C1        1.0  0.5022591662066774  0.5005615699904878  0.3532548807206624  1.0000
  C   C2        1.0  0.49785402715850313  0.4994081515655396  0.6467581878279913  1.0000
  C   C3        1.0  0.5000822488508662  0.4992992523981029  0.9660141591075585  1.0000
  C   C4        1.0  0.5000662550880719  0.5006967649474917  0.03399853777910519  1.0000
  C   C5        1.0  0.5966935101276365  0.8243532194260226  0.4531545182882581  1.0000
  C   C6        1.0  0.403354718656793  0.17564388148598195  0.546841871403437  1.0000
  C   C7        1.0  0.5898744716379625  0.7409595373425546  0.45453383417306986  1.0000
  C   C8        1.0  0.4101536637388109  0.25903761573482587  0.5454670925595407  1.0000
  C   C9        1.0  0.4027899204273595  0.7584590369896134  0.5463079389377299  1.0000
  C   C10       1.0  0.5972198507094503  0.24155114069046849  0.4536840394956769  1.0000
  C   C11       1.0  0.4020552517899602  0.8425478187485352  0.5486932123340651  1.0000
  C   C12       1.0  0.5979712754320872  0.15745862262104277  0.4512959453148682  1.0000
  C   C13       1.0  0.5000959399879646  0.8773293939835581  0.5007921594583635  1.0000
  C   C14       1.0  0.4999476779566976  0.12267205666871205  0.49919864225557825  1.0000
  C   C15       1.0  0.5006371534115388  0.9629976747576449  0.5003288443316123  1.0000
  C   C16       1.0  0.49941724694144085  0.037004976302583294  0.4996596752510029  1.0000
  C   C17       1.0  0.7961903391243438  0.4772932107548868  0.4983815040392514  1.0000
  C   C18       1.0  0.20381978409743345  0.5227194211586407  0.5016110086576545  1.0000
  C   C19       1.0  0.9637728075540507  0.46784531719622163  0.49867382195176896  1.0000
  C   C20       1.0  0.036234926028392136  0.5321679533130136  0.5013159103829067  1.0000
  C   C21       1.0  0.5000078663739983  0.5726971775182859  0.8459107530186711  1.0000
  C   C22       1.0  0.5003322494400136  0.42726257322438227  0.1540814251487035  1.0000
  C   C23       1.0  0.4989665458984973  0.5733491505776269  0.7686498858060274  1.0000
  C   C24       1.0  0.5013989869773711  0.42660371314713075  0.2313478172426073  1.0000
  C   C25       1.0  0.4985901246211882  0.49998960217737914  0.730220426525136  1.0000
  C   C26       1.0  0.501602188109274  0.4999835376548206  0.2697867198999262  1.0000
  C   C27       1.0  0.4993315780726845  0.4265824160297385  0.7703416958842978  1.0000
  C   C28       1.0  0.5007377675609277  0.5734034818426321  0.22966584279370036  1.0000
  C   C29       1.0  0.49941542346930856  0.4257051883847466  0.847881315265482  1.0000
  C   C30       1.0  0.5006692990850042  0.5742775512673147  0.15213120016689166  1.0000
  C   C31       1.0  0.49986465374788464  0.4993481530632094  0.8875059646531795  1.0000
  C   C32       1.0  0.5003278274214721  0.5006280593178333  0.112501154518597  1.0000
  N   N1        1.0  0.4940623353367072  0.7088595978280664  0.4998006569673805  1.0000
  N   N2        1.0  0.5059569129979096  0.291145000323027  0.5001935586591981  1.0000
  O   O1        1.0  0.49196597666232106  0.5703591027969851  0.3844151763364322  1.0000
  O   O2        1.0  0.508036766465878  0.4296190568085975  0.6155927014452159  1.0000
  O   O3        1.0  0.5128877945344356  0.4312393449050234  0.3868746640599241  1.0000
  O   O4        1.0  0.48726818502354524  0.5687253304702294  0.6131321471173692  1.0000
  O   O5        1.0  0.719920527993999  0.5499785495341384  0.49717482380744826  1.0000
  O   O6        1.0  0.2800898782357635  0.4500342364381423  0.5027887264850575  1.0000
  O   O7        1.0  0.7420725255219194  0.4106257573059792  0.4996964584754123  1.0000
  O   O8        1.0  0.25794230482890157  0.5893848398553131  0.5003283540205743  1.0000
  O   O9        1.0  0.49919742996355865  0.3550326396563576  0.8888683675801303  1.0000
  O   O10       1.0  0.5007757771769618  0.6449615496302172  0.11115118767281021  1.0000
