data_image0
_chemical_formula_structural       Ag4H32C48S4N20O12
_chemical_formula_sum              "Ag4 H32 C48 S4 N20 O12"
_cell_length_a       7.010152021307419
_cell_length_b       13.1222201051845
_cell_length_c       14.735585224057244
_cell_angle_alpha    90.00029283806855
_cell_angle_beta     90.00006973080723
_cell_angle_gamma    102.13561733326017

_space_group_name_H-M_alt    "P 1"
_space_group_IT_number       1

loop_
  _space_group_symop_operation_xyz
  'x, y, z'

loop_
  _atom_site_type_symbol
  _atom_site_label
  _atom_site_symmetry_multiplicity
  _atom_site_fract_x
  _atom_site_fract_y
  _atom_site_fract_z
  _atom_site_occupancy
  Ag  Ag1       1.0  0.7526733945950353  0.7553775635099457  0.4744547768341504  1.0000
  Ag  Ag2       1.0  0.25267798116192347  0.2553777297073765  0.025544267348557494  1.0000
  Ag  Ag3       1.0  0.24733404758316624  0.24462793540174493  0.5255460997661388  1.0000
  Ag  Ag4       1.0  0.7473302420164811  0.7446223240043467  0.9744559306101903  1.0000
  H   H1        1.0  0.6883501711227992  0.4655220597134572  0.7301263282750766  1.0000
  H   H2        1.0  0.1883479565619551  0.9655199474573166  0.7698698924102273  1.0000
  H   H3        1.0  0.31165120544513064  0.5344787457990563  0.2698718337954204  1.0000
  H   H4        1.0  0.8116516947502888  0.034480073057537204  0.23012826965796043  1.0000
  H   H5        1.0  0.7279332155569876  0.3191980085464508  0.6289939510117222  1.0000
  H   H6        1.0  0.2279251932105595  0.8191949481423819  0.8710056948380325  1.0000
  H   H7        1.0  0.2720670289829456  0.680803570904466  0.3710055683188286  1.0000
  H   H8        1.0  0.7720713042041468  0.18080428184519093  0.12899314585671104  1.0000
  H   H9        1.0  0.7653297032171338  0.3493907877727125  0.4618211662653166  1.0000
  H   H10       1.0  0.26531841892703767  0.849392643081707  0.0381762801891625  1.0000
  H   H11       1.0  0.23466911267927057  0.6506107861464514  0.5381783530648008  1.0000
  H   H12       1.0  0.7346740891659208  0.1506073497722724  0.9618212032475311  1.0000
  H   H13       1.0  0.7630401694087894  0.529678185901311  0.4017411685968496  1.0000
  H   H14       1.0  0.2630265431059938  0.029678735232302206  0.09825616935449227  1.0000
  H   H15       1.0  0.23696864699059722  0.4703234267379771  0.5982576721070244  1.0000
  H   H16       1.0  0.7369639431207844  0.9703196931602421  0.9017419927073147  1.0000
  H   H17       1.0  0.07531938433849916  0.6269825044281347  0.6849413400489437  1.0000
  H   H18       1.0  0.5753260081239162  0.1269843853263382  0.8150607275347992  1.0000
  H   H19       1.0  0.9246747945945087  0.3730143816278471  0.3150568220104333  1.0000
  H   H20       1.0  0.42467191794270326  0.8730148502036031  0.1849415063069202  1.0000
  H   H21       1.0  0.3239464119930986  0.5499292567607839  0.7694923418050192  1.0000
  H   H22       1.0  0.8239465521460047  0.04992591513175171  0.7305081638521428  1.0000
  H   H23       1.0  0.6760506242219224  0.45006764035233005  0.23050378436731472  1.0000
  H   H24       1.0  0.1760450117048862  0.9500678475416038  0.2694940699751526  1.0000
  H   H25       1.0  0.307227802062556  0.5414537715114491  0.9381093056205712  1.0000
  H   H26       1.0  0.8072219872168346  0.04145091146344271  0.5618925085032841  1.0000
  H   H27       1.0  0.6927752453420767  0.458543927198818  0.061888177814004984  1.0000
  H   H28       1.0  0.19277623546363293  0.9585491035345229  0.4381104039696168  1.0000
  H   H29       1.0  0.05115114727860967  0.6152439936699281  0.018029890456233495  1.0000
  H   H30       1.0  0.5511468161053514  0.11524220360376353  0.48197178482266156  1.0000
  H   H31       1.0  0.9488559438701144  0.3847568339780736  0.9819709861332554  1.0000
  H   H32       1.0  0.4488571755631553  0.8847617253147391  0.5180297704023076  1.0000
  C   C1        1.0  0.6817045952775302  0.663928959543  0.675187666440017  1.0000
  C   C2        1.0  0.18170376041370417  0.16392785860151804  0.8248105620321267  1.0000
  C   C3        1.0  0.3182967812903997  0.33607184596950657  0.3248104956304799  1.0000
  C   C4        1.0  0.8182916049730122  0.8360721453244578  0.17518963592267053  1.0000
  C   C5        1.0  0.7724134616905616  0.6960396962606127  0.7608450368822871  1.0000
  C   C6        1.0  0.27241767571645426  0.1960411937295348  0.739155428660254  1.0000
  C   C7        1.0  0.22758559639902393  0.30395876532455907  0.23915380381146176  1.0000
  C   C8        1.0  0.7275814367954752  0.8039611596597853  0.2608454479303503  1.0000
  C   C9        1.0  0.7082310845351499  0.5749927595048875  0.618281010068692  1.0000
  C   C10       1.0  0.20822737712600772  0.07499122416873401  0.8817188627512847  1.0000
  C   C11       1.0  0.29177487458222373  0.42500884207727563  0.381719866522225  1.0000
  C   C12       1.0  0.7917662630016622  0.9250079947553401  0.11827997794258487  1.0000
  C   C13       1.0  0.705905169935839  0.47746225894930205  0.6570128751247564  1.0000
  C   C14       1.0  0.20590159159831958  0.9774598192517701  0.842984089348313  1.0000
  C   C15       1.0  0.2940965032459387  0.5225393260312359  0.34298596557692207  1.0000
  C   C16       1.0  0.7940977631017532  0.022539421797183903  0.15701407271799883  1.0000
  C   C17       1.0  0.7280671487209175  0.3957218277238539  0.6003783642839335  1.0000
  C   C18       1.0  0.2280624761639771  0.8957236287219317  0.899619596275073  1.0000
  C   C19       1.0  0.27193422785036603  0.6042789777929016  0.3996211550451889  1.0000
  C   C20       1.0  0.77193348244203  0.10427793412948462  0.10037856579554469  1.0000
  C   C21       1.0  0.7493646696295642  0.41252615130201054  0.507190389836424  1.0000
  C   C22       1.0  0.249361589827629  0.9125277615449792  0.9928063031349337  1.0000
  C   C23       1.0  0.25063872880622284  0.5874762186740626  0.49280777223826516  1.0000
  C   C24       1.0  0.7506349075870773  0.087471468442601  0.007192537559809899  1.0000
  C   C25       1.0  0.7481662074883885  0.5118463844453203  0.4741101527032398  1.0000
  C   C26       1.0  0.24816483899243738  0.011849643007195706  0.0258898092289428  1.0000
  C   C27       1.0  0.2518408836586659  0.488154443200564  0.5258900452569362  1.0000
  C   C28       1.0  0.7518313618117816  0.9881488075165948  0.9741097100932377  1.0000
  C   C29       1.0  0.9246034099311656  0.6535048924817843  0.8073901331831477  1.0000
  C   C30       1.0  0.42460715164362745  0.15350921100095857  0.6926115855633977  1.0000
  C   C31       1.0  0.07539618696544179  0.3464912362374193  0.1926087075054213  1.0000
  C   C32       1.0  0.5753933895135006  0.8464931479222315  0.3073899696569525  1.0000
  C   C33       1.0  0.0704932387629995  0.6193567725253857  0.7585054167360921  1.0000
  C   C34       1.0  0.5705012241006031  0.11935897804925591  0.7414972916714503  1.0000
  C   C35       1.0  0.9295023688168909  0.3806401190665909  0.24149410258234377  1.0000
  C   C36       1.0  0.4294972951903516  0.8806418164124923  0.2585049421740209  1.0000
  C   C37       1.0  0.20979941102160637  0.5784283431558777  0.8054719416741277  1.0000
  C   C38       1.0  0.7097979990632125  0.07842866262784298  0.69452862645155  1.0000
  C   C39       1.0  0.7902007790943057  0.4215693444887664  0.19452486313026177  1.0000
  C   C40       1.0  0.29019903716523027  0.9215682345022601  0.30547292875524323  1.0000
  C   C41       1.0  0.20210042211085275  0.5745181361516317  0.8998258348570329  1.0000
  C   C42       1.0  0.7021025329846821  0.07451710227974931  0.6001767466529202  1.0000
  C   C43       1.0  0.7978986359804097  0.4254803254356645  0.10017368446602148  1.0000
  C   C44       1.0  0.2978959863062726  0.9254836921820058  0.399825487192551  1.0000
  C   C45       1.0  0.057523515869505146  0.6138238862608818  0.944134946524812  1.0000
  C   C46       1.0  0.5575205829341172  0.11382489136119739  0.5558656929114177  1.0000
  C   C47       1.0  0.9424792349196026  0.3861730329792367  0.05586117964927688  1.0000
  C   C48       1.0  0.4424796616108467  0.8861766880960859  0.4441358623070569  1.0000
  S   S1        1.0  0.5481706249719238  0.8073914595091055  0.7282845908435646  1.0000
  S   S2        1.0  0.04817642862804661  0.3073931662850243  0.7717182868830432  1.0000
  S   S3        1.0  0.45182355396947566  0.19260542655749902  0.27171696436235476  1.0000
  S   S4        1.0  0.9518226838889206  0.6926091871106622  0.22828462559547794  1.0000
  N   N1        1.0  0.5537597586542519  0.721135590873317  0.6493482697788479  1.0000
  N   N2        1.0  0.053757029676191295  0.2211330871774351  0.8506508230410217  1.0000
  N   N3        1.0  0.4462413213015067  0.2788644351732898  0.3506498922897804  1.0000
  N   N4        1.0  0.9462397643557166  0.7788669222824184  0.1493500535435217  1.0000
  N   N5        1.0  0.7072764928734047  0.7757807273422234  0.797541401267466  1.0000
  N   N6        1.0  0.20728659108309702  0.2757866885626258  0.7024627838283306  1.0000
  N   N7        1.0  0.29271709284365954  0.22421459979256755  0.20246015393470165  1.0000
  N   N8        1.0  0.7927151365243787  0.7242187882263096  0.29753945002882176  1.0000
  N   N9        1.0  0.7289245414706825  0.5916079567587574  0.5279168115575175  1.0000
  N   N10       1.0  0.22891729149915818  0.09160774979223872  0.9720790779330172  1.0000
  N   N11       1.0  0.2710874288245577  0.40839444640569406  0.4720806718904952  1.0000
  N   N12       1.0  0.7710749199866667  0.9083914636022142  0.027920441389717592  1.0000
  N   N13       1.0  0.9209943879611519  0.6523727631779509  0.8994115850171409  1.0000
  N   N14       1.0  0.4209973781003313  0.15237572634632102  0.6005894477588852  1.0000
  N   N15       1.0  0.07900550555097403  0.3476241450114019  0.1005886129319151  1.0000
  N   N16       1.0  0.5790045916969718  0.847626638104373  0.39941075020328737  1.0000
  N   N17       1.0  0.0882562908180233  0.8605991824767757  0.6068805069155727  1.0000
  N   N18       1.0  0.5882566961244465  0.3605991913583183  0.8931192452747608  1.0000
  N   N19       1.0  0.9117499649182293  0.13940319857978517  0.3931230841944495  1.0000
  N   N20       1.0  0.4117429551911513  0.6394008291607848  0.10688027405203829  1.0000
  O   O1        1.0  0.2519121411925837  0.8904782594947774  0.6453066514375292  1.0000
  O   O2        1.0  0.7519080705879233  0.3904780113057669  0.8546933352082176  1.0000
  O   O3        1.0  0.7480972140171713  0.10952102028279852  0.3546935465197833  1.0000
  O   O4        1.0  0.24809241614518382  0.6095204558111506  0.14530550548597174  1.0000
  O   O5        1.0  0.9525413081507353  0.9089161569237946  0.6182099129543204  1.0000
  O   O6        1.0  0.4525413482207767  0.40891697149903916  0.8817916350566575  1.0000
  O   O7        1.0  0.047470123359289594  0.09108857913422239  0.38179639267987386  1.0000
  O   O8        1.0  0.5474600283505069  0.5910838340177237  0.11820788427245787  1.0000
  O   O9        1.0  0.06181185213777239  0.7797960090637801  0.5554782156901154  1.0000
  O   O10       1.0  0.5618139402243613  0.27979634516051277  0.9445218292537942  1.0000
  O   O11       1.0  0.9381858317373499  0.22020633880228507  0.4445253754172781  1.0000
  O   O12       1.0  0.4381877329607632  0.7202052398242743  0.0554783687065026  1.0000
