data_image0
_chemical_formula_structural       Cd4H32C48N28O12
_chemical_formula_sum              "Cd4 H32 C48 N28 O12"
_cell_length_a       9.092509984278264
_cell_length_b       12.395098044
_cell_length_c       14.3126
_cell_angle_alpha    90.0
_cell_angle_beta     106.8952082148209
_cell_angle_gamma    90.0

_space_group_name_H-M_alt    "P 1"
_space_group_IT_number       1

loop_
  _space_group_symop_operation_xyz
  'x, y, z'

loop_
  _atom_site_type_symbol
  _atom_site_label
  _atom_site_symmetry_multiplicity
  _atom_site_fract_x
  _atom_site_fract_y
  _atom_site_fract_z
  _atom_site_occupancy
  Cd  Cd1       1.0  0.1687345054640943  0.4546361779467958  0.0962353730049941  1.0000
  Cd  Cd2       1.0  0.8312657136148971  0.9546338365373258  0.4037650167853286  1.0000
  Cd  Cd3       1.0  0.8312611159444501  0.5453631730869759  0.9037522902873293  1.0000
  Cd  Cd4       1.0  0.1687379537169349  0.04536551449645289  0.5962478872900618  1.0000
  H   H1        1.0  0.09046836141735783  0.6898122120251314  0.18175602532173943  1.0000
  H   H2        1.0  0.909538754167315  0.1898064857291573  0.31824354169094704  1.0000
  H   H3        1.0  0.9095261105735803  0.3101855254675527  0.8182251375919806  1.0000
  H   H4        1.0  0.09047410850541843  0.8101872179108014  0.6817766495684906  1.0000
  H   H5        1.0  0.22629274181028342  0.8587773942742345  0.2545467054093962  1.0000
  H   H6        1.0  0.7737166726096092  0.35877408828989826  0.2454511899739273  1.0000
  H   H7        1.0  0.773700580763041  0.1412155025951805  0.7454419308272192  1.0000
  H   H8        1.0  0.2262984888983439  0.6412155814973417  0.7545561506949525  1.0000
  H   H9        1.0  0.48868869081830013  0.8959630622184349  0.23454526327550704  1.0000
  H   H10       1.0  0.511319574183986  0.39596136977518626  0.2654524198948849  1.0000
  H   H11       1.0  0.5113092294254713  0.1040306414215237  0.7654533047188039  1.0000
  H   H12       1.0  0.4886909896535201  0.6040323338647724  0.7345456877013701  1.0000
  H   H13       1.0  0.5932029354561693  0.7709055600915917  0.13352639345044542  1.0000
  H   H14       1.0  0.4068041801285034  0.2709070947305179  0.3664724748771633  1.0000
  H   H15       1.0  0.40680303071089  0.22909379094217996  0.8664708652940831  1.0000
  H   H16       1.0  0.5931983377857222  0.729097096926523  0.6335304353942489  1.0000
  H   H17       1.0  0.6343015115963198  0.2093206516632549  0.05010565724401058  1.0000
  H   H18       1.0  0.36569181097700465  0.7093247644181345  0.4498948566388776  1.0000
  H   H19       1.0  0.3656975580650652  0.7906778925999731  0.9498917255930835  1.0000
  H   H20       1.0  0.6343038104315468  0.2906794272389064  0.5501074790400224  1.0000
  H   H21       1.0  0.5658996694970782  0.0377342719145659  0.1182141182001146  1.0000
  H   H22       1.0  0.4340913542410192  0.537737577898902  0.38178666994198107  1.0000
  H   H23       1.0  0.4341016989995269  0.9622683062013875  0.8817899772285074  1.0000
  H   H24       1.0  0.5658996694970782  0.4622714543814084  0.618210624774747  1.0000
  H   H25       1.0  0.31256917719611726  0.0294592264380498  0.1592309826448783  1.0000
  H   H26       1.0  0.6874195477067602  0.5294560782580291  0.3407686823862832  1.0000
  H   H27       1.0  0.687429892465268  0.9705441584484474  0.840768496247435  1.0000
  H   H28       1.0  0.31256917719611726  0.4705456930873808  0.6592302839598005  1.0000
  H   H29       1.0  0.1508162343082375  0.19384275876406318  0.1369862664306964  1.0000
  H   H30       1.0  0.8491770882650871  0.6938404173545862  0.3630128500820362  1.0000
  H   H31       1.0  0.8491805365179204  0.8061590125813466  0.8630064998700817  1.0000
  H   H32       1.0  0.1508196825610781  0.3061597404497292  0.6369924925500925  1.0000
  C   C1        1.0  0.2024572687870574  0.7100298818741634  0.1732173257067728  1.0000
  C   C2        1.0  0.7975486973799946  0.21002657588982737  0.32678272777805256  1.0000
  C   C3        1.0  0.7975349043686535  0.2899694691596082  0.8267648101512393  1.0000
  C   C4        1.0  0.2024664641279585  0.7899727751439514  0.6732364905370929  1.0000
  C   C5        1.0  0.2786165303507246  0.8043324840682473  0.2135712590447483  1.0000
  C   C6        1.0  0.7213894358163344  0.3043291780839112  0.2864273970699358  1.0000
  C   C7        1.0  0.7213790910578269  0.1956636398833496  0.7864171029326599  1.0000
  C   C8        1.0  0.2786199786035581  0.6956645255560545  0.7135816772745827  1.0000
  C   C9        1.0  0.4220420094128201  0.8257788654567904  0.20095717614152872  1.0000
  C   C10       1.0  0.5779628073366254  0.3257755594724543  0.2990433638154428  1.0000
  C   C11       1.0  0.5779524625781178  0.1742172584948065  0.7990365631035418  1.0000
  C   C12       1.0  0.4220466070832671  0.6742189509380551  0.7009622171037008  1.0000
  C   C13       1.0  0.48201517216213574  0.755584987448607  0.14523342105633216  1.0000
  C   C14       1.0  0.5179930928401433  0.2555832950053585  0.3547656594842081  1.0000
  C   C15       1.0  0.5179873457520827  0.2444127500440771  0.854758310253878  1.0000
  C   C16       1.0  0.4820128733269158  0.7444152492578694  0.6452420795364375  1.0000
  C   C17       1.0  0.3966065470734749  0.6642755039751904  0.1053132800150536  1.0000
  C   C18       1.0  0.6033982696759709  0.1642746183024855  0.39468795862699585  1.0000
  C   C19       1.0  0.6033936720055166  0.3357230402880376  0.8946780268693004  1.0000
  C   C20       1.0  0.3966065470734749  0.8357255395018298  0.6053230616061002  1.0000
  C   C21       1.0  0.451370549204519  0.5830522658510375  0.046805605250945306  1.0000
  C   C22       1.0  0.548630819292093  0.0830538004899708  0.4531942980672312  1.0000
  C   C23       1.0  0.5486273710392524  0.4169462784121905  0.9531838798373897  1.0000
  C   C24       1.0  0.45137284803974614  0.9169503911670702  0.5468179073230814  1.0000
  C   C25       1.0  0.4648152870138773  0.3969738668087288  0.0209198485044553  1.0000
  C   C26       1.0  0.5351837826475077  0.8969763660225212  0.47908032907293563  1.0000
  C   C27       1.0  0.5351860814827347  0.6030238706839555  0.9790709719077526  1.0000
  C   C28       1.0  0.4648175858490974  0.10302540532288158  0.5209300545213651  1.0000
  C   C29       1.0  0.4260638216377401  0.2902558727029643  0.05463069307605651  1.0000
  C   C30       1.0  0.5739317997708042  0.7902567583756692  0.445370245232688  1.0000
  C   C31       1.0  0.5739317997708042  0.70974186478972  0.9453625596968677  1.0000
  C   C32       1.0  0.4260672698905808  0.2097425926581096  0.5546362205103748  1.0000
  C   C33       1.0  0.5256780989950016  0.2020548761380994  0.06716644714606448  1.0000
  C   C34       1.0  0.4743152235783228  0.7020573753518917  0.4328347654218945  1.0000
  C   C35       1.0  0.47432441891921684  0.7979444748956723  0.9328350657551924  1.0000
  C   C36       1.0  0.5256769495773881  0.2979452027640619  0.5671648375629843  1.0000
  C   C37       1.0  0.4869576678943944  0.10613066514925859  0.10507583060002192  1.0000
  C   C38       1.0  0.51303795351415  0.6061315508219636  0.3949286011340973  1.0000
  C   C39       1.0  0.5130414017669906  0.8938711061961513  0.8949250456624398  1.0000
  C   C40       1.0  0.48695651847678084  0.3938718340645337  0.6050728236467933  1.0000
  C   C41       1.0  0.3489114632571814  0.1013570038365401  0.1285205558728109  1.0000
  C   C42       1.0  0.6510772616456961  0.6013562759681577  0.3714798078434285  1.0000
  C   C43       1.0  0.6510899052394308  0.8986455742794135  0.8714800461304434  1.0000
  C   C44       1.0  0.34891031383956783  0.398646302147796  0.6285189462897236  1.0000
  C   C45       1.0  0.2568649514583328  0.1933183579100373  0.1160377416580047  1.0000
  C   C46       1.0  0.7431283711149917  0.693316823271111  0.3839634709099542  1.0000
  C   C47       1.0  0.7431341182030522  0.8066826066648288  0.8839589424940115  1.0000
  C   C48       1.0  0.2568649514583328  0.3066833345332114  0.6160391390281532  1.0000
  N   N1        1.0  0.2614637713245571  0.6406024358834017  0.12199000138119939  1.0000
  N   N2        1.0  0.7385398960072749  0.1405991298990656  0.3780110250479112  1.0000
  N   N3        1.0  0.7385329995016008  0.3593969151503699  0.8779957780688363  1.0000
  N   N4        1.0  0.2614683689950112  0.8594002211347058  0.6220062213045665  1.0000
  N   N5        1.0  0.4179064048442882  0.4810901841060087  0.0634330174954201  1.0000
  N   N6        1.0  0.5820938142347103  0.9810910697787134  0.4365673722949027  1.0000
  N   N7        1.0  0.5820938142347103  0.518909166927763  0.9365561933337078  1.0000
  N   N8        1.0  0.4179075542619017  0.0189123151077837  0.5634437099844688  1.0000
  N   N9        1.0  0.2950486045340668  0.2862066913393448  0.0812816337878672  1.0000
  N   N10       1.0  0.7049458674568712  0.7862075770120498  0.4187176949378042  1.0000
  N   N11       1.0  0.7049493157097046  0.7137934664649777  0.9187148381512245  1.0000
  N   N12       1.0  0.2950509033692867  0.21379419433336008  0.5812855516390982  1.0000
  N   N13       1.0  0.9305363151061244  0.5348541799723066  0.0747780455419118  1.0000
  N   N14       1.0  0.06946620280809412  0.0348492604468831  0.4252227686742671  1.0000
  N   N15       1.0  0.0694604557200336  0.4651451710614651  0.9252119260185694  1.0000
  N   N16       1.0  0.9305397633589649  0.9651476702752575  0.5747884637717533  1.0000
  N   N17       1.0  0.8574368032260153  0.5393737085634598  0.13262327536385501  1.0000
  N   N18       1.0  0.14256226643536962  0.0393712093496674  0.3673776008986139  1.0000
  N   N19       1.0  0.1425645652705896  0.4606216086175862  0.8673675450483529  1.0000
  N   N20       1.0  0.8574333549731818  0.9606233010608349  0.6326359137414812  1.0000
  N   N21       1.0  0.7854775136171668  0.5448516805616634  0.1879625328431374  1.0000
  N   N22       1.0  0.21452040662661181  0.0448532152005967  0.3120353364661028  1.0000
  N   N23       1.0  0.2145250042970588  0.4551404095372078  0.812031993207377  1.0000
  N   N24       1.0  0.7854763641995532  0.9551404884393689  0.6879693074809481  1.0000
  N   N25       1.0  0.14373467239976634  0.36500316366517177  0.2810227852239464  1.0000
  N   N26       1.0  0.8562666960968457  0.8650064696495078  0.2189750220390039  1.0000
  N   N27       1.0  0.8562712937672927  0.6350002212213255  0.7189674866698326  1.0000
  N   N28       1.0  0.14373007472931223  0.1350017558602516  0.7810338140184925  1.0000
  O   O1        1.0  0.2412144812512551  0.4367379734136421  0.2689354588606676  1.0000
  O   O2        1.0  0.7587857378277434  0.936738859086347  0.23106493092965513  1.0000
  O   O3        1.0  0.7587880366629636  0.5632654114728552  0.7310548750793943  1.0000
  O   O4        1.0  0.24121333183364163  0.0632685596528688  0.7689450282387824  1.0000
  O   O5        1.0  0.04210891422123101  0.3314019772508701  0.2054303323083104  1.0000
  O   O6        1.0  0.9578890060225405  0.8314012493824876  0.2945682356860004  1.0000
  O   O7        1.0  0.957892454275374  0.668602214406171  0.7945604881038975  1.0000
  O   O8        1.0  0.04210891422123101  0.16860374904510417  0.7054408125844276  1.0000
  O   O9        1.0  0.1533782861657258  0.3310518388344903  0.36437193944626506  1.0000
  O   O10       1.0  0.8466219329132656  0.8310583719010083  0.1356249569186829  1.0000
  O   O11       1.0  0.8466357259246138  0.6689580002163638  0.6356205166231063  1.0000
  O   O12       1.0  0.15336679198960473  0.16895792131420248  0.8643809962781503  1.0000
