data_image0
_chemical_formula_structural       Gd8H32C20S8N8O60
_chemical_formula_sum              "Gd8 H32 C20 S8 N8 O60"
_cell_length_a       6.442874638617132
_cell_length_b       13.314120282
_cell_length_c       18.2315
_cell_angle_alpha    90.0
_cell_angle_beta     93.8023846982899
_cell_angle_gamma    90.0

_space_group_name_H-M_alt    "P 1"
_space_group_IT_number       1

loop_
  _space_group_symop_operation_xyz
  'x, y, z'

loop_
  _atom_site_type_symbol
  _atom_site_label
  _atom_site_symmetry_multiplicity
  _atom_site_fract_x
  _atom_site_fract_y
  _atom_site_fract_z
  _atom_site_occupancy
  Gd  Gd1       1.0  0.2610608815577393  0.3065196883880787  0.7128547510833487  1.0000
  Gd  Gd2       1.0  0.2389381853597641  0.8065189267155192  0.7871452818996333  1.0000
  Gd  Gd3       1.0  0.7389388078036419  0.6934802904314026  0.28714535133696023  1.0000
  Gd  Gd4       1.0  0.7610615040016171  0.1934810521039552  0.21285482052067556  1.0000
  Gd  Gd5       1.0  0.0954735427185511  0.1695530723912668  0.9016478192583719  1.0000
  Gd  Gd6       1.0  0.4045270797253266  0.669553061801011  0.5983517016777357  1.0000
  Gd  Gd7       1.0  0.90452614664283  0.8304461553459177  0.09835173466071721  1.0000
  Gd  Gd8       1.0  0.5954726096360545  0.3304469170184703  0.4016484007425802  1.0000
  H   H1        1.0  0.3062100347813583  0.0117401673328246  0.4953926946154041  1.0000
  H   H2        1.0  0.1937874766097636  0.5117401567425617  0.0046067534120198  1.0000
  H   H3        1.0  0.6937896545800228  0.9882598114866568  0.5046063108024654  1.0000
  H   H4        1.0  0.8062106572252361  0.48825907099462285  0.9953933125539508  1.0000
  H   H5        1.0  0.2293188102164407  0.19751436402112427  0.5145215266703647  1.0000
  H   H6        1.0  0.2706802567010556  0.697515855595455  0.9854785063126245  1.0000
  H   H7        1.0  0.770679323618559  0.8024841126337633  0.4854774422931669  1.0000
  H   H8        1.0  0.7293209881867071  0.3024848743063231  0.014522181063249208  1.0000
  H   H9        1.0  0.5700335311926779  0.1965747600717052  0.8779197359846692  1.0000
  H   H10       1.0  0.9299652250862067  0.6965739983991526  0.6220803994186286  1.0000
  H   H11       1.0  0.4299661581687033  0.8034259698300659  0.12207981793442711  1.0000
  H   H12       1.0  0.0700313532224115  0.3034267315026185  0.37792072709544305  1.0000
  H   H13       1.0  0.5323477935475864  0.0862670590074828  0.8996260309336466  1.0000
  H   H14       1.0  0.9676556293104357  0.5862655462526334  0.6003742138326729  1.0000
  H   H15       1.0  0.46765189581379474  0.9137351730588819  0.10037407148666941  1.0000
  H   H16       1.0  0.0323471711037087  0.41373518364913753  0.39962650999753896  1.0000
  H   H17       1.0  0.17533115609303  0.19485403053683828  0.0631594954016208  1.0000
  H   H18       1.0  0.3246694663508549  0.6948532688642857  0.43684002553448664  1.0000
  H   H19       1.0  0.8246685332683512  0.8051459482826359  0.9368400585174754  1.0000
  H   H20       1.0  0.6753286674841448  0.3051459588728989  0.5631594919302645  1.0000
  H   H21       1.0  0.39874829921798494  0.1743547414948878  0.0385113674585469  1.0000
  H   H22       1.0  0.1012507676995185  0.6743554819869217  0.461488665524442  1.0000
  H   H23       1.0  0.6012498346170219  0.8256444862422967  0.9614886985074236  1.0000
  H   H24       1.0  0.8987489216618627  0.3256444968325524  0.538511436895874  1.0000
  H   H25       1.0  0.8784446358038808  0.9741567392578574  0.8527645016582781  1.0000
  H   H26       1.0  0.6215541204749968  0.4741552476835267  0.647236182246246  1.0000
  H   H27       1.0  0.121553498031119  0.0258439906439207  0.147236112808919  1.0000
  H   H28       1.0  0.3784455688863844  0.5258439800536578  0.3527639201740699  1.0000
  H   H29       1.0  0.7788707255436408  0.0556889966663761  0.7985783870738673  1.0000
  H   H30       1.0  0.7211295862616183  0.5556882349938235  0.701422333284988  1.0000
  H   H31       1.0  0.221127408291359  0.9443109821531053  0.20142222739332286  1.0000
  H   H32       1.0  0.2788716586261444  0.4443117438256579  0.29857780558965896  1.0000
  C   C1        1.0  0.2369953329092453  0.1406747092808018  0.5571757178471017  1.0000
  C   C2        1.0  0.2630052895346395  0.640674698690546  0.9428243515902254  1.0000
  C   C3        1.0  0.7630043564521358  0.8593245184563827  0.44282383607198744  1.0000
  C   C4        1.0  0.7369959553531232  0.3593237779643488  0.057176335785648305  1.0000
  C   C5        1.0  0.2803182981609567  0.9909757250606788  0.6101433977845405  1.0000
  C   C6        1.0  0.2196838798093097  0.4909757356509346  0.8898561596059055  1.0000
  C   C7        1.0  0.7196845022531875  0.0090242537588026  0.38985622904323247  1.0000
  C   C8        1.0  0.7803173650784601  0.5090249942508365  0.11014397926874861  1.0000
  C   C9        1.0  0.2408001504384387  0.0635573347751759  0.6623686890204682  1.0000
  C   C10       1.0  0.259203583058202  0.5635610795963828  0.8376325503279817  1.0000
  C   C11       1.0  0.7592026499757055  0.9364403907974221  0.3376309378073046  1.0000
  C   C12       1.0  0.7408007728823238  0.4364419035522715  0.16236875845779516  1.0000
  C   C13       1.0  0.3342499533346341  0.8835799700491265  0.6093251955989203  1.0000
  C   C14       1.0  0.1657506691092436  0.3835814828039688  0.8906743253371873  1.0000
  C   C15       1.0  0.66575284707951  0.1164192576880581  0.3906744312288525  1.0000
  C   C16       1.0  0.8342490202521375  0.6164184960155055  0.109325228581902  1.0000
  C   C17       1.0  0.2305974529020531  0.059255886479157  0.7429671463632631  1.0000
  C   C18       1.0  0.2694031695418317  0.5592558758888941  0.7570323745728444  1.0000
  C   C19       1.0  0.769402236459328  0.9407440923403243  0.2570318590546067  1.0000
  C   C20       1.0  0.7305996308723124  0.4407441029305872  0.24296834925737443  1.0000
  S   S1        1.0  0.7219866812978353  0.286116537879721  0.7635333062789513  1.0000
  S   S2        1.0  0.7780136305074238  0.7861165272894581  0.7364668655786916  1.0000
  S   S3        1.0  0.2780130080635459  0.7138834409397603  0.2364662476401449  1.0000
  S   S4        1.0  0.2219860588539575  0.2138842026123129  0.2635332368416243  1.0000
  S   S5        1.0  0.310199959949955  0.4009059469904557  0.5589088476147381  1.0000
  S   S6        1.0  0.1897991069675413  0.9009066874824825  0.9410911853682438  1.0000
  S   S7        1.0  0.6897981738850447  0.5990940318290257  0.4410906698500129  1.0000
  S   S8        1.0  0.8101990268674584  0.0990940424192885  0.05890888059772692  1.0000
  N   N1        1.0  0.21609372492076062  0.1556753248505771  0.6282998457119291  1.0000
  N   N2        1.0  0.2839084530495057  0.6556753142603142  0.871699163177297  1.0000
  N   N3        1.0  0.7839059644406208  0.8443246539689042  0.3716986112047209  1.0000
  N   N4        1.0  0.7160959028910199  0.34432316239457356  0.1282999516036014  1.0000
  N   N5        1.0  0.2766954772183965  0.04281769939923661  0.5445542858781351  1.0000
  N   N6        1.0  0.22330514522548844  0.5428184398912705  0.9554446865567455  1.0000
  N   N7        1.0  0.7233057676693662  0.9571815283379479  0.45544475599407264  1.0000
  N   N8        1.0  0.7766960996622816  0.45718078784591404  0.04455545231790841  1.0000
  O   O1        1.0  0.17473850054166462  0.1417870621577748  0.7728842454662797  1.0000
  O   O2        1.0  0.3252621219022132  0.6417893048143952  0.7271158239710475  1.0000
  O   O3        1.0  0.8252611888197168  0.8582121655794097  0.2271153084528167  1.0000
  O   O4        1.0  0.674737567459168  0.3582121761696726  0.2728848269504809  1.0000
  O   O5        1.0  0.5943121869554417  0.3782705799052195  0.7693605580244594  1.0000
  O   O6        1.0  0.9056881248498245  0.8782705693149637  0.7306396138331764  1.0000
  O   O7        1.0  0.4056875024059394  0.6217293989142619  0.23063954439584933  1.0000
  O   O8        1.0  0.0943131200379383  0.1217294095045176  0.269359976540251  1.0000
  O   O9        1.0  0.7957092986235992  0.2505054730885306  0.8389340617255032  1.0000
  O   O10       1.0  0.7042910131816669  0.7505054624982676  0.6610661101321328  1.0000
  O   O11       1.0  0.2042919462641635  0.749493754648654  0.16106607714915103  1.0000
  O   O12       1.0  0.2957086761797143  0.2494945163212066  0.33893399228817606  1.0000
  O   O13       1.0  0.9015955349400429  0.3049844761797544  0.719034501354777  1.0000
  O   O14       1.0  0.5984047768652161  0.8049844655894914  0.7809656705028658  1.0000
  O   O15       1.0  0.0984041544213383  0.6950162537220166  0.2809650525643194  1.0000
  O   O16       1.0  0.4015964680225466  0.19501626431227947  0.21903446837178822  1.0000
  O   O17       1.0  0.5811975440328467  0.2079964685120004  0.7281865795496003  1.0000
  O   O18       1.0  0.9188027677724194  0.7079957068394478  0.7718135923080354  1.0000
  O   O19       1.0  0.4188021453285344  0.792003510307481  0.27181352287070853  1.0000
  O   O20       1.0  0.0811969215889619  0.2920042719800335  0.22818705861349292  1.0000
  O   O21       1.0  0.3410211596733959  0.3500291345798132  0.48853497423274933  1.0000
  O   O22       1.0  0.1589779072441075  0.8500291239895503  0.0114650587502396  1.0000
  O   O23       1.0  0.6589785296879853  0.6499708442396681  0.5114651281875595  1.0000
  O   O24       1.0  0.8410217821172737  0.1499708548299239  0.9885344951688567  1.0000
  O   O25       1.0  0.1137603108597034  0.3663313757645668  0.5895277655672049  1.0000
  O   O26       1.0  0.3862403115841815  0.8663313651743109  0.9104717553688958  1.0000
  O   O27       1.0  0.8862393785016778  0.6336678519726179  0.410472336853104  1.0000
  O   O28       1.0  0.6137609333035812  0.1336686136451704  0.08952783500453172  1.0000
  O   O29       1.0  0.4795641168434699  0.36836455553361697  0.6155587594926788  1.0000
  O   O30       1.0  0.020434950074026403  0.8683645449433541  0.8844407249890837  1.0000
  O   O31       1.0  0.5204355725179113  0.6316354232858643  0.38444079442641055  1.0000
  O   O32       1.0  0.979564739287355  0.1316354338761272  0.11555937743122512  1.0000
  O   O33       1.0  0.3106339518104022  0.5105106350277779  0.5493833246588836  1.0000
  O   O34       1.0  0.1893651151071012  0.0105106456180337  0.9506172568253248  1.0000
  O   O35       1.0  0.6893641820245976  0.4894893437917034  0.4506172898083065  1.0000
  O   O36       1.0  0.81063457425428  0.9894893332014405  0.049382845594991016  1.0000
  O   O37       1.0  0.46434795777944526  0.1518350410828901  0.8975601698783322  1.0000
  O   O38       1.0  0.0356526646644397  0.6518350304926273  0.6024398995589948  1.0000
  O   O39       1.0  0.535651731581936  0.8481649377365912  0.1024388355395445  1.0000
  O   O40       1.0  0.9643485802233229  0.3481656994091438  0.3975624333205374  1.0000
  O   O41       1.0  0.2635699456111311  0.2046646674571448  0.021655564385909508  1.0000
  O   O42       1.0  0.2364306768327538  0.7046646568668891  0.4783445050514175  1.0000
  O   O43       1.0  0.7364312992766315  0.7953360624446262  0.9783445744887443  1.0000
  O   O44       1.0  0.7635674570022459  0.2953353219525923  0.5216550124133335  1.0000
  O   O45       1.0  0.832824158086666  0.0452504549485369  0.8492144977337263  1.0000
  O   O46       1.0  0.6671761537186001  0.545250444358274  0.6507856741239095  1.0000
  O   O47       1.0  0.1671755312747152  0.9547495238709445  0.1507856046865896  1.0000
  O   O48       1.0  0.3328235356427811  0.45474953446120747  0.3492144282963992  1.0000
  O   O49       1.0  0.4334816477909413  0.8522448167559702  0.5565587162766903  1.0000
  O   O50       1.0  0.0665220857056994  0.3522455784285228  0.9434419745705399  1.0000
  O   O51       1.0  0.5665211526232028  0.1477544109812214  0.4434409105510825  1.0000
  O   O52       1.0  0.9334760481293004  0.6477544003909586  0.05655754289421112  1.0000
  O   O53       1.0  0.2771450243426585  0.8227415531771456  0.6592295498116272  1.0000
  O   O54       1.0  0.2228540425748449  0.3227408126851117  0.8407704831713545  1.0000
  O   O55       1.0  0.7228562205451114  0.17725917672462538  0.3407705890630268  1.0000
  O   O56       1.0  0.7771425357337733  0.6772591661343697  0.15922899783905112  1.0000
  O   O57       1.0  0.2760188232424383  0.9802998413380237  0.7782838688235288  1.0000
  O   O58       1.0  0.22398179920144662  0.4803013540928731  0.7217162006137984  1.0000
  O   O59       1.0  0.72398086611895  0.0197001374814505  0.2217156850955604  1.0000
  O   O60       1.0  0.7760210012126976  0.5197001268911947  0.27828342621397445  1.0000
