data_image0
_chemical_formula_structural       Ba4H52C60N4O20
_chemical_formula_sum              "Ba4 H52 C60 N4 O20"
_cell_length_a       7.075184084498596
_cell_length_b       14.512380684049722
_cell_length_c       15.14710991601847
_cell_angle_alpha    90.00017330895379
_cell_angle_beta     89.99995974261216
_cell_angle_gamma    89.99863635501774

_space_group_name_H-M_alt    "P 1"
_space_group_IT_number       1

loop_
  _space_group_symop_operation_xyz
  'x, y, z'

loop_
  _atom_site_type_symbol
  _atom_site_label
  _atom_site_symmetry_multiplicity
  _atom_site_fract_x
  _atom_site_fract_y
  _atom_site_fract_z
  _atom_site_occupancy
  Ba  Ba1       1.0  0.941847473499621  0.1923654765183755  0.4393816375723318  1.0000
  Ba  Ba2       1.0  0.5581374122082181  0.807635562876655  0.9393829189255738  1.0000
  Ba  Ba3       1.0  0.05815817035855281  0.692376856052604  0.060623115816831295  1.0000
  Ba  Ba4       1.0  0.44184484606899593  0.3076253229955412  0.5606234931221081  1.0000
  H   H1        1.0  0.9513660410085408  0.5016181577933168  0.5888336948323313  1.0000
  H   H2        1.0  0.5486632085669925  0.4983797031032964  0.08883276050518418  1.0000
  H   H3        1.0  0.048635437578731504  0.0016225367870105996  0.911168532876317  1.0000
  H   H4        1.0  0.4513656167763288  0.9983800642385886  0.41117089567678267  1.0000
  H   H5        1.0  0.8765959098400274  0.22177916661888727  0.7519904999200405  1.0000
  H   H6        1.0  0.6234175369179411  0.7782247240182655  0.2519896896928486  1.0000
  H   H7        1.0  0.1233947913829141  0.7217759147107046  0.7480031206429842  1.0000
  H   H8        1.0  0.3765980381213865  0.27822203482921987  0.24801135037739638  1.0000
  H   H9        1.0  0.8284566483694817  0.18288462905940864  0.9095076287777812  1.0000
  H   H10       1.0  0.6715410047164028  0.8171121811792758  0.40951021662199577  1.0000
  H   H11       1.0  0.1715345432253628  0.6828913459550633  0.5904865397124934  1.0000
  H   H12       1.0  0.3284684265375973  0.3171074824188481  0.0904929162807377  1.0000
  H   H13       1.0  0.7861952888885428  0.3088772659071707  0.0207712810993428  1.0000
  H   H14       1.0  0.7138029726071906  0.6911210685192655  0.5207721770888796  1.0000
  H   H15       1.0  0.213803238084914  0.8088840367670614  0.47922918728168173  1.0000
  H   H16       1.0  0.2861948830405866  0.1911153346534959  0.9792305976542792  1.0000
  H   H17       1.0  0.7871219730622485  0.47210629561057976  0.97282706246218  1.0000
  H   H18       1.0  0.7128671004512697  0.5278955388276145  0.47282682181020863  1.0000
  H   H19       1.0  0.21288615493218543  0.9721088881195714  0.5271791641947701  1.0000
  H   H20       1.0  0.2871183273218422  0.0278897395822781  0.027176136388987995  1.0000
  H   H21       1.0  0.8592282011843935  0.626293785716946  0.6948534540100011  1.0000
  H   H22       1.0  0.6407909886761162  0.373705789387003  0.1948481696119231  1.0000
  H   H23       1.0  0.14077282779404504  0.1262946953592632  0.8051511141775832  1.0000
  H   H24       1.0  0.3592283925410413  0.8737061915151896  0.30515248590071303  1.0000
  H   H25       1.0  0.890293089489994  0.9300280597801064  0.2609004775016572  1.0000
  H   H26       1.0  0.6097104495681122  0.06997654822275479  0.7609009335545522  1.0000
  H   H27       1.0  0.1097023337260836  0.43002843048831363  0.23908977753215044  1.0000
  H   H28       1.0  0.3902890962225385  0.5699743142743685  0.73909620994322  1.0000
  H   H29       1.0  0.8135975518675735  0.9056732263460887  0.128116047950094  1.0000
  H   H30       1.0  0.6864104354261755  0.09432200290918051  0.6281152297589898  1.0000
  H   H31       1.0  0.1864004768776653  0.40567795390529676  0.3718728163992537  1.0000
  H   H32       1.0  0.3135935720110865  0.5943252116902044  0.871880003449462  1.0000
  H   H33       1.0  0.9133810053443485  0.9871629507729336  0.0533553534906517  1.0000
  H   H34       1.0  0.586618618642632  0.012831352513607902  0.553353671289649  1.0000
  H   H35       1.0  0.0866116208841774  0.48716562458881185  0.4466383674411104  1.0000
  H   H36       1.0  0.41338089760388647  0.5128370889105227  0.9466439674473859  1.0000
  H   H37       1.0  0.6652036255422119  0.990137058806731  0.07729263650613659  1.0000
  H   H38       1.0  0.8348044413397419  0.0098566312284589  0.5772888869876311  1.0000
  H   H39       1.0  0.33480440246486143  0.4901367849852535  0.4227017531964137  1.0000
  H   H40       1.0  0.16519804722635462  0.5098658525902238  0.9227067625908274  1.0000
  H   H41       1.0  0.8470094962423502  0.17710353798737796  0.2208970470573135  1.0000
  H   H42       1.0  0.6529941056008183  0.82289405255802  0.7208970222106428  1.0000
  H   H43       1.0  0.1529827609378742  0.677110378291708  0.27910766226992206  1.0000
  H   H44       1.0  0.3470170866407827  0.32289593857351656  0.7791034921699803  1.0000
  H   H45       1.0  0.6970762137431876  0.15449253169728647  0.1287322615308781  1.0000
  H   H46       1.0  0.802916225169696  0.8455075230679086  0.6287309343623446  1.0000
  H   H47       1.0  0.3029086701929842  0.6544903495251687  0.371270401936215  1.0000
  H   H48       1.0  0.19708679310369348  0.34551005787192685  0.8712689851081163  1.0000
  H   H49       1.0  0.9485381892726821  0.15628262854628616  0.11482594133065048  1.0000
  H   H50       1.0  0.5514599249846696  0.8437166930494795  0.6148279891406145  1.0000
  H   H51       1.0  0.05145367391386909  0.656283400098026  0.3851773874991266  1.0000
  H   H52       1.0  0.4485460077390826  0.3437191185469929  0.8851725853514834  1.0000
  C   C1        1.0  0.9295264448627734  0.32286818342418394  0.6101913099728334  1.0000
  C   C2        1.0  0.5704787435532594  0.6771331906401342  0.1101922051683317  1.0000
  C   C3        1.0  0.0704677879564031  0.8228701277898337  0.8898065635680793  1.0000
  C   C4        1.0  0.4295262330135117  0.1771268930433151  0.38981316441548586  1.0000
  C   C5        1.0  0.7696136986767853  0.6157821647252747  0.8614053571720814  1.0000
  C   C6        1.0  0.73037978937829  0.3842206946810478  0.3614073370180506  1.0000
  C   C7        1.0  0.2303878449472734  0.115780131424188  0.6386024816264353  1.0000
  C   C8        1.0  0.2696065691805316  0.8842181604184772  0.1385999507689846  1.0000
  C   C9        1.0  0.9140288529691106  0.484884493833853  0.6568176025818457  1.0000
  C   C10       1.0  0.5859889830176002  0.5151156497975647  0.15681538442397164  1.0000
  C   C11       1.0  0.0859631022721459  0.9848840439164303  0.843184699809093  1.0000
  C   C12       1.0  0.4140295782523538  0.0151142072862882  0.3431868766919307  1.0000
  C   C13       1.0  0.9040384037917164  0.3932400821685392  0.6816730385226534  1.0000
  C   C14       1.0  0.595975153099147  0.6067608293345684  0.181672402159343  1.0000
  C   C15       1.0  0.09595521086465202  0.8932428831962014  0.8183283391257845  1.0000
  C   C16       1.0  0.4040360951403983  0.1067566673711369  0.3183327642787858  1.0000
  C   C17       1.0  0.8617530942620419  0.3692960857162362  0.7711613689619199  1.0000
  C   C18       1.0  0.63824477527389  0.6307044204380572  0.27116078840481345  1.0000
  C   C19       1.0  0.1382416925623602  0.8692974247560911  0.7288399395637626  1.0000
  C   C20       1.0  0.3617497534647072  0.1307039093846925  0.22884510735244845  1.0000
  C   C21       1.0  0.8572014047899046  0.2761997860453818  0.8005912719575077  1.0000
  C   C22       1.0  0.6427822847902077  0.7238001243985365  0.3005896383307345  1.0000
  C   C23       1.0  0.1427965259984418  0.7762009791204675  0.6994084474373422  1.0000
  C   C24       1.0  0.3572161670263299  0.22379750534838652  0.1994132252076497  1.0000
  C   C25       1.0  0.8303559144618546  0.25483005136262443  0.8884766576318908  1.0000
  C   C26       1.0  0.6696445983458407  0.745166003127764  0.3884737568482564  1.0000
  C   C27       1.0  0.16964023553966706  0.754836167802182  0.6115216796972476  1.0000
  C   C28       1.0  0.330362701316794  0.24516203817002244  0.11152520721316957  1.0000
  C   C29       1.0  0.8055971719459409  0.3259350991043918  0.9512002807446862  1.0000
  C   C30       1.0  0.6943990024239712  0.674064599547286  0.4511998076750956  1.0000
  C   C31       1.0  0.1943954972377995  0.8259414193516434  0.5488009026159588  1.0000
  C   C32       1.0  0.30560895122064835  0.1740552096834094  0.04880093170189069  1.0000
  C   C33       1.0  0.804845866462344  0.4170021325176804  0.9248277245656595  1.0000
  C   C34       1.0  0.6951616562988292  0.5829981715455899  0.4248250077944745  1.0000
  C   C35       1.0  0.1951494116943735  0.9170071495123507  0.5751757022567786  1.0000
  C   C36       1.0  0.3048451017262437  0.08299025224390277  0.0751781094661155  1.0000
  C   C37       1.0  0.8317068213817224  0.441823399216929  0.8346752447217298  1.0000
  C   C38       1.0  0.6683008424584358  0.5581779972469288  0.33467246475800033  1.0000
  C   C39       1.0  0.1682900685637776  0.9418248783481927  0.6653308945160672  1.0000
  C   C40       1.0  0.3317014768746133  0.05817625449888201  0.16533256143827657  1.0000
  C   C41       1.0  0.8260693686846992  0.5352801380913093  0.8041771532790776  1.0000
  C   C42       1.0  0.6739341027183698  0.46472116173999467  0.30417740271357724  1.0000
  C   C43       1.0  0.17393470228552127  0.03528169567051259  0.6958264919828847  1.0000
  C   C44       1.0  0.3260723427372554  0.9647188446685246  0.19582483592017746  1.0000
  C   C45       1.0  0.8668862707075106  0.5548485719307193  0.7167050429642214  1.0000
  C   C46       1.0  0.6331229912117067  0.445151072492301  0.2167026079920547  1.0000
  C   C47       1.0  0.13311118877942357  0.05484950094842131  0.7832993189791039  1.0000
  C   C48       1.0  0.36688299884124825  0.9451499385714469  0.28329825376551543  1.0000
  C   C49       1.0  0.8847313988167615  0.0061011122554149  0.258607618550819  1.0000
  C   C50       1.0  0.6152848643657619  0.9939027993368512  0.7586061186566581  1.0000
  C   C51       1.0  0.1152748831529777  0.5061027568961409  0.24139065539701923  1.0000
  C   C52       1.0  0.3847264369170986  0.49390068415990385  0.7413915884188496  1.0000
  C   C53       1.0  0.806387527310676  0.9771508218999827  0.1051408122767938  1.0000
  C   C54       1.0  0.6936204959149704  0.022845712663667004  0.6051358243270428  1.0000
  C   C55       1.0  0.1936126560780949  0.4771500263167283  0.3948568408978872  1.0000
  C   C56       1.0  0.30638418370421056  0.5228497667671803  0.8948592025479697  1.0000
  C   C57       1.0  0.8328893265320403  0.1374780464753158  0.15988601341588543  1.0000
  C   C58       1.0  0.6671087171621012  0.8625227960662087  0.6598860985172763  1.0000
  C   C59       1.0  0.1670978036533768  0.6374780261224087  0.3401166009373142  1.0000
  C   C60       1.0  0.33289912174800657  0.36252434972580255  0.8401145302618858  1.0000
  N   N1        1.0  0.839889414422906  0.0392288214155698  0.17866437026807347  1.0000
  N   N2        1.0  0.6601156668175321  0.9607727696639967  0.6786614402355794  1.0000
  N   N3        1.0  0.16011100574469592  0.5392274443283539  0.32133465949986123  1.0000
  N   N4        1.0  0.339890189259755  0.4607734938370243  0.8213348508226942  1.0000
  O   O1        1.0  0.8090562728899898  0.25747367384521874  0.6044297394235514  1.0000
  O   O2        1.0  0.6909545781406834  0.7425263037930777  0.10443144564858638  1.0000
  O   O3        1.0  0.1909439879198374  0.7574776878052489  0.8955712463011949  1.0000
  O   O4        1.0  0.3090429570768265  0.2425193513315946  0.3955727923254812  1.0000
  O   O5        1.0  0.06425119680270801  0.3342206552821736  0.5555368120052078  1.0000
  O   O6        1.0  0.43575324106056706  0.6657780623045966  0.0555382195877314  1.0000
  O   O7        1.0  0.9357325865840807  0.8342210295535748  0.944457133155204  1.0000
  O   O8        1.0  0.5642607716040757  0.16577658055332722  0.4444638162624058  1.0000
  O   O9        1.0  0.8230241959927583  0.6184080166513654  0.9417262855057371  1.0000
  O   O10       1.0  0.6769649262158524  0.38159303015356727  0.4417295949730543  1.0000
  O   O11       1.0  0.1769913530425171  0.1184042795040767  0.5582749589488357  1.0000
  O   O12       1.0  0.322973505768168  0.8815875563082471  0.05826778235263669  1.0000
  O   O13       1.0  0.6695865527559803  0.6774348709540732  0.8242043058397144  1.0000
  O   O14       1.0  0.8303985133000965  0.32256304713089895  0.3242087169716825  1.0000
  O   O15       1.0  0.3304063192239682  0.1774324872537747  0.6758037109359449  1.0000
  O   O16       1.0  0.1695965169277898  0.8225693677943867  0.17580961609933604  1.0000
  O   O17       1.0  0.9199123034171991  0.05376790061760061  0.3252441560705179  1.0000
  O   O18       1.0  0.580089721692673  0.9462307097138732  0.8252372481118826  1.0000
  O   O19       1.0  0.0800831645611524  0.5537780100115627  0.17475887683723093  1.0000
  O   O20       1.0  0.4199126061105574  0.4462307324197496  0.6747557000068269  1.0000
