data_image0
_chemical_formula_structural       Al2H14C28O12F2
_chemical_formula_sum              "Al2 H14 C28 O12 F2"
_cell_length_a       6.653325371232993
_cell_length_b       11.127311524213797
_cell_length_c       17.689108558999436
_cell_angle_alpha    85.26064905696686
_cell_angle_beta     82.0552563147536
_cell_angle_gamma    71.66621168249439

_space_group_name_H-M_alt    "P 1"
_space_group_IT_number       1

loop_
  _space_group_symop_operation_xyz
  'x, y, z'

loop_
  _atom_site_type_symbol
  _atom_site_label
  _atom_site_symmetry_multiplicity
  _atom_site_fract_x
  _atom_site_fract_y
  _atom_site_fract_z
  _atom_site_occupancy
  Al  Al1       1.0  0.49245705093341763  0.5052362984951627  0.5023021526358917  1.0000
  Al  Al2       1.0  0.9906973867869411  0.5063110244930797  0.5023296743177781  1.0000
  H   H1        1.0  0.2913529713898271  0.3653795698824069  0.560417833865948  1.0000
  H   H2        1.0  0.6722364392472144  0.6618980260076769  0.47341242884894535  1.0000
  H   H3        1.0  0.6688018967342514  0.44186849876400913  0.2813343590533606  1.0000
  H   H4        1.0  0.7588797083466333  0.4253787971663599  0.1399984161841132  1.0000
  H   H5        1.0  0.08452549157817661  0.5601424441281537  0.11578705555282198  1.0000
  H   H6        1.0  0.9068504163463016  0.44682350339132165  0.8880955450591586  1.0000
  H   H7        1.0  0.322169478640923  0.5364220799374949  0.7247098478750474  1.0000
  H   H8        1.0  0.23489802486285066  0.5366984456365955  0.8663724611920786  1.0000
  H   H9        1.0  0.23458579798320056  0.23596239433454258  0.3962910054406734  1.0000
  H   H10       1.0  0.4417789944802378  0.7657347289734562  0.3998101272758561  1.0000
  H   H11       1.0  0.7552208510987911  0.8931973595418295  0.5502118344082022  1.0000
  H   H12       1.0  0.6410397410241017  0.12997183116708297  0.5412801448241211  1.0000
  H   H13       1.0  0.5455036717169081  0.21199440831808403  0.3177973575278372  1.0000
  H   H14       1.0  0.7392542123424447  0.777986670040818  0.321836019524973  1.0000
  C   C1        1.0  0.8629250560047768  0.279549005842199  0.4862216424474823  1.0000
  C   C2        1.0  0.6980035960157737  0.4981242910999058  0.6410047461472956  1.0000
  C   C3        1.0  0.12723615879797023  0.7340905117492866  0.5020642807599245  1.0000
  C   C4        1.0  0.2871377283086148  0.5084784844630548  0.363390516035146  1.0000
  C   C5        1.0  0.33048184194116453  0.5022239290908459  0.2785207390974378  1.0000
  C   C6        1.0  0.5432494390598848  0.46401171933343477  0.2440560812612489  1.0000
  C   C7        1.0  0.5932648420193161  0.45643769440746257  0.1655317300586532  1.0000
  C   C8        1.0  0.42890347922098476  0.4907040344247092  0.1177374104271394  1.0000
  C   C9        1.0  0.21480391011942157  0.5306817506523558  0.1511064014108499  1.0000
  C   C10       1.0  0.17017808596894213  0.5349244582028804  0.22983537809298582  1.0000
  C   C11       1.0  0.4768776791413599  0.4885805881156531  0.03740238166557929  1.0000
  C   C12       1.0  0.5176073980119825  0.4899100745699131  0.9679826390096125  1.0000
  C   C13       1.0  0.5638572461426037  0.4925071611832053  0.8875137584699502  1.0000
  C   C14       1.0  0.776023302109209  0.46862633135442894  0.8533124664783784  1.0000
  C   C15       1.0  0.8187301525736643  0.4715300187668846  0.7743460889241263  1.0000
  C   C16       1.0  0.6580105304517475  0.49651482854853424  0.726217589882026  1.0000
  C   C17       1.0  0.4474586718396268  0.5190045150789545  0.7615559891716401  1.0000
  C   C18       1.0  0.3992434477726192  0.5183123818606034  0.8402887392364705  1.0000
  C   C19       1.0  0.9368900244156463  0.13961514300561356  0.4799973257232608  1.0000
  C   C20       1.0  0.14086367791144033  0.07185674526127171  0.4422725425853073  1.0000
  C   C21       1.0  0.7979748714528088  0.07551126650583478  0.515185533639638  1.0000
  C   C22       1.0  0.2792601125717837  0.13280222635034997  0.3985668965550317  1.0000
  C   C23       1.0  0.46807743780115624  0.06525141429165869  0.358030292205278  1.0000
  C   C24       1.0  0.06304184358704394  0.873668168361128  0.48806818300128896  1.0000
  C   C25       1.0  0.861178351188251  0.9431436478454813  0.5198197125048621  1.0000
  C   C26       1.0  0.20367308078751026  0.9353935041518114  0.4451429514734997  1.0000
  C   C27       1.0  0.3974649509415116  0.8684707026903881  0.4020347821414775  1.0000
  C   C28       1.0  0.5282299887004456  0.9299854395921373  0.3593511431454459  1.0000
  O   O1        1.0  0.6643309908805077  0.33565945745429093  0.484144931624769  1.0000
  O   O2        1.0  0.8750452293627404  0.5090557550782862  0.6089994206247907  1.0000
  O   O3        1.0  0.9844743538676826  0.6796437333656583  0.5023307519347071  1.0000
  O   O4        1.0  0.4370342573981106  0.5208993130914197  0.3966670685767753  1.0000
  O   O5        1.0  0.319755234660427  0.6774800053855046  0.5138655681820765  1.0000
  O   O6        1.0  0.10862752094028846  0.5001251328647812  0.3953025036990283  1.0000
  O   O7        1.0  0.9985716654897916  0.33433978444949014  0.49627873895337865  1.0000
  O   O8        1.0  0.5469497670004415  0.4882088351445758  0.6071292520017266  1.0000
  O   O9        1.0  0.26079177328320924  0.44669675695050864  0.5328347435827681  1.0000
  O   O10       1.0  0.7191373920734778  0.5699670145557859  0.47180308503474316  1.0000
  O   O11       1.0  0.603516105686815  0.12021037479891562  0.3142362990131744  1.0000
  O   O12       1.0  0.7139079539226145  0.8694600490166878  0.3164442968608228  1.0000
  F   F1        1.0  0.9607182688640279  0.5772532280944347  0.2588832827336631  1.0000
  F   F2        1.0  0.02682086822505891  0.44521646729430125  0.7448589375355043  1.0000
