data_image0
_chemical_formula_structural       Zn4P4H28C16N8O12
_chemical_formula_sum              "Zn4 P4 H28 C16 N8 O12"
_cell_length_a       5.212131469237449
_cell_length_b       9.57039793883129
_cell_length_c       14.724577486994841
_cell_angle_alpha    90.00118369591422
_cell_angle_beta     89.999547934749
_cell_angle_gamma    90.00099939761527

_space_group_name_H-M_alt    "P 1"
_space_group_IT_number       1

loop_
  _space_group_symop_operation_xyz
  'x, y, z'

loop_
  _atom_site_type_symbol
  _atom_site_label
  _atom_site_symmetry_multiplicity
  _atom_site_fract_x
  _atom_site_fract_y
  _atom_site_fract_z
  _atom_site_occupancy
  Zn  Zn1       1.0  0.4352802644660089  0.6086197228438691  0.926887950435777  1.0000
  Zn  Zn2       1.0  0.064764036341721  0.39137751618874  0.42687998630473345  1.0000
  Zn  Zn3       1.0  0.5647833589059063  0.10864280144819818  0.5731215450676502  1.0000
  Zn  Zn4       1.0  0.9352287561396577  0.8913637503367937  0.0731297067605894  1.0000
  P   P1        1.0  0.43974687771321186  0.7335954719212265  0.1279619489195767  1.0000
  P   P2        1.0  0.06025816585410131  0.2663942734330859  0.627951821306148  1.0000
  P   P3        1.0  0.5602583746256756  0.2335967423426054  0.37204971861159924  1.0000
  P   P4        1.0  0.9397891601186855  0.7663995400710346  0.8720604535733543  1.0000
  H   H1        1.0  0.3494900055080521  0.6784189191738432  0.21098001036236985  1.0000
  H   H2        1.0  0.15050110819623805  0.3215766222281856  0.7109690843465941  1.0000
  H   H3        1.0  0.6504905428353069  0.17844454917194236  0.2890234523250257  1.0000
  H   H4        1.0  0.8495862709812416  0.8215522062647477  0.7890303421678909  1.0000
  H   H5        1.0  0.630173687515928  0.0868771441634237  0.7744242267717852  1.0000
  H   H6        1.0  0.8697922724854125  0.9131212327631599  0.2744497831962605  1.0000
  H   H7        1.0  0.3698202037307894  0.586882486196025  0.7255652842749356  1.0000
  H   H8        1.0  0.13020693887293788  0.41313442070824635  0.22555204986154115  1.0000
  H   H9        1.0  0.3135402124780953  0.0168460309142873  0.7709767695266478  1.0000
  H   H10       1.0  0.18640310684284603  0.9831441196157725  0.2709757685295244  1.0000
  H   H11       1.0  0.6864457890315948  0.5168525477963397  0.7290158840801129  1.0000
  H   H12       1.0  0.8135464359023103  0.48315586707588654  0.22902767586910505  1.0000
  H   H13       1.0  0.5123551357575238  0.9850549207222697  0.868009914364393  1.0000
  H   H14       1.0  0.9876196100902205  0.014949590783572799  0.3680117406275017  1.0000
  H   H15       1.0  0.4876240277522895  0.485057175813523  0.6319855764748751  1.0000
  H   H16       1.0  0.012342526971949  0.5149609103868115  0.1319786796434883  1.0000
  H   H17       1.0  0.6675395406177104  0.3318386703254176  0.8233379206701841  1.0000
  H   H18       1.0  0.8323981344288357  0.6681664987625168  0.3233473848979004  1.0000
  H   H19       1.0  0.33242536144237533  0.8318431167037516  0.6766473808970943  1.0000
  H   H20       1.0  0.1675878571593117  0.16818162622622876  0.1766559412310258  1.0000
  H   H21       1.0  0.9699598853835172  0.39700479999346067  0.9626887495157491  1.0000
  H   H22       1.0  0.5299909977457844  0.6030017019069759  0.4626972524793872  1.0000
  H   H23       1.0  0.030018513704177997  0.896993407392713  0.5372967403075037  1.0000
  H   H24       1.0  0.4700160308943637  0.10298298293014338  0.0373072433204271  1.0000
  H   H25       1.0  0.007010553657060801  0.11457205005336848  0.9111481223784352  1.0000
  H   H26       1.0  0.4929708917705042  0.8854403577155164  0.41116016819851353  1.0000
  H   H27       1.0  0.992976506848983  0.6145656328783033  0.5888444738260715  1.0000
  H   H28       1.0  0.5070274755911798  0.38542052501443186  0.0888440126907213  1.0000
  C   C1        1.0  0.4613818644017087  0.06079026876173538  0.8152776807520895  1.0000
  C   C2        1.0  0.0385927804106529  0.9391971227974661  0.3152886053402284  1.0000
  C   C3        1.0  0.5386150691488113  0.5607959825036983  0.6847128412911019  1.0000
  C   C4        1.0  0.9613899581835171  0.43922041601321393  0.1847176497506666  1.0000
  C   C5        1.0  0.4828849872476653  0.3142433801000664  0.8551005235333164  1.0000
  C   C6        1.0  0.017059718250926895  0.6857379739286527  0.3551216984220247  1.0000
  C   C7        1.0  0.5170812975682395  0.8142632759914006  0.6448804690818548  1.0000
  C   C8        1.0  0.9829248899123257  0.18573617214504878  0.14488050323903684  1.0000
  C   C9        1.0  0.1204261077132003  0.3412384737013524  0.9272314768440993  1.0000
  C   C10       1.0  0.3795433579172709  0.6587828085227085  0.4272305377694608  1.0000
  C   C11       1.0  0.8795621036326082  0.8412314561058166  0.5727654950801125  1.0000
  C   C12       1.0  0.6204692077623264  0.15877403948832836  0.0727747006660806  1.0000
  C   C13       1.0  0.1337548252223328  0.2033734271677403  0.9012067095917049  1.0000
  C   C14       1.0  0.366209642384689  0.7966386618130341  0.4012191768845028  1.0000
  C   C15       1.0  0.8662426154771552  0.7033556172028594  0.598778239901286  1.0000
  C   C16       1.0  0.6337706706101756  0.2966381735295514  0.0987845011327408  1.0000
  N   N1        1.0  0.3395893461353694  0.409252989236343  0.8981089802788562  1.0000
  N   N2        1.0  0.1603943974532811  0.5907433272290916  0.39812317996600655  1.0000
  N   N3        1.0  0.6604143682499456  0.9092551708207776  0.6018719187053777  1.0000
  N   N4        1.0  0.8396007463534972  0.0907418537814308  0.1018791153630332  1.0000
  N   N5        1.0  0.3641139984141404  0.18887079240302274  0.8557959190360478  1.0000
  N   N6        1.0  0.13584219877058962  0.8111178979478451  0.3558015546420989  1.0000
  N   N7        1.0  0.6358484657902325  0.6888814005027297  0.6442030994858428  1.0000
  N   N8        1.0  0.864178846145208  0.31112534024143196  0.1442029952770838  1.0000
  O   O1        1.0  0.3821612315204774  0.6174181305858113  0.05858470758661841  1.0000
  O   O2        1.0  0.11790722810458482  0.3825641665419468  0.5585780523927113  1.0000
  O   O3        1.0  0.6178596666341251  0.11739816626548111  0.4414165844241467  1.0000
  O   O4        1.0  0.8821263704971116  0.8825836215270683  0.94143237339987  1.0000
  O   O5        1.0  0.29486417812710636  0.8708217630802864  0.10918894941396223  1.0000
  O   O6        1.0  0.20514908665514037  0.12916947033733087  0.6091841850619844  1.0000
  O   O7        1.0  0.7050934538019861  0.37084806584521585  0.3908204703077375  1.0000
  O   O8        1.0  0.7949343482946672  0.6291509078825467  0.8908228671629743  1.0000
  O   O9        1.0  0.7274239808321568  0.7599513414584533  0.14391136978746033  1.0000
  O   O10       1.0  0.7725726421891181  0.2400459854029435  0.6438875767911654  1.0000
  O   O11       1.0  0.2725878303553202  0.25994192058620763  0.3560918197472063  1.0000
  O   O12       1.0  0.2274681253799002  0.7400655881415331  0.8561223100238848  1.0000
