data_image0
_chemical_formula_structural       Zn24H144C144N96
_chemical_formula_sum              "Zn24 H144 C144 N96"
_cell_length_a       16.524847691034214
_cell_length_b       27.2557182048559
_cell_length_c       27.255521310970824
_cell_angle_alpha    120.00037739784165
_cell_angle_beta     90.00022580712763
_cell_angle_gamma    89.99991878500569

_space_group_name_H-M_alt    "P 1"
_space_group_IT_number       1

loop_
  _space_group_symop_operation_xyz
  'x, y, z'

loop_
  _atom_site_type_symbol
  _atom_site_label
  _atom_site_symmetry_multiplicity
  _atom_site_fract_x
  _atom_site_fract_y
  _atom_site_fract_z
  _atom_site_occupancy
  Zn  Zn1       1.0  0.3135804372967925  0.46035132470059625  0.3352355142518134  1.0000
  Zn  Zn2       1.0  0.31358364101077285  0.8748773279371702  0.5396414966826126  1.0000
  Zn  Zn3       1.0  0.3135807446149883  0.6647596282013523  0.12511673680349836  1.0000
  Zn  Zn4       1.0  0.31358079165305947  0.5396488921553908  0.6647663987604414  1.0000
  Zn  Zn5       1.0  0.31357819307587675  0.1251187547227984  0.4603550111458927  1.0000
  Zn  Zn6       1.0  0.3135798791905628  0.3352410538704475  0.8748869123946147  1.0000
  Zn  Zn7       1.0  0.18641720290339947  0.5396421570159119  0.8748798455764938  1.0000
  Zn  Zn8       1.0  0.18642184792597757  0.12511632683538199  0.6647610328799513  1.0000
  Zn  Zn9       1.0  0.18641914117942798  0.3352394906725848  0.46035629597493244  1.0000
  Zn  Zn10      1.0  0.1864179300636977  0.46035831252800813  0.12512288636888505  1.0000
  Zn  Zn11      1.0  0.18641933651961298  0.8748810108898935  0.3352360253014195  1.0000
  Zn  Zn12      1.0  0.18641780723281443  0.6647616143498636  0.5396458004855585  1.0000
  Zn  Zn13      1.0  0.6864156954920304  0.5396457878102436  0.664762011813991  1.0000
  Zn  Zn14      1.0  0.6864173329735195  0.12511899402466034  0.46035608614804585  1.0000
  Zn  Zn15      1.0  0.6864178087821956  0.33524030598609017  0.8748853055798161  1.0000
  Zn  Zn16      1.0  0.6864177617452896  0.4603529332762193  0.335236687563828  1.0000
  Zn  Zn17      1.0  0.6864191500042054  0.8748800523966407  0.5396408202887168  1.0000
  Zn  Zn18      1.0  0.6864204896521005  0.6647583583474059  0.12511418436243807  1.0000
  Zn  Zn19      1.0  0.8135849813866614  0.4603530490619362  0.12511958695927206  1.0000
  Zn  Zn20      1.0  0.8135827569459478  0.8748845833559074  0.3352356306761805  1.0000
  Zn  Zn21      1.0  0.8135782019222403  0.6647645929009369  0.5396482011884627  1.0000
  Zn  Zn22      1.0  0.8135824387733805  0.5396456311644114  0.8748780816667928  1.0000
  Zn  Zn23      1.0  0.8135786117276068  0.12511529588106632  0.6647645079280762  1.0000
  Zn  Zn24      1.0  0.8135813513100841  0.335235906623545  0.4603542523289334  1.0000
  H   H1        1.0  0.2799671776885972  0.3406296669576462  0.21645375946467016  1.0000
  H   H2        1.0  0.27996495212970973  0.875819925273937  0.6593683521746025  1.0000
  H   H3        1.0  0.27997061388600025  0.7835423915600899  0.12417438031115308  1.0000
  H   H4        1.0  0.2799655950244428  0.6593721989383707  0.7835522702350273  1.0000
  H   H5        1.0  0.2799738720572337  0.1241798679336269  0.3406309446155829  1.0000
  H   H6        1.0  0.2799754720867043  0.2164598300534806  0.8758239556554698  1.0000
  H   H7        1.0  0.22003129730855872  0.659371486839511  0.8758242274217377  1.0000
  H   H8        1.0  0.2200425071369736  0.1241837914650929  0.7835512193405091  1.0000
  H   H9        1.0  0.2200361491880685  0.21645163806380904  0.3406290863883611  1.0000
  H   H10       1.0  0.2200310816126745  0.3406285174858965  0.12417980822368689  1.0000
  H   H11       1.0  0.2200362107963301  0.8758168219684633  0.21644707059163434  1.0000
  H   H12       1.0  0.2200377275539296  0.7835471824424044  0.6593695288832674  1.0000
  H   H13       1.0  0.7200307705573721  0.6593739514000699  0.7835490015128667  1.0000
  H   H14       1.0  0.7200378373015682  0.12417660851434674  0.3406290188293751  1.0000
  H   H15       1.0  0.7200279394930149  0.21645525811149455  0.8758211409836956  1.0000
  H   H16       1.0  0.7200311429212575  0.34062532203449075  0.21644778257624603  1.0000
  H   H17       1.0  0.7200373894711446  0.8758253315272951  0.6593717028628486  1.0000
  H   H18       1.0  0.7200303431033248  0.7835446771740351  0.12418011786100873  1.0000
  H   H19       1.0  0.7799714921307199  0.3406269797567986  0.12417634736806343  1.0000
  H   H20       1.0  0.7799663338117996  0.875816804576466  0.2164552978169282  1.0000
  H   H21       1.0  0.7799702711436752  0.7835524607019547  0.6593724603842613  1.0000
  H   H22       1.0  0.7799662614815759  0.6593745789016763  0.8758220071243625  1.0000
  H   H23       1.0  0.7799623425790118  0.12418167500728562  0.7835476033868074  1.0000
  H   H24       1.0  0.7799705082301286  0.21645049360503774  0.3406311026721978  1.0000
  H   H25       1.0  0.2500019289614741  0.5093648479930194  0.2546815922916251  1.0000
  H   H26       1.0  0.24999696503497404  0.7453162885844336  0.49063332189646036  1.0000
  H   H27       1.0  0.24999923891265743  0.7453176732742575  0.2546819496547953  1.0000
  H   H28       1.0  0.24999867258519265  0.4906370347438197  0.7453184568287125  1.0000
  H   H29       1.0  0.2499957695709725  0.25468501542657396  0.5093665721427241  1.0000
  H   H30       1.0  0.24999531113826384  0.25468484493934074  0.7453174639701882  1.0000
  H   H31       1.0  0.7499996501701177  0.49063841865768826  0.745317851388094  1.0000
  H   H32       1.0  0.7499997729081471  0.25468128914248916  0.5093659403568152  1.0000
  H   H33       1.0  0.7499987093233075  0.2546850146515707  0.7453173389494051  1.0000
  H   H34       1.0  0.7499986705120565  0.5093615869232478  0.254682696682728  1.0000
  H   H35       1.0  0.7499985477784463  0.7453182360323041  0.4906358219301906  1.0000
  H   H36       1.0  0.7499965856130405  0.7453126760324267  0.2546825888346403  1.0000
  H   H37       1.0  0.2890747711448824  0.5785557045162477  0.33200532888300655  1.0000
  H   H38       1.0  0.28907425125568403  0.753442582540437  0.42143694125912384  1.0000
  H   H39       1.0  0.2890792379172425  0.6679964262663631  0.2465574052077527  1.0000
  H   H40       1.0  0.28907723150697245  0.42144376747179274  0.6679957850951934  1.0000
  H   H41       1.0  0.28906685869262116  0.2465595448657396  0.5785600496393782  1.0000
  H   H42       1.0  0.28908244713507963  0.3320041312277267  0.7534477598855527  1.0000
  H   H43       1.0  0.21092852328614953  0.42143689612849733  0.7534406986858141  1.0000
  H   H44       1.0  0.21092118893798067  0.24655335253370222  0.6679969069408143  1.0000
  H   H45       1.0  0.2109286732862827  0.33200644514106137  0.5785558273918097  1.0000
  H   H46       1.0  0.21092551836355264  0.5785609594493052  0.24656032076640588  1.0000
  H   H47       1.0  0.21092014456826996  0.7534490912698643  0.3320031932151221  1.0000
  H   H48       1.0  0.21092657866226722  0.6679935135072269  0.4214460241738747  1.0000
  H   H49       1.0  0.7109255976991095  0.4214450202217107  0.6679966567443142  1.0000
  H   H50       1.0  0.710930958770618  0.24655553234859423  0.5785603162312467  1.0000
  H   H51       1.0  0.710917500043216  0.3320063295967227  0.7534491534874301  1.0000
  H   H52       1.0  0.7109334248744403  0.5785533298521344  0.3320046913928038  1.0000
  H   H53       1.0  0.7109262483399519  0.7534446825953365  0.42143696559668314  1.0000
  H   H54       1.0  0.7109227629102293  0.6679933745568504  0.2465552433398485  1.0000
  H   H55       1.0  0.7890766867372392  0.5785564906501148  0.24655394895218297  1.0000
  H   H56       1.0  0.7890785747483803  0.7534525391568037  0.3320043144770181  1.0000
  H   H57       1.0  0.7890759316011398  0.6679941245258687  0.4214455795122587  1.0000
  H   H58       1.0  0.7890675886959356  0.4214419099210786  0.7534446568079641  1.0000
  H   H59       1.0  0.7890778036691158  0.24654570634514522  0.6679937125703501  1.0000
  H   H60       1.0  0.7890743953462831  0.3320047676363058  0.5785598726903414  1.0000
  H   H61       1.0  0.2500007367130408  0.5390880658989232  0.4609064648633632  1.0000
  H   H62       1.0  0.2500057460025289  0.9218146812926091  0.4609098787810451  1.0000
  H   H63       1.0  0.250001332612662  0.5390917541973079  0.07818849775422611  1.0000
  H   H64       1.0  0.25000228544090664  0.46091148675202465  0.5390959143803113  1.0000
  H   H65       1.0  0.2500045379341742  0.07818583217225221  0.5390900720399043  1.0000
  H   H66       1.0  0.24999684835172797  0.46090884239255553  0.921815772740359  1.0000
  H   H67       1.0  0.7500026578685349  0.4609049955451282  0.5390899757172958  1.0000
  H   H68       1.0  0.7499909919400025  0.07818195081222963  0.5390888615017528  1.0000
  H   H69       1.0  0.7500026671296354  0.4609121743057399  0.9218154206891422  1.0000
  H   H70       1.0  0.7499980834151786  0.5390918478359409  0.4609107993903975  1.0000
  H   H71       1.0  0.7499994617949497  0.9218162770308779  0.4609090615016596  1.0000
  H   H72       1.0  0.7500047307892785  0.5390884667553664  0.07818449190645534  1.0000
  H   H73       1.0  0.2734245102032702  0.3342525003214121  0.27904693058668767  1.0000
  H   H74       1.0  0.2734395687663421  0.9447869816284181  0.6657354517957257  1.0000
  H   H75       1.0  0.2734203295987995  0.7209464567792523  0.05521058473208026  1.0000
  H   H76       1.0  0.2734309861451436  0.6657426449477482  0.7209540586260842  1.0000
  H   H77       1.0  0.2734292408383964  0.055208209214335065  0.3342566862261903  1.0000
  H   H78       1.0  0.2734200380149617  0.2790562118992951  0.9447924203794994  1.0000
  H   H79       1.0  0.2265689376798932  0.6657345629905291  0.9447888940745697  1.0000
  H   H80       1.0  0.22657678855379257  0.05520823085753061  0.7209488170575111  1.0000
  H   H81       1.0  0.22657530075387908  0.27904848621092526  0.3342656116164304  1.0000
  H   H82       1.0  0.22656648154695347  0.3342640334502462  0.055212900814780065  1.0000
  H   H83       1.0  0.22657194394238186  0.9447868668682131  0.2790469371777105  1.0000
  H   H84       1.0  0.22657343177371558  0.7209533971248587  0.6657424357915996  1.0000
  H   H85       1.0  0.7265667814031573  0.6657385979314866  0.7209522069977577  1.0000
  H   H86       1.0  0.726557169154937  0.05520915888681084  0.33425644205267685  1.0000
  H   H87       1.0  0.7265812495413826  0.2790478036763772  0.9447883258324051  1.0000
  H   H88       1.0  0.7265705929953725  0.33426234268495136  0.27904880066855486  1.0000
  H   H89       1.0  0.7265681022399377  0.9447818187262553  0.6657354498612231  1.0000
  H   H90       1.0  0.7265773050668684  0.7209513743989929  0.05520710640230665  1.0000
  H   H91       1.0  0.773439903256133  0.3342597957846607  0.05521138578645691  1.0000
  H   H92       1.0  0.7734205545210384  0.9447880079757524  0.27904444607857926  1.0000
  H   H93       1.0  0.7734262784095591  0.7209512057707668  0.665742543405727  1.0000
  H   H94       1.0  0.773430861532546  0.6657397703596999  0.9447845380851231  1.0000
  H   H95       1.0  0.7734211631163602  0.05520375097895421  0.7209534146253417  1.0000
  H   H96       1.0  0.7734233061680625  0.27904881039455626  0.3342580670271855  1.0000
  H   H97       1.0  0.2499995987766681  0.4526345694581123  0.45263236539442875  1.0000
  H   H98       1.0  0.24999503951497812  0.9999969220205072  0.547361840626031  1.0000
  H   H99       1.0  0.2500042605459143  0.5473627197311399  0.9999981799011902  1.0000
  H   H100      1.0  0.24999858217397267  0.5473692045223472  0.5473687276636452  1.0000
  H   H101      1.0  0.249993459031785  2.7745156642145343e-06  0.45263305667661047  1.0000
  H   H102      1.0  0.24999936675717285  0.45263741164400517  4.35441398139804e-06  1.0000
  H   H103      1.0  0.7499995597548973  0.5473666508759009  0.5473654556122296  1.0000
  H   H104      1.0  0.7500059344522326  2.2671879662708907e-06  0.452631407310342  1.0000
  H   H105      1.0  0.7499942928541896  0.45263600025411677  4.342898741066749e-06  1.0000
  H   H106      1.0  0.749998155774982  0.4526318871128082  0.4526336248586275  1.0000
  H   H107      1.0  0.7499941333517909  2.0971490214989423e-06  0.5473692279838429  1.0000
  H   H108      1.0  0.7499979763234066  0.5473656016158441  0.9999931412443384  1.0000
  H   H109      1.0  0.41665903985046526  0.35450320038045646  0.26325915147478424  1.0000
  H   H110      1.0  0.4166626506781697  0.908753391788977  0.6454995612912096  1.0000
  H   H111      1.0  0.41665866035578597  0.7367382076229773  0.09124147205194777  1.0000
  H   H112      1.0  0.41665840086601247  0.6455005353936439  0.7367439663689903  1.0000
  H   H113      1.0  0.41665842093251376  0.09124692839563402  0.3545018355752843  1.0000
  H   H114      1.0  0.4166581752114738  0.2632622676326547  0.9087605035377988  1.0000
  H   H115      1.0  0.08334150469200809  0.6455006003056166  0.9087607739734475  1.0000
  H   H116      1.0  0.0833391688887488  0.09124884456170433  0.7367403761607388  1.0000
  H   H117      1.0  0.083339569894477  0.2632544852354427  0.3545020618067765  1.0000
  H   H118      1.0  0.0833422576995204  0.35450198248992126  0.09124172512483843  1.0000
  H   H119      1.0  0.08333793684298742  0.908755081132824  0.26325711099323706  1.0000
  H   H120      1.0  0.083337535857261  0.7367394166976595  0.6454981112223377  1.0000
  H   H121      1.0  0.5833383032425344  0.6455012652812825  0.7367427621855495  1.0000
  H   H122      1.0  0.5833371130116091  0.09124360721456529  0.35449954589541477  1.0000
  H   H123      1.0  0.5833374724479512  0.26326356105402465  0.9087624048270865  1.0000
  H   H124      1.0  0.5833389422278258  0.3545010366477895  0.2632571719378943  1.0000
  H   H125      1.0  0.5833413427590131  0.908758849786757  0.6455009669585292  1.0000
  H   H126      1.0  0.5833373524278754  0.7367354236021056  0.09123717759788956  1.0000
  H   H127      1.0  0.9166637053542955  0.3544993754471975  0.09124342826359569  1.0000
  H   H128      1.0  0.916658779348637  0.908757837678493  0.26326078849626783  1.0000
  H   H129      1.0  0.916658983504206  0.736740240435445  0.6454985849403553  1.0000
  H   H130      1.0  0.9166611368693864  0.6454994081072268  0.9087537242134824  1.0000
  H   H131      1.0  0.9166594062359223  0.09124777705504515  0.7367398059361886  1.0000
  H   H132      1.0  0.9166604123915362  0.2632543633510025  0.3545020135535068  1.0000
  H   H133      1.0  0.49999977201287754  0.5192245706695501  0.3774680357681318  1.0000
  H   H134      1.0  0.5000009243578417  0.858246625341138  0.4807783319458492  1.0000
  H   H135      1.0  0.5000013235348105  0.6225311269240663  0.14175695637607066  1.0000
  H   H136      1.0  0.49999878136021897  0.48077876792473245  0.622527666946716  1.0000
  H   H137      1.0  0.5000000496313673  0.14174748004236898  0.5192199998889392  1.0000
  H   H138      1.0  0.4999978350051677  0.37746760825152825  0.8582426160218044  1.0000
  H   H139      1.0  3.703554937999995e-07  0.48077760780943607  0.8582490895542559  1.0000
  H   H140      1.0  0.999998935789968  0.1417535956990362  0.6225216660150605  1.0000
  H   H141      1.0  0.9999989425761129  0.37747593643955196  0.5192202303170033  1.0000
  H   H142      1.0  0.999998788199662  0.5192219442899243  0.14175553633293697  1.0000
  H   H143      1.0  3.248476673399999e-06  0.8582486422019995  0.37747293600524734  1.0000
  H   H144      1.0  0.9999979350757117  0.6225317926457165  0.48077630783980385  1.0000
  C   C1        1.0  0.2643972358318436  0.37669782454273804  0.21195106494173627  1.0000
  C   C2        1.0  0.2643980229493367  0.8352507092936535  0.6232989993533735  1.0000
  C   C3        1.0  0.2644002465563061  0.7880444985336224  0.16474530633942655  1.0000
  C   C4        1.0  0.2643963693832916  0.6233036258565929  0.7880523965650351  1.0000
  C   C5        1.0  0.2644028440438859  0.16475007925552623  0.3766999874026381  1.0000
  C   C6        1.0  0.26440425133087336  0.21195671366846353  0.8352532567632164  1.0000
  C   C7        1.0  0.2356010955417389  0.6233025221169654  0.8352546068012071  1.0000
  C   C8        1.0  0.23560994086729892  0.16475280672762685  0.7880503616370117  1.0000
  C   C9        1.0  0.2356055504339807  0.21195186665564578  0.37669862449487096  1.0000
  C   C10       1.0  0.2355998457195909  0.3766977010691477  0.16474925846257796  1.0000
  C   C11       1.0  0.23560249821095877  0.8352476586675194  0.2119473910072569  1.0000
  C   C12       1.0  0.2356038629020318  0.7880486970567373  0.6233004974322538  1.0000
  C   C13       1.0  0.7356001072598274  0.6233053285988956  0.7880499598483293  1.0000
  C   C14       1.0  0.7356041613348906  0.1647469251885525  0.37669947234916623  1.0000
  C   C15       1.0  0.7355977016767382  0.21195346128178716  0.8352513724123934  1.0000
  C   C16       1.0  0.735603999460622  0.37669441708709417  0.2119486018797402  1.0000
  C   C17       1.0  0.7356047865896117  0.8352549083785373  0.6233028719000582  1.0000
  C   C18       1.0  0.7356003535623046  0.7880446881124354  0.1647502532273036  1.0000
  C   C19       1.0  0.7643974578516931  0.37669557758037087  0.16474560108316177  1.0000
  C   C20       1.0  0.764398294924753  0.8352468021278482  0.21195347370426973  1.0000
  C   C21       1.0  0.7644026853439883  0.7880520770385501  0.6233023435512731  1.0000
  C   C22       1.0  0.7643993128221355  0.623303870972691  0.8352518798467298  1.0000
  C   C23       1.0  0.7643930294219742  0.16475151534952895  0.7880488073247275  1.0000
  C   C24       1.0  0.764401952282242  0.21194903574421883  0.3766993435620022  1.0000
  C   C25       1.0  0.2500006979770433  0.4635248233594921  0.23176199251656016  1.0000
  C   C26       1.0  0.24999769008249467  0.7682358883669095  0.5364736776827355  1.0000
  C   C27       1.0  0.24999913970560772  0.7682374058929964  0.23176261968807654  1.0000
  C   C28       1.0  0.249998693271948  0.5364768475510359  0.7682382684312683  1.0000
  C   C29       1.0  0.24999807027036522  0.2317669399909262  0.46352689340164216  1.0000
  C   C30       1.0  0.24999964639041392  0.23176511232155403  0.7682367939425487  1.0000
  C   C31       1.0  0.7499990657016511  0.5364779780748634  0.768235714974075  1.0000
  C   C32       1.0  0.7500020736086198  0.2317624231567449  0.46352631837414976  1.0000
  C   C33       1.0  0.7499982033819776  0.23176507020665588  0.7682368807444175  1.0000
  C   C34       1.0  0.7499998601231538  0.46352140721828045  0.23176251818199484  1.0000
  C   C35       1.0  0.7500010882726187  0.768239205089351  0.5364762760311588  1.0000
  C   C36       1.0  0.7500007224542528  0.7682332975201546  0.23176457140201714  1.0000
  C   C37       1.0  0.2686595762231292  0.5829960530463794  0.3718315570846327  1.0000
  C   C38       1.0  0.26866069539153875  0.7888297308625097  0.41699886368392897  1.0000
  C   C39       1.0  0.26866264358595515  0.6281710034579362  0.21117295557446875  1.0000
  C   C40       1.0  0.26866481865854297  0.4170037766161199  0.6281698694491379  1.0000
  C   C41       1.0  0.26865341193695963  0.21117196366815685  0.5829984965293702  1.0000
  C   C42       1.0  0.268661146158749  0.37182759681204636  0.7888319017779675  1.0000
  C   C43       1.0  0.23134335272585818  0.416997172269191  0.7888271970788662  1.0000
  C   C44       1.0  0.23133944494239236  0.2111708766350018  0.6281709773902333  1.0000
  C   C45       1.0  0.2313439587195205  0.3718325962963006  0.5829980066857129  1.0000
  C   C46       1.0  0.2313437430403127  0.583000268881328  0.21117430038302124  1.0000
  C   C47       1.0  0.23134159931803566  0.7888322118729786  0.37182854163872026  1.0000
  C   C48       1.0  0.2313419267488825  0.6281678935462338  0.41700484485689043  1.0000
  C   C49       1.0  0.7313426080686868  0.41700198989772  0.6281694413625656  1.0000
  C   C50       1.0  0.7313457249326164  0.21116801712877728  0.5829980269082639  1.0000
  C   C51       1.0  0.7313359098124792  0.371833503767938  0.788831117932332  1.0000
  C   C52       1.0  0.7313452325723234  0.5829946899818309  0.37183070535033363  1.0000
  C   C53       1.0  0.7313421156949714  0.7888306826932593  0.41699863222674327  1.0000
  C   C54       1.0  0.7313446690352734  0.6281689633505891  0.2111705794777662  1.0000
  C   C55       1.0  0.768660647000935  0.5829952121330135  0.21116771914503113  1.0000
  C   C56       1.0  0.7686591084392874  0.7888353403893901  0.3718284510809083  1.0000
  C   C57       1.0  0.768661856473166  0.6281685936588274  0.4170057151355237  1.0000
  C   C58       1.0  0.7686548103647864  0.4170048586324738  0.7888320880393491  1.0000
  C   C59       1.0  0.7686551386279987  0.21116415165175792  0.628171201031172  1.0000
  C   C60       1.0  0.7686620729950776  0.37183024771619705  0.5829975228796015  1.0000
  C   C61       1.0  0.2500000322367413  0.5620349690047277  0.43795923021295363  1.0000
  C   C62       1.0  0.25000451498225823  0.8759208129543976  0.43795973613084244  1.0000
  C   C63       1.0  0.2500038732487723  0.5620398920681708  0.12408323479415623  1.0000
  C   C64       1.0  0.25000359506316977  0.4379642735023948  0.5620419915737427  1.0000
  C   C65       1.0  0.250000322608919  0.12408012416131688  0.5620397910246593  1.0000
  C   C66       1.0  0.24999672831447836  0.4379608595942127  0.8759216144325346  1.0000
  C   C67       1.0  0.7500015468980976  0.43795998368307926  0.5620382543062376  1.0000
  C   C68       1.0  0.7499940384081754  0.1240758191508533  0.5620390041543714  1.0000
  C   C69       1.0  0.749996495597138  0.4379630908119691  0.875920161673903  1.0000
  C   C70       1.0  0.7499979840865124  0.5620385958699001  0.43796298601190375  1.0000
  C   C71       1.0  0.7499988359250622  0.8759216181426979  0.43795897561067665  1.0000
  C   C72       1.0  0.750003035383635  0.5620369147692371  0.12408038639852476  1.0000
  C   C73       1.0  0.26181726394541016  0.3514208190340468  0.3236271437395997  1.0000
  C   C74       1.0  0.26182848316273066  0.972200937066951  0.6485715778522374  1.0000
  C   C75       1.0  0.2618135295960329  0.6763672650167293  0.027797713095331654  1.0000
  C   C76       1.0  0.2618186537949185  0.6485778916517615  0.6763761142774027  1.0000
  C   C77       1.0  0.261815906642859  0.02779812933531636  0.35142398642524597  1.0000
  C   C78       1.0  0.2618133108962226  0.3236345095495137  0.9722039485890617  1.0000
  C   C79       1.0  0.23817822879011893  0.6485701156085708  0.9722019017776585  1.0000
  C   C80       1.0  0.23818707225764507  0.02779585028783762  0.6763689223454817  1.0000
  C   C81       1.0  0.2381808577961948  0.3236256625544414  0.3514278016319636  1.0000
  C   C82       1.0  0.2381767690445571  0.3514287546579523  0.027798921631386943  1.0000
  C   C83       1.0  0.2381818439925709  0.9722013141900374  0.32362553506430175  1.0000
  C   C84       1.0  0.23818382243860728  0.6763754506662635  0.6485773830335685  1.0000
  C   C85       1.0  0.7381794740052071  0.6485744853604983  0.6763736580757962  1.0000
  C   C86       1.0  0.73817249080723  0.027797616663399072  0.35142230557143955  1.0000
  C   C87       1.0  0.738188049545485  0.32362830795900505  0.9722020863394216  1.0000
  C   C88       1.0  0.738179294452884  0.3514253030538723  0.32362707035833416  1.0000
  C   C89       1.0  0.73817538495598  0.9721985027682932  0.6485747538503045  1.0000
  C   C90       1.0  0.7381846373328217  0.6763713973307828  0.027794322423495887  1.0000
  C   C91       1.0  0.7618281915482042  0.35142597933825204  0.0277988432922172  1.0000
  C   C92       1.0  0.7618108759626451  0.9722018145738074  0.32362364854569825  1.0000
  C   C93       1.0  0.7618122492652121  0.6763735226455336  0.6485764573473883  1.0000
  C   C94       1.0  0.7618235997812661  0.6485756278767454  0.972198672343232  1.0000
  C   C95       1.0  0.7618124733549294  0.027793736814054244  0.6763733187321036  1.0000
  C   C96       1.0  0.7618123103557152  0.3236263332009343  0.3514235434426139  1.0000
  C   C97       1.0  0.24999649166409904  0.4128338237915869  0.41283439363904495  1.0000
  C   C98       1.0  0.2500000075329467  0.9999954270481975  0.5871611473547841  1.0000
  C   C99       1.0  0.2499999790511467  0.5871615295889184  0.9999980743453346  1.0000
  C   C100      1.0  0.24999866354738032  0.5871682555798683  0.5871683940478076  1.0000
  C   C101      1.0  0.24999696310817396  1.6860135401904583e-06  0.412834132063473  1.0000
  C   C102      1.0  0.2500012276547423  0.4128386017856797  4.4599666111174705e-06  1.0000
  C   C103      1.0  0.7500014565751201  0.5871664924839305  0.5871650652403911  1.0000
  C   C104      1.0  0.7500009664375114  1.3905099720501463e-06  0.4128322708568246  1.0000
  C   C105      1.0  0.7499997846503065  0.4128365549184919  5.083943506182541e-06  1.0000
  C   C106      1.0  0.7499962589551784  0.4128335698509246  0.4128346922716303  1.0000
  C   C107      1.0  0.7499943284930026  0.999998728578397  0.5871666960939802  1.0000
  C   C108      1.0  0.7500027720664662  0.5871642564036959  0.9999924569716749  1.0000
  C   C109      1.0  0.45846642105789204  0.3890154123286391  0.28715136319124196  1.0000
  C   C110      1.0  0.4584662664175739  0.8981343270857135  0.6109862841649798  1.0000
  C   C111      1.0  0.4584648556702362  0.712845357291762  0.10186170201309597  1.0000
  C   C112      1.0  0.458464498327018  0.6109875102210224  0.7128497628610827  1.0000
  C   C113      1.0  0.4584652581161279  0.10186438932366565  0.38901317766444515  1.0000
  C   C114      1.0  0.4584642482703599  0.28715403615905877  0.8981392841706748  1.0000
  C   C115      1.0  0.04153719151663889  0.6109862420525898  0.8981378688451681  1.0000
  C   C116      1.0  0.0415341567294831  0.10186585688278871  0.7128442442549382  1.0000
  C   C117      1.0  0.04153230809379949  0.2871493632460797  0.38901383208581536  1.0000
  C   C118      1.0  0.0415355127976582  0.3890142187837639  0.1018636868494837  1.0000
  C   C119      1.0  0.0415361269716144  0.8981366806495499  0.2871530333006191  1.0000
  C   C120      1.0  0.04153313442215279  0.7128477955064411  0.6109844215010795  1.0000
  C   C121      1.0  0.5415339477787741  0.6109870070176412  0.7128489278032714  1.0000
  C   C122      1.0  0.5415334972731216  0.10186246009178747  0.38901303485073396  1.0000
  C   C123      1.0  0.5415324874265153  0.28715500054748566  0.8981399167104055  1.0000
  C   C124      1.0  0.5415352653618442  0.3890156429211586  0.2871512619322019  1.0000
  C   C125      1.0  0.5415351107222859  0.8981349245762614  0.6109865498057301  1.0000
  C   C126      1.0  0.5415330948209771  0.7128443321181022  0.10185992132499422  1.0000
  C   C127      1.0  0.9584674133711174  0.3890131701662156  0.10186322791751924  1.0000
  C   C128      1.0  0.9584674223915287  0.8981355337139474  0.28715120508097414  1.0000
  C   C129      1.0  0.9584650349986177  0.7128482144809777  0.6109854301682699  1.0000
  C   C130      1.0  0.9584678817875057  0.6109871981870539  0.8981368727365716  1.0000
  C   C131      1.0  0.9584648470049258  0.10186575388705396  0.7128443072918456  1.0000
  C   C132      1.0  0.9584642086710103  0.28715014911864495  0.3890152076527967  1.0000
  C   C133      1.0  0.49999911879965697  0.47432535765770456  0.3462937951714478  1.0000
  C   C134      1.0  0.499998631151449  0.8719659076127398  0.5256728425508398  1.0000
  C   C135      1.0  0.5000012442031759  0.6537008108926939  0.12803152341738402  1.0000
  C   C136      1.0  0.49999761913596064  0.5256744934016025  0.6537039275197072  1.0000
  C   C137      1.0  0.4999981067958359  0.12802908663783796  0.4743268018067822  1.0000
  C   C138      1.0  0.49999791433864255  0.34629750063081827  0.8719684726386984  1.0000
  C   C139      1.0  0.9999998973831695  0.5256730371108915  0.8719685596736608  1.0000
  C   C140      1.0  0.9999978405058771  0.12803441374722965  0.653698955998564  1.0000
  C   C141      1.0  4.5429509000000115e-08  0.3463011555804626  0.47432943110995024  1.0000
  C   C142      1.0  4.7145732649999995e-07  0.474327956207162  0.128032423566566  1.0000
  C   C143      1.0  1.3180139361999994e-06  0.8719689816012417  0.34629595615909614  1.0000
  C   C144      1.0  0.999998647684457  0.6537016599424276  0.525669819273723  1.0000
  N   N1        1.0  0.2729553310514844  0.43211139793856995  0.25497932679745344  1.0000
  N   N2        1.0  0.27295346130905784  0.8228658022690636  0.567885827801298  1.0000
  N   N3        1.0  0.2729559359551316  0.745018251175615  0.1771322397728311  1.0000
  N   N4        1.0  0.27295613238538163  0.5678913272841866  0.7450228865196987  1.0000
  N   N5        1.0  0.27295800212338855  0.17713740335982198  0.4321151712996707  1.0000
  N   N6        1.0  0.2729555274748988  0.25498443248327624  0.82286781369946  1.0000
  N   N7        1.0  0.2270412825164172  0.5678895011934414  0.8228686765763339  1.0000
  N   N8        1.0  0.2270445064299409  0.17713509584861223  0.7450205933444136  1.0000
  N   N9        1.0  0.227040999837719  0.2549812385705081  0.43211124010241503  1.0000
  N   N10       1.0  0.22704180050826042  0.4321107333156888  0.17713221549960417  1.0000
  N   N11       1.0  0.22704341778088377  0.8228670450959752  0.2549783922760651  1.0000
  N   N12       1.0  0.2270438986286081  0.7450198999972526  0.5678880141015482  1.0000
  N   N13       1.0  0.72704201203468  0.5678930261593107  0.7450204270180049  1.0000
  N   N14       1.0  0.7270444869299054  0.17713241093625243  0.43211279896629395  1.0000
  N   N15       1.0  0.7270420122830004  0.2549828556500129  0.8228671623481955  1.0000
  N   N16       1.0  0.7270412107109508  0.4321075062089219  0.2549780551626383  1.0000
  N   N17       1.0  0.7270459976188235  0.8228697856615523  0.5678898893969231  1.0000
  N   N18       1.0  0.7270436310714175  0.7450160804283642  0.17713438375535145  1.0000
  N   N19       1.0  0.7729609017768908  0.4321092755466933  0.1771330556704384  1.0000
  N   N20       1.0  0.7729564675691947  0.8228632004851163  0.2549823531169365  1.0000
  N   N21       1.0  0.7729581586990973  0.7450225500496613  0.567889149202763  1.0000
  N   N22       1.0  0.7729573580242146  0.5678902751922903  0.8228658173361506  1.0000
  N   N23       1.0  0.7729539252998663  0.17713538943981155  0.7450189483115605  1.0000
  N   N24       1.0  0.7729582856596976  0.25497841152694173  0.43211198195855605  1.0000
  N   N25       1.0  0.2799668818199379  0.5408415070917556  0.3852634745303049  1.0000
  N   N26       1.0  0.27996919119043884  0.8444171867185799  0.4591524628783928  1.0000
  N   N27       1.0  0.2799690913022843  0.6147361116579402  0.15558507085923873  1.0000
  N   N28       1.0  0.2799664960349801  0.45915937161844766  0.6147398733548568  1.0000
  N   N29       1.0  0.2799641866498916  0.15558382068994078  0.5408463534879286  1.0000
  N   N30       1.0  0.27997215350261223  0.38526590931197524  0.8444215375806219  1.0000
  N   N31       1.0  0.2200344516131167  0.4591518297500271  0.8444144873177204  1.0000
  N   N32       1.0  0.2200346715561352  0.15558375518037323  0.6147373637581877  1.0000
  N   N33       1.0  0.2200353841052305  0.38526841144280854  0.5408467964662831  1.0000
  N   N34       1.0  0.2200351890919521  0.5408483448392045  0.1555871766634026  1.0000
  N   N35       1.0  0.2200325485481542  0.84441994850674  0.38526444008584776  1.0000
  N   N36       1.0  0.22003546690268652  0.6147318614646125  0.45915623680333056  1.0000
  N   N37       1.0  0.72003469731807  0.459154334464074  0.6147353225173544  1.0000
  N   N38       1.0  0.72003117764514  0.15558008086519937  0.5408456419219403  1.0000
  N   N39       1.0  0.7200324878440655  0.38526644757039463  0.8444187492686336  1.0000
  N   N40       1.0  0.7200387140088296  0.5408433426826846  0.38526452550674134  1.0000
  N   N41       1.0  0.7200349718809207  0.8444170327460583  0.4591511006189391  1.0000
  N   N42       1.0  0.7200372925917122  0.6147328522396122  0.15558314507867274  1.0000
  N   N43       1.0  0.7799725738572505  0.5408417688550385  0.15557994849358875  1.0000
  N   N44       1.0  0.7799717487731002  0.8444230821337227  0.3852643796389826  1.0000
  N   N45       1.0  0.7799655898951557  0.6147344579293514  0.45915818111856027  1.0000
  N   N46       1.0  0.779965784910182  0.4591573613992067  0.8444193668328663  1.0000
  N   N47       1.0  0.7799672151419657  0.15557589304868444  0.6147343569593955  1.0000
  N   N48       1.0  0.7799655070937774  0.3852638098288991  0.5408449319174975  1.0000
  N   N49       1.0  0.26933932879622796  0.4083393706049348  0.36256007908085025  1.0000
  N   N50       1.0  0.26934488177491994  0.954215267036943  0.59165309928197  1.0000
  N   N51       1.0  0.2693428989435064  0.6374329777362249  0.0457810282064628  1.0000
  N   N52       1.0  0.2693436262623763  0.5916598806404207  0.6374411941905573  1.0000
  N   N53       1.0  0.2693404938631261  0.0457832240392406  0.4083423299453627  1.0000
  N   N54       1.0  0.26933945096345707  0.3625684333332585  0.9542202866180102  1.0000
  N   N55       1.0  0.2306610718798225  0.5916527224327195  0.9542156854430528  1.0000
  N   N56       1.0  0.23065887036980107  0.04577827097816806  0.6374332160860872  1.0000
  N   N57       1.0  0.230660199212501  0.36256054681423666  0.4083453744993759  1.0000
  N   N58       1.0  0.23065596586798878  0.4083469349866035  0.04578506119106148  1.0000
  N   N59       1.0  0.2306551416124165  0.9542193137506627  0.362560797626436  1.0000
  N   N60       1.0  0.2306574436935236  0.6374408315872128  0.5916587877504679  1.0000
  N   N61       1.0  0.7306543833948069  0.5916567962832813  0.6374369250112576  1.0000
  N   N62       1.0  0.7306536715996756  0.045782863040777534  0.40834120779668837  1.0000
  N   N63       1.0  0.7306580750567093  0.36256452804740025  0.954221975013304  1.0000
  N   N64       1.0  0.7306561374329874  0.4083444715137502  0.36256230058896916  1.0000
  N   N65       1.0  0.7306544286308422  0.9542157229614288  0.5916570306177743  1.0000
  N   N66       1.0  0.7306584972610891  0.6374352721589104  0.04577578299581833  1.0000
  N   N67       1.0  0.7693441381606546  0.40834373941185476  0.045785426524993435  1.0000
  N   N68       1.0  0.7693433138937494  0.9542198175365112  0.3625589311525344  1.0000
  N   N69       1.0  0.7693425902346078  0.6374404313141679  0.5916585591469282  1.0000
  N   N70       1.0  0.7693413772070911  0.5916573492294859  0.9542111634926439  1.0000
  N   N71       1.0  0.769337360291189  0.0457796748133319  0.6374407227783506  1.0000
  N   N72       1.0  0.769339899402148  0.36256031680213846  0.40834277421462406  1.0000
  N   N73       1.0  0.43228106363590507  0.4432289669999959  0.32475189731577797  1.0000
  N   N74       1.0  0.43227888185839447  0.8815204199826991  0.5567715128505666  1.0000
  N   N75       1.0  0.432280141382094  0.6752472011320734  0.11847946208189333  1.0000
  N   N76       1.0  0.4322790250884694  0.5567739021544539  0.6752469991826755  1.0000
  N   N77       1.0  0.43227757597602334  0.11847407845397125  0.44322621504051785  1.0000
  N   N78       1.0  0.43227813191204945  0.3247537463974053  0.8815242912789142  1.0000
  N   N79       1.0  0.0677201952291639  0.5567724604735743  0.8815279996191235  1.0000
  N   N80       1.0  0.06771761781787689  0.11847843339764098  0.6752424980989884  1.0000
  N   N81       1.0  0.0677214841282918  0.3247539448933806  0.4432280635706147  1.0000
  N   N82       1.0  0.06772152430350789  0.44322888587154097  0.11847788871343566  1.0000
  N   N83       1.0  0.06772047078950288  0.8815243277914036  0.3247546373324396  1.0000
  N   N84       1.0  0.0677202353813016  0.6752473335142068  0.5567705546693558  1.0000
  N   N85       1.0  0.5677180948919871  0.556773100638182  0.6752450763744731  1.0000
  N   N86       1.0  0.5677196715363734  0.11847304992214441  0.4432274544683066  1.0000
  N   N87       1.0  0.567718412020504  0.32475472261745597  0.8815249935292538  1.0000
  N   N88       1.0  0.5677177128483989  0.44323052194328477  0.32475275463197295  1.0000
  N   N89       1.0  0.5677197671134736  0.8815247134752722  0.556772566796951  1.0000
  N   N90       1.0  0.5677216317781487  0.675244776952283  0.11847549294886758  1.0000
  N   N91       1.0  0.9322801736303319  0.4432279237400251  0.1184787293561341  1.0000
  N   N92       1.0  0.9322833561585853  0.8815272616572969  0.3247559847467014  1.0000
  N   N93       1.0  0.9322782795540759  0.6752480092368173  0.5567704912364275  1.0000
  N   N94       1.0  0.9322806599797175  0.5567722209550394  0.8815215134132327  1.0000
  N   N95       1.0  0.9322792928860223  0.11847758477492923  0.6752417576297274  1.0000
  N   N96       1.0  0.932278318004883  0.32475514258571536  0.4432289457647513  1.0000
