data_image0
_chemical_formula_structural       Zn2H26C40N6O8
_chemical_formula_sum              "Zn2 H26 C40 N6 O8"
_cell_length_a       8.214566054884953
_cell_length_b       8.000232852563364
_cell_length_c       12.909838442704801
_cell_angle_alpha    74.99133536184657
_cell_angle_beta     84.08904663696033
_cell_angle_gamma    79.36154440967633

_space_group_name_H-M_alt    "P 1"
_space_group_IT_number       1

loop_
  _space_group_symop_operation_xyz
  'x, y, z'

loop_
  _atom_site_type_symbol
  _atom_site_label
  _atom_site_symmetry_multiplicity
  _atom_site_fract_x
  _atom_site_fract_y
  _atom_site_fract_z
  _atom_site_occupancy
  Zn  Zn1       1.0  0.9875027857878536  0.38398917539073096  0.17863009777761357  1.0000
  Zn  Zn2       1.0  0.012502261674121884  0.6160057716249129  0.8213692225337468  1.0000
  H   H1        1.0  0.7982543627980192  0.4429644541096991  0.021290528025282588  1.0000
  H   H2        1.0  0.2017531238211418  0.5570305199311747  0.9787094080435567  1.0000
  H   H3        1.0  0.9549792125246911  0.2892575427755376  0.004754178141951042  1.0000
  H   H4        1.0  0.045029505697748023  0.7107374356653511  0.9952441299916045  1.0000
  H   H5        1.0  0.4909051937488582  0.5503577936426327  0.3392302954380497  1.0000
  H   H6        1.0  0.5090943115953193  0.44964104961016466  0.6607702947646246  1.0000
  H   H7        1.0  0.9358592297555357  0.1268675781905912  0.6920491711965298  1.0000
  H   H8        1.0  0.06414050006303278  0.8731299458696357  0.307950068986976  1.0000
  H   H9        1.0  0.3184714284031286  0.5458840074487912  0.19552212854807036  1.0000
  H   H10       1.0  0.6815276424218903  0.4541174632540078  0.8044788387161077  1.0000
  H   H11       1.0  0.6965146799071958  0.058690779750818906  0.6156572683857178  1.0000
  H   H12       1.0  0.30348128795721147  0.9413146142143632  0.38434558452726003  1.0000
  H   H13       1.0  0.40187164173218537  0.4152233099456097  0.5340711060692342  1.0000
  H   H14       1.0  0.5981256296897043  0.5847742016695464  0.4659306156592393  1.0000
  H   H15       1.0  0.6667625414721455  0.21623977418496307  0.2696355528105912  1.0000
  H   H16       1.0  0.33323184665364636  0.7837603451450549  0.73036747887312  1.0000
  H   H17       1.0  0.19248021335420865  0.26025780976756613  0.6635545163463946  1.0000
  H   H18       1.0  0.8075205139735  0.7397410451753217  0.336445994572216  1.0000
  H   H19       1.0  0.5468162892620824  0.08055980148958498  0.4477481919597395  1.0000
  H   H20       1.0  0.45317658526146665  0.9194495084479044  0.5522549979508113  1.0000
  H   H21       1.0  0.9425546482159458  0.9699977171764901  0.0956508713884716  1.0000
  H   H22       1.0  0.057450848194818584  0.02999459145402741  0.9043457488845519  1.0000
  H   H23       1.0  0.5279807073517515  0.3931503155954062  0.0754908012271471  1.0000
  H   H24       1.0  0.47202880795481394  0.6068472946955056  0.9245062560326218  1.0000
  H   H25       1.0  0.4446429047530031  0.85699435546767  0.16500674685656946  1.0000
  H   H26       1.0  0.5553577985253284  0.14300451770041184  0.8349976356900939  1.0000
  C   C1        1.0  0.09825665208658306  0.34148074008161433  0.3997927914113363  1.0000
  C   C2        1.0  0.9017356642568612  0.6585246078781637  0.600207976377007  1.0000
  C   C3        1.0  0.37882290174367467  0.49178608432565346  0.36228036876701697  1.0000
  C   C4        1.0  0.6211737251142891  0.5082153629969568  0.6377207570652884  1.0000
  C   C5        1.0  0.18539615917902807  0.33955926033715406  0.4894993692187199  1.0000
  C   C6        1.0  0.8145973839578247  0.6604460956676804  0.5105005449599459  1.0000
  C   C7        1.0  0.9503616469089591  0.2638544569752526  0.4162622745580719  1.0000
  C   C8        1.0  0.04963311821142465  0.7361509107196796  0.5837375603365231  1.0000
  C   C9        1.0  0.9826421339703085  0.18802640757372305  0.6116033014764568  1.0000
  C   C10       1.0  0.0173559345357006  0.8119737358914634  0.38839716937822993  1.0000
  C   C11       1.0  0.2825857885414249  0.48903185983704145  0.2790761639713679  1.0000
  C   C12       1.0  0.7174116354006654  0.5109722193355921  0.7209237109871579  1.0000
  C   C13       1.0  0.7433882961037381  0.11812782998178052  0.5346468488584435  1.0000
  C   C14       1.0  0.2566064593968988  0.8818775450032276  0.4653545346873784  1.0000
  C   C15       1.0  0.3301247361814744  0.4170485042486974  0.4672996491803616  1.0000
  C   C16       1.0  0.6698704490284441  0.582954246931344  0.5327021316295699  1.0000
  C   C17       1.0  0.7300019539654341  0.20521275731320543  0.3416901811559613  1.0000
  C   C18       1.0  0.2699926011101822  0.7947939186391653  0.6583086807809764  1.0000
  C   C19       1.0  0.12409613400217974  0.2608369405081917  0.5954447590486539  1.0000
  C   C20       1.0  0.8759007125202984  0.7391631912668899  0.4045557910900968  1.0000
  C   C21       1.0  0.8919627869492641  0.18849904215595364  0.5223870683659158  1.0000
  C   C22       1.0  0.10802873231006056  0.8115036739538016  0.47761495029620693  1.0000
  C   C23       1.0  0.6631940202200325  0.12841744801192337  0.4437213668092355  1.0000
  C   C24       1.0  0.33679705971026397  0.8715878991928747  0.5562818032400045  1.0000
  C   C25       1.0  0.7603455733574332  0.6993380855917551  0.1500261860475973  1.0000
  C   C26       1.0  0.23965559329931094  0.3006581382560825  0.8499731734839032  1.0000
  C   C27       1.0  0.28305422104073585  0.1895528562599011  0.1392363861812953  1.0000
  C   C28       1.0  0.7169499429532916  0.8104473565908709  0.8607660112298987  1.0000
  C   C29       1.0  0.46627808306550367  0.13146265737814392  0.1212890957018189  1.0000
  C   C30       1.0  0.5337302054476538  0.8685349448677118  0.8787088151676271  1.0000
  C   C31       1.0  0.699484467673315  0.8939890341032992  0.1290200083599727  1.0000
  C   C32       1.0  0.30052036974389296  0.10600722116979001  0.8709783389937229  1.0000
  C   C33       1.0  0.8091297521618728  0.015766459516740407  0.1006807871092548  1.0000
  C   C34       1.0  0.19087509487508902  0.9842297884662659  0.8993160115932213  1.0000
  C   C35       1.0  0.7476696891620094  0.1958827473767357  0.08168362752268618  1.0000
  C   C36       1.0  0.25233904829993037  0.8041122164839934  0.9183115833084301  1.0000
  C   C37       1.0  0.5757041559715076  0.25321165215640923  0.08984254581820747  1.0000
  C   C38       1.0  0.4243007006852081  0.7467845885365209  0.9101527042330488  1.0000
  C   C39       1.0  0.5289113442969435  0.9522018090193641  0.1412328938098852  1.0000
  C   C40       1.0  0.47108895813136087  0.0477996660834563  0.8587664455190022  1.0000
  N   N1        1.0  0.14685730262605284  0.4151765449597563  0.29766633427369976  1.0000
  N   N2        1.0  0.853136460175321  0.5848274954975564  0.7023330042114112  1.0000
  N   N3        1.0  0.8707640935514713  0.26946544286666113  0.32796919739319463  1.0000
  N   N4        1.0  0.1292300893394298  0.7305359810757608  0.6720320870072456  1.0000
  N   N5        1.0  0.8585143204561659  0.32010964254133967  0.05815708292444552  1.0000
  N   N6        1.0  0.14149317578274168  0.679885324209451  0.9418413044931739  1.0000
  O   O1        1.0  0.22003498633360136  0.3481160122281963  0.09187602359359909  1.0000
  O   O2        1.0  0.7799669870270164  0.6518828361795884  0.9081205364128947  1.0000
  O   O3        1.0  0.9180892207427928  0.6504836792753751  0.1304060381558472  1.0000
  O   O4        1.0  0.08191114882982478  0.3495099127224465  0.869594572249433  1.0000
  O   O5        1.0  0.19830099609749394  0.08592423046675182  0.20287513384226227  1.0000
  O   O6        1.0  0.8017096115198894  0.9140813220047691  0.7971306392899818  1.0000
  O   O7        1.0  0.660103828421306  0.5948815646943757  0.1868434831030967  1.0000
  O   O8        1.0  0.33989245511119737  0.40511460874804345  0.8131554192390523  1.0000
