data_image0
_chemical_formula_structural       Mn2H6C8N16
_chemical_formula_sum              "Mn2 H6 C8 N16"
_cell_length_a       5.928068799813871
_cell_length_b       8.023836915532382
_cell_length_c       8.96799380580108
_cell_angle_alpha    88.22668323563148
_cell_angle_beta     84.2337754258355
_cell_angle_gamma    67.75052837859533

_space_group_name_H-M_alt    "P 1"
_space_group_IT_number       1

loop_
  _space_group_symop_operation_xyz
  'x, y, z'

loop_
  _atom_site_type_symbol
  _atom_site_label
  _atom_site_symmetry_multiplicity
  _atom_site_fract_x
  _atom_site_fract_y
  _atom_site_fract_z
  _atom_site_occupancy
  Mn  Mn1       1.0  0.1972839431031587  0.5976008292817384  0.9985445617519701  1.0000
  Mn  Mn2       1.0  0.8063894763423316  0.366190951810047  0.0057343868386965265  1.0000
  H   H1        1.0  0.9244639780932288  0.7186179126557091  0.3493966837851019  1.0000
  H   H2        1.0  0.3615741896308933  0.7190229153239966  0.6480621555918232  1.0000
  H   H3        1.0  0.06367471541752683  0.2995757210405755  0.6728985763792678  1.0000
  H   H4        1.0  0.6311121179065962  0.29883156682248563  0.33453714491221825  1.0000
  H   H5        1.0  0.6992707530048603  0.017929530363588197  0.48080918572561876  1.0000
  H   H6        1.0  0.2802741528693531  0.018615708590814992  0.5208539668513764  1.0000
  C   C1        1.0  0.895830046804903  0.8447738980575393  0.29075839949476995  1.0000
  C   C2        1.0  0.2631132347009242  0.845155353067909  0.708919644670061  1.0000
  C   C3        1.0  0.098266030144103  0.16753389600005159  0.7220045014900478  1.0000
  C   C4        1.0  0.7316261267395135  0.16730400991867359  0.2828790739079706  1.0000
  C   C5        1.0  0.7684930275239663  0.011231417301623  0.36347037009415567  1.0000
  C   C6        1.0  0.21968251305553113  0.011655381169965996  0.6384182808378964  1.0000
  C   C7        1.0  0.9522721832763068  0.9939898219471954  0.07628215142220537  1.0000
  C   C8        1.0  0.05870018539312135  0.9939388897414856  0.9261988123908294  1.0000
  N   N1        1.0  0.9864662975918675  0.8374764826867459  0.1475116992300869  1.0000
  N   N2        1.0  0.18395647102363463  0.8372285948165367  0.8528156255860893  1.0000
  N   N3        1.0  0.01496405496408221  0.1626636460465533  0.8686806957707844  1.0000
  N   N4        1.0  0.8204281437741726  0.16332331405426703  0.1358276453789742  1.0000
  N   N5        1.0  0.060145151170054624  0.4123578909607771  0.12410851599972968  1.0000
  N   N6        1.0  0.5217013725221447  0.4075653961994305  0.8767415879668973  1.0000
  N   N7        1.0  0.9296954752756788  0.575682678967034  0.8642484978449757  1.0000
  N   N8        1.0  0.5139508406604064  0.5575525433183515  0.1291635259528618  1.0000
  N   N9        1.0  0.11033867470647614  0.3514445212369067  0.2478581312107337  1.0000
  N   N10       1.0  0.5363187923928191  0.34810936399484405  0.7515261031665261  1.0000
  N   N11       1.0  0.8719951839377128  0.6418810553729556  0.7440927329297011  1.0000
  N   N12       1.0  0.4997783156059583  0.6292246706202532  0.24889878660522405  1.0000
  N   N13       1.0  0.1607045774226208  0.29597692759725175  0.3661882181513646  1.0000
  N   N14       1.0  0.5426472123669439  0.29505304758961864  0.631651234561545  1.0000
  N   N15       1.0  0.8210741759199532  0.7087555204959697  0.6286552807576484  1.0000
  N   N16       1.0  0.4738135079708882  0.703725200167227  0.3622583483019568  1.0000
