data_image0
_chemical_formula_structural       Cd4H16C24S8N16O8
_chemical_formula_sum              "Cd4 H16 C24 S8 N16 O8"
_cell_length_a       6.776209402142828
_cell_length_b       10.563419658448215
_cell_length_c       14.307499273062879
_cell_angle_alpha    89.99966222061514
_cell_angle_beta     90.0000595626074
_cell_angle_gamma    98.96279530883683

_space_group_name_H-M_alt    "P 1"
_space_group_IT_number       1

loop_
  _space_group_symop_operation_xyz
  'x, y, z'

loop_
  _atom_site_type_symbol
  _atom_site_label
  _atom_site_symmetry_multiplicity
  _atom_site_fract_x
  _atom_site_fract_y
  _atom_site_fract_z
  _atom_site_occupancy
  Cd  Cd1       1.0  0.9328490619727887  0.24522734473745095  0.05904842352610728  1.0000
  Cd  Cd2       1.0  0.5671578396698322  0.2547730849605614  0.5590469516172332  1.0000
  Cd  Cd3       1.0  0.06713661163070837  0.7547707108817361  0.94095247278819  1.0000
  Cd  Cd4       1.0  0.43284896114752064  0.7452269490051505  0.44095394469732685  1.0000
  H   H1        1.0  0.9502923311685834  0.0909711688532155  0.2657892925590132  1.0000
  H   H2        1.0  0.549700816598005  0.4090314023612435  0.7657885428669003  1.0000
  H   H3        1.0  0.049697998820740004  0.9090278583454746  0.73420741014921  1.0000
  H   H4        1.0  0.45030518532890795  0.5909715022861589  0.23420746090214095  1.0000
  H   H5        1.0  0.9601574691244038  0.8667824726392721  0.33435794828087495  1.0000
  H   H6        1.0  0.5398337922204632  0.6332140539853909  0.8343604857739206  1.0000
  H   H7        1.0  0.039838768085275  0.13321657216432203  0.6656401522969089  1.0000
  H   H8        1.0  0.4601698290158823  0.3667850128062184  0.16564390521285324  1.0000
  H   H9        1.0  0.49369333153067163  0.8515960670347835  0.19309769528154413  1.0000
  H   H10       1.0  0.006304948329436336  0.6484016913631903  0.6930952600094853  1.0000
  H   H11       1.0  0.5063025587345251  0.1484077651297397  0.806903201022436  1.0000
  H   H12       1.0  0.9937043541547511  0.3515964346867335  0.3069084320463914  1.0000
  H   H13       1.0  0.47967395964658277  0.07115349435136409  0.12141739380985678  1.0000
  H   H14       1.0  0.020322799421990095  0.4288484079150833  0.6214137498888519  1.0000
  H   H15       1.0  0.5203155714539776  0.9288484035039558  0.8785807067602958  1.0000
  H   H16       1.0  0.9796817257006725  0.5711544923185626  0.3785850496165251  1.0000
  C   C1        1.0  0.06928607616380592  0.0354434344118033  0.2514205345523378  1.0000
  C   C2        1.0  0.4307113251727017  0.4645536026100103  0.751419009578228  1.0000
  C   C3        1.0  0.9307040278537501  0.9645546344291632  0.748576867092076  1.0000
  C   C4        1.0  0.5692996800865731  0.5354454862253277  0.24857769313431524  1.0000
  C   C5        1.0  0.07537477068983373  0.9161709964964612  0.28857187171333004  1.0000
  C   C6        1.0  0.4246185567700493  0.5838298166940205  0.788574089952881  1.0000
  C   C7        1.0  0.924621692492174  0.08382900665650078  0.7114276267307457  1.0000
  C   C8        1.0  0.5753859683537357  0.41617308352291355  0.21142890315746138  1.0000
  C   C9        1.0  0.3745143738135113  0.9065774551414664  0.20759554183979384  1.0000
  C   C10       1.0  0.1254808391976496  0.5934259246132427  0.7075947939088676  1.0000
  C   C11       1.0  0.6254859468664904  0.09342639023369509  0.7924046555309585  1.0000
  C   C12       1.0  0.8745270914800329  0.40657890111880585  0.29240819919804284  1.0000
  C   C13       1.0  0.36645509337981963  0.024396010328224797  0.16893241281272955  1.0000
  C   C14       1.0  0.1335422639527906  0.47560168419263243  0.6689286151577958  1.0000
  C   C15       1.0  0.6335371653593358  0.9756049379690308  0.8310677845625561  1.0000
  C   C16       1.0  0.8664672645018643  0.5243974002345199  0.33106948542276615  1.0000
  C   C17       1.0  0.8236137779230359  0.9247595698019848  0.07484144253798058  1.0000
  C   C18       1.0  0.6763959705279846  0.5752429116458443  0.5748345048859275  1.0000
  C   C19       1.0  0.1763682641533038  0.07523560196665359  0.9251545612426495  1.0000
  C   C20       1.0  0.3236307066686949  0.42476005464099126  0.4251607999532751  1.0000
  C   C21       1.0  0.19780992238715814  0.5341471817907362  0.07081279822335768  1.0000
  C   C22       1.0  0.30221065431632604  0.9658650254503768  0.5708251909191232  1.0000
  C   C23       1.0  0.8021900513474307  0.465861450959288  0.9291867002027913  1.0000
  C   C24       1.0  0.697795694557314  0.034133091802672794  0.4291764043336527  1.0000
  S   S1        1.0  0.3536257550771253  0.6558428109669021  0.03137031566600259  1.0000
  S   S2        1.0  0.14637346337411122  0.8441543241554256  0.5313810715579448  1.0000
  S   S3        1.0  0.6463569649180557  0.3441552358219866  0.9686368710551247  1.0000
  S   S4        1.0  0.8536353871667333  0.15584188517626527  0.4686247173044648  1.0000
  S   S5        1.0  0.8521574597714905  0.7769996619967187  0.09530446411330468  1.0000
  S   S6        1.0  0.6478485470967854  0.7230055181972402  0.5952989709680663  1.0000
  S   S7        1.0  0.14782354146878876  0.22300987189371566  0.9046901417676735  1.0000
  S   S8        1.0  0.3521704151046522  0.2769897636340488  0.40469773175443885  1.0000
  N   N1        1.0  0.21374307321226382  0.08931964767032238  0.19061108018599524  1.0000
  N   N2        1.0  0.2862539487396917  0.41068266142656995  0.6906076295162789  1.0000
  N   N3        1.0  0.7862470308058533  0.9106784211622879  0.8093884182609015  1.0000
  N   N4        1.0  0.7137542079086361  0.5893231226799146  0.3093904710494755  1.0000
  N   N5        1.0  0.2282371692928891  0.851447006368083  0.2665912643825478  1.0000
  N   N6        1.0  0.2717554685247379  0.648551106971439  0.7665903406958205  1.0000
  N   N7        1.0  0.7717614486105334  0.14855587624395378  0.7334103308582411  1.0000
  N   N8        1.0  0.7282447471573334  0.3514460343106264  0.23341265242606815  1.0000
  N   N9        1.0  0.7980872697016894  0.0318439742871988  0.06147835175357128  1.0000
  N   N10       1.0  0.7019242896229658  0.4681574076226979  0.5614725190049936  1.0000
  N   N11       1.0  0.20189020501123175  0.9681693798179225  0.9385155551842174  1.0000
  N   N12       1.0  0.29810933562882996  0.5318312141667435  0.43852068906429037  1.0000
  N   N13       1.0  0.08791970481711076  0.44601636286143503  0.10199731087217147  1.0000
  N   N14       1.0  0.41207433222998463  0.05397419391400149  0.601999652998529  1.0000
  N   N15       1.0  0.9120559940721764  0.5539644247444641  0.8980070801481757  1.0000
  N   N16       1.0  0.5879312177539617  0.9460267940096043  0.3979998454453763  1.0000
  O   O1        1.0  0.20750076756174005  0.20152802358349223  0.15364910060279155  1.0000
  O   O2        1.0  0.292501463976734  0.29847172267638195  0.6536447407683352  1.0000
  O   O3        1.0  0.7924880856231482  0.7984709992042268  0.8463496989076088  1.0000
  O   O4        1.0  0.7075055628116402  0.701529269658188  0.3463526608733928  1.0000
  O   O5        1.0  0.2350221942345172  0.7378726868208361  0.3017255342098649  1.0000
  O   O6        1.0  0.2649675087155501  0.7621251376670981  0.8017248146102671  1.0000
  O   O7        1.0  0.7649796032512272  0.26213116294580635  0.6982774588978342  1.0000
  O   O8        1.0  0.7350263478035617  0.23787006928069593  0.19828167318524237  1.0000
