data_image0
_chemical_formula_structural       Bi4H8C32N4O24
_chemical_formula_sum              "Bi4 H8 C32 N4 O24"
_cell_length_a       5.27499633509195
_cell_length_b       9.80819108153852
_cell_length_c       15.08754164262787
_cell_angle_alpha    94.43140959502841
_cell_angle_beta     90.00048360643233
_cell_angle_gamma    90.00046657921867

_space_group_name_H-M_alt    "P 1"
_space_group_IT_number       1

loop_
  _space_group_symop_operation_xyz
  'x, y, z'

loop_
  _atom_site_type_symbol
  _atom_site_label
  _atom_site_symmetry_multiplicity
  _atom_site_fract_x
  _atom_site_fract_y
  _atom_site_fract_z
  _atom_site_occupancy
  Bi  Bi1       1.0  0.8181297110768285  0.35387415382147214  0.5821104894883862  1.0000
  Bi  Bi2       1.0  0.31813335527390757  0.1461216312643501  0.9178859727439177  1.0000
  Bi  Bi3       1.0  0.1818455065666171  0.6461302627535088  0.41788887933714863  1.0000
  Bi  Bi4       1.0  0.6818702983416358  0.8538746062619819  0.0821136573417363  1.0000
  H   H1        1.0  0.7845921628259376  0.5347837574084763  0.935164825585183  1.0000
  H   H2        1.0  0.2845798428752317  0.9652061135433384  0.5648353899708951  1.0000
  H   H3        1.0  0.21541528231985305  0.4652155550931454  0.06483760668267992  1.0000
  H   H4        1.0  0.7154105406102076  0.03478910847623949  0.4351668414318723  1.0000
  H   H5        1.0  0.4283868648358223  0.6865589198456448  0.7958685000838771  1.0000
  H   H6        1.0  0.9283834450214883  0.8134407571583823  0.704130653353154  1.0000
  H   H7        1.0  0.5716167887906421  0.31343936112047993  0.20413056753317702  1.0000
  H   H8        1.0  0.0716164171255045  0.1865575220165283  0.2958677513705866  1.0000
  C   C1        1.0  0.61545716103722  0.3621497328984302  0.790813838076744  1.0000
  C   C2        1.0  0.11544827762379131  0.1378421186299335  0.7091784900807454  1.0000
  C   C3        1.0  0.3845408054246419  0.6378516194565548  0.20918670593275832  1.0000
  C   C4        1.0  0.8845477930868596  0.8621592301546452  0.2908207281515018  1.0000
  C   C5        1.0  0.832495214384977  0.4629007863478165  0.797602872867735  1.0000
  C   C6        1.0  0.3324901468331376  0.0370940457530011  0.7023969009946003  1.0000
  C   C7        1.0  0.1674989606601969  0.5371015993098355  0.2024016986671242  1.0000
  C   C8        1.0  0.667511611091264  0.9629062839984993  0.29760359281192456  1.0000
  C   C9        1.0  0.8995091377937356  0.5398592851540797  0.8757629137478206  1.0000
  C   C10       1.0  0.3994905157122162  0.9601320834982019  0.6242337540080813  1.0000
  C   C11       1.0  0.10050209881188012  0.4601420654457512  0.12423696739652001  1.0000
  C   C12       1.0  0.6005074507217998  0.0398662010222992  0.37576663937371535  1.0000
  C   C13       1.0  0.116697917002142  0.6216264465709286  0.8758930492275853  1.0000
  C   C14       1.0  0.616691864894463  0.878364761642054  0.6241073754511178  1.0000
  C   C15       1.0  0.8833000494269568  0.3783687754646791  0.12410918218769501  1.0000
  C   C16       1.0  0.38330231006007415  0.121633521087233  0.3758923550373581  1.0000
  C   C17       1.0  0.2060342170866889  0.7003755950402847  0.9602262060976727  1.0000
  C   C18       1.0  0.7060248832576549  0.7996200705739651  0.5397707369756618  1.0000
  C   C19       1.0  0.793977019477424  0.29962370498696334  0.039771585967010005  1.0000
  C   C20       1.0  0.29396739595168947  0.2003771895398216  0.4602289433004573  1.0000
  C   C21       1.0  0.25628956484642634  0.6258942249682276  0.7974696006823622  1.0000
  C   C22       1.0  0.7562776621944637  0.8740996096508906  0.7025280707405416  1.0000
  C   C23       1.0  0.7437254631987997  0.3741060976785277  0.20252824159781116  1.0000
  C   C24       1.0  0.24373357436637375  0.1258976487197643  0.2974709466797948  1.0000
  C   C25       1.0  0.1717894076992152  0.550271299426761  0.7213051802851143  1.0000
  C   C26       1.0  0.6717824412976655  0.949724228558345  0.7786943013034886  1.0000
  C   C27       1.0  0.8282028715472549  0.4497300511330024  0.2786947008279412  1.0000
  C   C28       1.0  0.3282250038486794  0.05028018630156338  0.22130440468817625  1.0000
  C   C29       1.0  0.3113107268705662  0.5443880651524821  0.6341891363887414  1.0000
  C   C30       1.0  0.8113191358877996  0.9556070229350265  0.8658081040063055  1.0000
  C   C31       1.0  0.6886758651512322  0.4556122610005672  0.3658100316186293  1.0000
  C   C32       1.0  0.1887053708124284  0.04439227355388199  0.1341883623061477  1.0000
  N   N1        1.0  0.9649551794062033  0.471449629771989  0.7225896054772749  1.0000
  N   N2        1.0  0.46494031842924954  0.02854472896038369  0.7774065780673853  1.0000
  N   N3        1.0  0.03504468280412709  0.5285547868550892  0.27740976338893125  1.0000
  N   N4        1.0  0.5350671266908904  0.9714576388933335  0.22259136461874363  1.0000
  O   O1        1.0  0.5556757020132537  0.30978298751582395  0.7146128543335097  1.0000
  O   O2        1.0  0.05567325565408511  0.19021681716196778  0.7853889585979063  1.0000
  O   O3        1.0  0.4443108901024574  0.6902234832221766  0.28538992936458385  1.0000
  O   O4        1.0  0.9443247107984901  0.8097835125815179  0.21461153520236562  1.0000
  O   O5        1.0  0.5082728981263643  0.33892375393065777  0.8640977305471083  1.0000
  O   O6        1.0  0.0082456617763427  0.1610625563540893  0.6359032731539216  1.0000
  O   O7        1.0  0.49172885981933223  0.6610755603421338  0.1359053645984289  1.0000
  O   O8        1.0  0.9917447217385843  0.8389367543282659  0.3640984961987216  1.0000
  O   O9        1.0  0.049323972245048295  0.7205989753185164  0.023345012679939704  1.0000
  O   O10       1.0  0.5493243497744231  0.7793971382646205  0.4766513817549338  1.0000
  O   O11       1.0  0.9506815771435412  0.27940135265779986  0.976654818245777  1.0000
  O   O12       1.0  0.4506717209236726  0.220601146251866  0.5233490116237363  1.0000
  O   O13       1.0  0.4389124098045088  0.7350507495716412  0.9611509562006263  1.0000
  O   O14       1.0  0.9389043601630859  0.7649469284786363  0.5388487944405753  1.0000
  O   O15       1.0  0.561096931038982  0.26494855401799805  0.03884816163505181  1.0000
  O   O16       1.0  0.061093606235431315  0.2350482864241812  0.46115078542645455  1.0000
  O   O17       1.0  0.5393889062869591  0.5801139849636668  0.6334706922803122  1.0000
  O   O18       1.0  0.0393694886187674  0.9198881379976239  0.8665273779444436  1.0000
  O   O19       1.0  0.4606052686555699  0.41988633585582125  0.3665264870783815  1.0000
  O   O20       1.0  0.9606322692706969  0.08011422449448699  0.13346857607110962  1.0000
  O   O21       1.0  0.1864146560757831  0.4973404318174629  0.5649514438354616  1.0000
  O   O22       1.0  0.6864131562732467  0.0026640106462280998  0.9350490128225746  1.0000
  O   O23       1.0  0.8135719359705931  0.5026609205134775  0.4350491001552683  1.0000
  O   O24       1.0  0.3135961845904447  0.9973383589946959  0.0649495927537487  1.0000
