data_image0
_chemical_formula_structural       Ca2H32C18O24
_chemical_formula_sum              "Ca2 H32 C18 O24"
_cell_length_a       5.541384539344036
_cell_length_b       11.909618919662712
_cell_length_c       11.909783226382517
_cell_angle_alpha    119.98103759176303
_cell_angle_beta     89.9963091967419
_cell_angle_gamma    89.99737644108183

_space_group_name_H-M_alt    "P 1"
_space_group_IT_number       1

loop_
  _space_group_symop_operation_xyz
  'x, y, z'

loop_
  _atom_site_type_symbol
  _atom_site_label
  _atom_site_symmetry_multiplicity
  _atom_site_fract_x
  _atom_site_fract_y
  _atom_site_fract_z
  _atom_site_occupancy
  Ca  Ca1       1.0  9.72356482269999e-06  0.16047428701685365  0.1604546992651166  1.0000
  Ca  Ca2       1.0  1.6822007417299975e-05  0.6604544843822352  0.6604742174000151  1.0000
  H   H1        1.0  0.9846665360096621  0.4057234503394013  0.905723710632131  1.0000
  H   H2        1.0  0.015298844370882098  0.9057517110605747  0.40574714124888106  1.0000
  H   H3        1.0  0.7880916218043766  0.5247830677149282  0.024782455473015802  1.0000
  H   H4        1.0  0.21188347814865688  0.024796915409766  0.5247943421948378  1.0000
  H   H5        1.0  0.47998466327165795  0.35995055593364356  0.9789488084789467  1.0000
  H   H6        1.0  0.5200045142638601  0.9789379915599029  0.359939658814028  1.0000
  H   H7        1.0  0.5200018998753464  0.8599399045130627  0.47892961408799567  1.0000
  H   H8        1.0  0.4799782549854897  0.4789466977787172  0.8599553662392694  1.0000
  H   H9        1.0  0.841002177578325  0.8897013307675793  0.08561319238312869  1.0000
  H   H10       1.0  0.1590718951044465  0.0856410302895512  0.889692122376708  1.0000
  H   H11       1.0  0.15907316320385692  0.3896867782004208  0.5856385295366523  1.0000
  H   H12       1.0  0.8410171501116182  0.5856169594789408  0.3897046576527573  1.0000
  H   H13       1.0  0.44759382511006857  0.16887421291186663  0.7788137990539212  1.0000
  H   H14       1.0  0.5524131670430634  0.7788044372273646  0.16886282698488497  1.0000
  H   H15       1.0  0.552401728010146  0.6688687974819488  0.27880129464996634  1.0000
  H   H16       1.0  0.4475836085102358  0.2788089016521767  0.6688815755635673  1.0000
  H   H17       1.0  0.7581481220834762  0.40266678445551224  0.38588842955661573  1.0000
  H   H18       1.0  0.2417244746777172  0.3858672173183423  0.4025998255697303  1.0000
  H   H19       1.0  0.2417156993036896  0.9026060579041438  0.8858699934962428  1.0000
  H   H20       1.0  0.7581458293091077  0.8858854623303856  0.902667621784623  1.0000
  H   H21       1.0  0.6010962232073211  0.9726095144737672  0.10803119778941571  1.0000
  H   H22       1.0  0.39895806270154566  0.10803686233896313  0.9725933150094478  1.0000
  H   H23       1.0  0.3989552462566834  0.47258918188558846  0.6080381976352242  1.0000
  H   H24       1.0  0.6011026483909346  0.6080330543589838  0.472609565228062  1.0000
  H   H25       1.0  0.6115454841823933  0.28166121382064807  0.3711632583678792  1.0000
  H   H26       1.0  0.38902908032719813  0.3706663100686356  0.28163831910666204  1.0000
  H   H27       1.0  0.38901437203682576  0.7816405546856944  0.8706667241863429  1.0000
  H   H28       1.0  0.6115401129929979  0.871161031299543  0.7816629508699435  1.0000
  H   H29       1.0  0.8895147090229544  0.9328096970994585  0.6264895276621093  1.0000
  H   H30       1.0  0.11051492978470628  0.6265215537530366  0.9328525270807192  1.0000
  H   H31       1.0  0.11050734501905879  0.43284641300979854  0.12651256740005587  1.0000
  H   H32       1.0  0.8895117058917847  0.1264944952716789  0.43281416936844863  1.0000
  C   C1        1.0  0.7951258341994671  0.43280653460435303  0.9328126312018911  1.0000
  C   C2        1.0  0.20484390964698918  0.93282662224388  0.43282725224220553  1.0000
  C   C3        1.0  0.6601681363621309  0.3235263256854424  0.9378705604883137  1.0000
  C   C4        1.0  0.33981404661680875  0.937881238493972  0.3235360012401074  1.0000
  C   C5        1.0  0.3398133389284084  0.8235360221893093  0.43787519586693  1.0000
  C   C6        1.0  0.6601616258875325  0.43786573489215647  0.8235318342854826  1.0000
  C   C7        1.0  0.6221911473015994  0.21744656664579762  0.7941272471516284  1.0000
  C   C8        1.0  0.3777973916988485  0.7941296440005131  0.21744428494287144  1.0000
  C   C9        1.0  0.37779570682751284  0.7174486034445595  0.2941227535796571  1.0000
  C   C10       1.0  0.6221946370315196  0.29411890070951335  0.7174511623288212  1.0000
  C   C11       1.0  0.7654240505591546  0.27134915285471095  0.01992812050523443  1.0000
  C   C12       1.0  0.2345854809011243  0.019969281945009198  0.2713784371856462  1.0000
  C   C13       1.0  0.2345836679805657  0.7713799142576648  0.5199629882543065  1.0000
  C   C14       1.0  0.7654220152117189  0.5199259397579182  0.7713515550918971  1.0000
  C   C15       1.0  0.8174520248138604  0.1147229572669417  0.7484273871966067  1.0000
  C   C16       1.0  0.1825452041598155  0.7484344992910438  0.11472168583338072  1.0000
  C   C17       1.0  0.18253143812088274  0.6147257015562388  0.24843319378408787  1.0000
  C   C18       1.0  0.8174549631858951  0.24842595913938942  0.614720551555493  1.0000
  O   O1        1.0  0.6684894334723168  0.1723210927774588  0.01661597580875451  1.0000
  O   O2        1.0  0.33156118144116675  0.0166965527685647  0.17237665858674936  1.0000
  O   O3        1.0  0.3315662887968003  0.67236664389214  0.5166855768484596  1.0000
  O   O4        1.0  0.6684931100837589  0.5166219926407009  0.6723261783606205  1.0000
  O   O5        1.0  0.7667589164538952  0.9548834937026244  0.06741383377363536  1.0000
  O   O6        1.0  0.23330233247772714  0.06742715659856201  0.9548598528666475  1.0000
  O   O7        1.0  0.2333072374926246  0.45485564793126093  0.5674236514616311  1.0000
  O   O8        1.0  0.7667558154307557  0.5674134734746661  0.4548873013518175  1.0000
  O   O9        1.0  0.9466272538221289  0.32482331858503954  0.09385614690322805  1.0000
  O   O10       1.0  0.0533327862980926  0.0938951774760071  0.3248445996819171  1.0000
  O   O11       1.0  0.05332511025763151  0.8248453572336631  0.5938852926373671  1.0000
  O   O12       1.0  0.9466256679157256  0.5938547553611714  0.8248255894945018  1.0000
  O   O13       1.0  0.7508800404032882  0.30578546780515853  0.3383125093409376  1.0000
  O   O14       1.0  0.24855141342064263  0.33855441616375975  0.30573088853615366  1.0000
  O   O15       1.0  0.2485397449502003  0.8057328340615725  0.8385531467157606  1.0000
  O   O16       1.0  0.7508806357374098  0.838310613093391  0.8057851782876285  1.0000
  O   O17       1.0  0.024745055384080696  0.1381799633083816  0.7939131344027714  1.0000
  O   O18       1.0  0.9752583781752477  0.7939680636544466  0.13820816151987717  1.0000
  O   O19       1.0  0.9752549555596702  0.6382047257054496  0.2939678513659915  1.0000
  O   O20       1.0  0.0247484773868791  0.2939124019767121  0.6381834065444849  1.0000
  O   O21       1.0  0.7468844043634846  0.9996770912481029  0.6554121803505171  1.0000
  O   O22       1.0  0.2530886911154653  0.6553894808802738  0.9997064823366913  1.0000
  O   O23       1.0  0.25308013619621056  0.49970293603568205  0.1553827882154978  1.0000
  O   O24       1.0  0.7468859812413838  0.15541578719209076  0.49968209113056616  1.0000
