data_image0
_chemical_formula_structural       Y2H34C22N4O18
_chemical_formula_sum              "Y2 H34 C22 N4 O18"
_cell_length_a       9.974643940515403
_cell_length_b       10.156244942904145
_cell_length_c       10.405022607835194
_cell_angle_alpha    76.05737433732875
_cell_angle_beta     73.64177009035897
_cell_angle_gamma    66.29462533515286

_space_group_name_H-M_alt    "P 1"
_space_group_IT_number       1

loop_
  _space_group_symop_operation_xyz
  'x, y, z'

loop_
  _atom_site_type_symbol
  _atom_site_label
  _atom_site_symmetry_multiplicity
  _atom_site_fract_x
  _atom_site_fract_y
  _atom_site_fract_z
  _atom_site_occupancy
  Y   Y1        1.0  0.5653544668242316  0.4114772901716321  0.33799900000914823  1.0000
  Y   Y2        1.0  0.43464690093183833  0.5885101055848024  0.6620120406024911  1.0000
  H   H1        1.0  0.7506469514562042  0.49127479616108605  0.857478924643388  1.0000
  H   H2        1.0  0.24933991640329375  0.5087493543809102  0.14252223892177807  1.0000
  H   H3        1.0  0.25772883393448603  0.46731012513759407  0.3454683567394882  1.0000
  H   H4        1.0  0.7422635969414626  0.5326817827562637  0.6545468145142196  1.0000
  H   H5        1.0  0.3234634888200461  0.5919380909808183  0.25393573802082875  1.0000
  H   H6        1.0  0.6765379057445812  0.4080467070773465  0.7460904337942865  1.0000
  H   H7        1.0  0.38999005243809387  0.2132100411258833  0.21105984084742596  1.0000
  H   H8        1.0  0.6100168434934544  0.7867756687526396  0.7889135758617911  1.0000
  H   H9        1.0  0.37738286418193207  0.21344389173118122  0.3840525325722268  1.0000
  H   H10       1.0  0.6226201066425928  0.7865584906178639  0.6159260703094277  1.0000
  H   H11       1.0  0.5278260338664396  0.8989220928977061  0.22040495254692172  1.0000
  H   H12       1.0  0.47217055662389384  0.10105786326300148  0.7795882863618289  1.0000
  H   H13       1.0  0.3479689431045116  0.943843567928646  0.18748741859109688  1.0000
  H   H14       1.0  0.6520228432822461  0.05614118483254062  0.8125154599673154  1.0000
  H   H15       1.0  0.16133739200036235  0.9940073761770524  0.44360785366899347  1.0000
  H   H16       1.0  0.8386581663312567  0.005995523631575804  0.5563832445191964  1.0000
  H   H17       1.0  0.17764158715988293  0.14008011336017026  0.4939969251681689  1.0000
  H   H18       1.0  0.8223680318581684  0.8599273566030875  0.5059957561325134  1.0000
  H   H19       1.0  0.1429598055661572  0.1461919958448661  0.20777717200947882  1.0000
  H   H20       1.0  0.857043627985085  0.8538210126855931  0.7922176341444926  1.0000
  H   H21       1.0  0.13919769609459104  0.29211960513632107  0.2743207545896312  1.0000
  H   H22       1.0  0.8608056579032137  0.7078878093063139  0.7256717559563697  1.0000
  H   H23       1.0  0.907245237885057  0.2615950065242458  0.4565922511436825  1.0000
  H   H24       1.0  0.09276435730241428  0.7383980662197727  0.5433976408981637  1.0000
  H   H25       1.0  0.9023242510527537  0.1496133535300643  0.3529178058975476  1.0000
  H   H26       1.0  0.09768693109100463  0.8503899034177351  0.6470784796224791  1.0000
  H   H27       1.0  0.9212001713156467  0.2380128690351242  0.11840266901901945  1.0000
  H   H28       1.0  0.07881494129235027  0.7620051949139607  0.8815807818208229  1.0000
  H   H29       1.0  0.0032867270652730297  0.3728763214945446  0.0772575231364243  1.0000
  H   H30       1.0  0.996713986650924  0.6271500141578628  0.9227411259761382  1.0000
  H   H31       1.0  0.8033041913592952  0.5961880700408315  0.2209087764649809  1.0000
  H   H32       1.0  0.19668575000672925  0.40381946268416147  0.7791124311343652  1.0000
  H   H33       1.0  0.9731089609599832  0.49804262505923447  0.27901434438326334  1.0000
  H   H34       1.0  0.026893738695186204  0.5019612856531239  0.7209975816142703  1.0000
  C   C1        1.0  0.594843593099725  0.09807037974346142  0.27604999019028753  1.0000
  C   C2        1.0  0.40515555631578337  0.9019311124807813  0.7239337636511111  1.0000
  C   C3        1.0  0.4237352596246708  0.14231531775354261  0.3052454089229641  1.0000
  C   C4        1.0  0.5762730006857382  0.8576782349520613  0.6947312557883621  1.0000
  C   C5        1.0  0.40960080425166007  0.9180921404191125  0.26980357816754  1.0000
  C   C6        1.0  0.5903933214608301  0.0818948121113934  0.730199011792088  1.0000
  C   C7        1.0  0.4083920209192156  0.7723829473187821  0.35101506797416  1.0000
  C   C8        1.0  0.5916030993884788  0.2276103363450375  0.6490057142029784  1.0000
  C   C9        1.0  0.19894390603165849  0.086983330757505  0.40579528559338485  1.0000
  C   C10       1.0  0.8010572361690222  0.9130187185397315  0.5942002675975503  1.0000
  C   C11       1.0  0.10888036576617566  0.19465910651837254  0.30125177233570355  1.0000
  C   C12       1.0  0.8911261207417523  0.8053483356845702  0.6987408235876346  1.0000
  C   C13       1.0  0.9396725953864118  0.2380794753006654  0.3520784530150749  1.0000
  C   C14       1.0  0.06033470754900355  0.7619256638907003  0.647911660617325  1.0000
  C   C15       1.0  0.8992761497419793  0.35151728626627227  0.12610972885344987  1.0000
  C   C16       1.0  0.10073248658151365  0.6484958704222592  0.8738874411371572  1.0000
  C   C17       1.0  0.7790127249784149  0.4410993291498642  0.046582154061376  1.0000
  C   C18       1.0  0.22098147163831774  0.5589162868165545  0.9534231581488442  1.0000
  C   C19       1.0  0.8577330640689522  0.5040261304152907  0.2930036293396229  1.0000
  C   C20       1.0  0.14227099937757973  0.4959710949023304  0.7070058991340957  1.0000
  C   C21       1.0  0.7715760387746111  0.5354520142283192  0.43512068524891856  1.0000
  C   C22       1.0  0.22842196673371262  0.4645475842804316  0.5648937221242463  1.0000
  N   N1        1.0  0.3605367455005961  0.029378026589121507  0.3540808635158613  1.0000
  N   N2        1.0  0.6394665536758525  0.9706151653043732  0.6459126661274014  1.0000
  N   N3        1.0  0.8489877940683429  0.3694450624079906  0.2697224857540803  1.0000
  N   N4        1.0  0.15101290505396042  0.6305583348989001  0.7302785929829343  1.0000
  O   O1        1.0  0.6337142521551513  0.2120295674461659  0.25352015656636695  1.0000
  O   O2        1.0  0.3662883581224036  0.7879627620828344  0.7464786094139769  1.0000
  O   O3        1.0  0.6833772608652282  0.9718394972402892  0.2690002017966009  1.0000
  O   O4        1.0  0.3166354689381237  0.028149995529162204  0.7309590195647857  1.0000
  O   O5        1.0  0.37925506734573833  0.7585683178829399  0.47887337322371337  1.0000
  O   O6        1.0  0.6207462277031013  0.24143646579871364  0.5211338942445212  1.0000
  O   O7        1.0  0.4425165985944659  0.669251612134552  0.2830109111994403  1.0000
  O   O8        1.0  0.5574636925744797  0.3307306449223262  0.7170112285943091  1.0000
  O   O9        1.0  0.6418842304862551  0.521820020622819  0.4697388354898849  1.0000
  O   O10       1.0  0.3581228874059548  0.47816314090853496  0.5302746537255203  1.0000
  O   O11       1.0  0.8257621187650983  0.5696754039189926  0.5113159121907316  1.0000
  O   O12       1.0  0.17421550531368973  0.43032837204592056  0.48869723496611084  1.0000
  O   O13       1.0  0.6447056853475742  0.48817412945314953  0.10130279516912563  1.0000
  O   O14       1.0  0.35528993078337806  0.5118259979871171  0.8986996258664278  1.0000
  O   O15       1.0  0.8316107373713493  0.4576468308788363  0.9153435753662367  1.0000
  O   O16       1.0  0.1683788354152894  0.5423786080980763  0.0846612949443042  1.0000
  O   O17       1.0  0.3261498545843225  0.49279297746340933  0.2550406326249189  1.0000
  O   O18       1.0  0.6738348834219676  0.5071998788816927  0.7449725656118817  1.0000
