data_image0
_chemical_formula_structural       Zn4H38C55N4O20
_chemical_formula_sum              "Zn4 H38 C55 N4 O20"
_cell_length_a       9.662316515479008
_cell_length_b       11.048378724368163
_cell_length_c       26.324160720315522
_cell_angle_alpha    92.15743049422805
_cell_angle_beta     83.87916274682729
_cell_angle_gamma    89.73389060767143

_space_group_name_H-M_alt    "P 1"
_space_group_IT_number       1

loop_
  _space_group_symop_operation_xyz
  'x, y, z'

loop_
  _atom_site_type_symbol
  _atom_site_label
  _atom_site_symmetry_multiplicity
  _atom_site_fract_x
  _atom_site_fract_y
  _atom_site_fract_z
  _atom_site_occupancy
  Zn  Zn1       1.0  0.6371317011264636  0.4903914567875489  0.4966821554981919  1.0000
  Zn  Zn2       1.0  0.3498347351723296  0.4976469108246206  0.5058646505899986  1.0000
  Zn  Zn3       1.0  0.36258477526397576  0.5075689039462007  0.0866513124291615  1.0000
  Zn  Zn4       1.0  0.6502944870258672  0.5101714468583084  0.07475283610658322  1.0000
  H   H1        1.0  0.09229620293151439  0.6363712918033713  0.5596731381108242  1.0000
  H   H2        1.0  0.1592446603753501  0.35970618578991786  0.4489622683556078  1.0000
  H   H3        1.0  0.8306776820640849  0.6286569847286786  0.5511870226509856  1.0000
  H   H4        1.0  0.7219737162997076  0.8859531863561756  0.49776328181472007  1.0000
  H   H5        1.0  0.2767886344322932  0.8737811759298639  0.5093341882726818  1.0000
  H   H6        1.0  0.7087968079686887  0.11267141985815951  0.4998321902734943  1.0000
  H   H7        1.0  0.2610071856585989  0.5218884570398642  0.6739061951833135  1.0000
  H   H8        1.0  0.6999317864005262  0.4736454234646247  0.648888595445456  1.0000
  H   H9        1.0  0.7358065790370532  0.46756615874920027  0.905789741382897  1.0000
  H   H10       1.0  0.29729973549952143  0.5305770563983216  0.9331161982740923  1.0000
  H   H11       1.0  0.3016414364446475  0.43702643782816614  0.2487989933329544  1.0000
  H   H12       1.0  0.7122059918674352  0.5856324891001208  0.2382419982434385  1.0000
  H   H13       1.0  0.3010994698858979  0.43140310445019736  0.343856944380626  1.0000
  H   H14       1.0  0.9091698447492291  0.6289891332111425  0.0170555342541832  1.0000
  H   H15       1.0  0.8404885528199629  0.3892846794802338  0.1343106758689103  1.0000
  H   H16       1.0  0.16976440238110513  0.6276206552550789  0.027910257205668598  1.0000
  H   H17       1.0  0.2757740988047459  0.9023502722005363  0.08552650767502001  1.0000
  H   H18       1.0  0.721223358699696  0.8861282583950327  0.0714564041210224  1.0000
  H   H19       1.0  0.28765592147530583  0.1287195408465394  0.0834321511400233  1.0000
  H   H20       1.0  0.8175989321984358  0.25807229764654954  0.45279814159764  1.0000
  H   H21       1.0  0.8175518327360081  0.3672016932123157  0.4062805214094425  1.0000
  H   H22       1.0  0.9693367154528189  0.2728628552488388  0.4079122880173287  1.0000
  H   H23       1.0  0.13890271658794257  0.038522560726647705  0.5177753405652155  1.0000
  H   H24       1.0  0.20163713762443078  0.1796281788264267  0.5413929575462433  1.0000
  H   H25       1.0  0.19915120253535423  0.15332276865025563  0.4752359041532799  1.0000
  H   H26       1.0  0.8147079561508549  0.6500147088405939  0.3099524540032093  1.0000
  H   H27       1.0  0.7229757997561916  0.652913013032915  0.372627574104726  1.0000
  H   H28       1.0  0.8171834617505385  0.5225291773228022  0.3491561072751423  1.0000
  H   H29       1.0  0.17421524729459748  0.28410612983740446  0.1350505184347881  1.0000
  H   H30       1.0  0.18642001419516419  0.4110589122987419  0.17630943929471243  1.0000
  H   H31       1.0  0.02846686860077339  0.32420901540902497  0.1805928604480656  1.0000
  H   H32       1.0  0.8581717008105444  0.0488927960299321  0.0631480315307655  1.0000
  H   H33       1.0  0.7938630149858525  0.184866767460889  0.0389221358273275  1.0000
  H   H34       1.0  0.7980059111571195  0.1730343658339208  0.1051167682345948  1.0000
  H   H35       1.0  0.14287094181351986  0.5279103529274706  0.8979120370639252  1.0000
  H   H36       1.0  0.10770207614978486  0.500938019853365  0.7284959932640973  1.0000
  H   H37       1.0  0.9576079323676439  0.46632783299018854  0.8002661460487062  1.0000
  H   H38       1.0  0.8438345328864826  0.4202111986893656  0.6842922040120314  1.0000
  C   C1        1.0  0.5025011347339259  0.7309185704870131  0.5023447527170006  1.0000
  C   C2        1.0  0.47708649405223  0.4997349760252731  0.6012267486037928  1.0000
  C   C3        1.0  0.4905877656591215  0.25642778151826934  0.5023188849192834  1.0000
  C   C4        1.0  0.49840521295329415  0.4937867010268134  0.4012008524249425  1.0000
  C   C5        1.0  0.49620412103222117  0.7451838143098328  0.0799670350480213  1.0000
  C   C6        1.0  0.5202650014023574  0.5015726269096563  0.9807673170192289  1.0000
  C   C7        1.0  0.5055974016251953  0.27124272499906243  0.08009276779675639  1.0000
  C   C8        1.0  0.5108028910358797  0.514122595389196  0.1807662091872899  1.0000
  C   C9        1.0  0.9412487366129266  0.4121192262433978  0.4669496192191573  1.0000
  C   C10       1.0  0.04749386314638567  0.5729373237231385  0.533382900540353  1.0000
  C   C11       1.0  0.08416871740556074  0.4187457441790414  0.47183302516889825  1.0000
  C   C12       1.0  0.9056135781864041  0.5685681096179921  0.5287355794017969  1.0000
  C   C13       1.0  0.48629164809644704  0.1207913000301062  0.5036068266803326  1.0000
  C   C14       1.0  0.49913421736537333  0.8665416116109768  0.5031597537377124  1.0000
  C   C15       1.0  0.3609175421108617  0.054072022615272906  0.5068895587997702  1.0000
  C   C16       1.0  0.6222009799494684  0.9333312460812665  0.5003696910527822  1.0000
  C   C17       1.0  0.37130047652913584  0.9276954656184557  0.5067782161299803  1.0000
  C   C18       1.0  0.6144585898558289  0.05883650746898891  0.5010834232075752  1.0000
  C   C19       1.0  0.3576434323677801  0.5082840432442737  0.6910327620406491  1.0000
  C   C20       1.0  0.36166535133671823  0.5074477433290666  0.7442222644540594  1.0000
  C   C21       1.0  0.239010638300833  0.520300804184238  0.7797985387005043  1.0000
  C   C22       1.0  0.608483721007964  0.4806169082887879  0.6770420339853089  1.0000
  C   C23       1.0  0.6175269888295815  0.4775144913281935  0.7298305626811229  1.0000
  C   C24       1.0  0.7470551734015203  0.4596499918116947  0.7505119425590083  1.0000
  C   C25       1.0  0.6366732368823236  0.4800413920827893  0.8905381813746089  1.0000
  C   C26       1.0  0.6310484523125905  0.47822340425314996  0.8374573907903625  1.0000
  C   C27       1.0  0.7553543191533764  0.460922790591539  0.8025730792261712  1.0000
  C   C28       1.0  0.38745855907541227  0.5150246503410826  0.9048822040367811  1.0000
  C   C29       1.0  0.37741006892408535  0.512348924113013  0.8522204982476183  1.0000
  C   C30       1.0  0.24661868940987824  0.5253484130851618  0.8317519569381844  1.0000
  C   C31       1.0  0.48036701791335185  0.49587769991540404  0.6578697324784599  1.0000
  C   C32       1.0  0.49288815398627134  0.4927324725858001  0.7641508768876834  1.0000
  C   C33       1.0  0.5155397098458963  0.4983649552500183  0.9240045959479346  1.0000
  C   C34       1.0  0.5005101376142491  0.4939140460501151  0.8175523896063341  1.0000
  C   C35       1.0  0.5072683605914534  0.5022852237424188  0.3442556295385658  1.0000
  C   C36       1.0  0.5084170529795954  0.5103136602768927  0.2377592688944432  1.0000
  C   C37       1.0  0.6256285303223664  0.5478004366436693  0.31494598767064014  1.0000
  C   C38       1.0  0.3914142448671996  0.4672202794153791  0.2674448708800199  1.0000
  C   C39       1.0  0.6229872182036759  0.5503243520643509  0.2618974984500753  1.0000
  C   C40       1.0  0.39156864462511  0.46387460385723506  0.32008847959474457  1.0000
  C   C41       1.0  0.05814659386552989  0.4373311394686681  0.1162075651745198  1.0000
  C   C42       1.0  0.9533269634312872  0.5749138209657189  0.045244923315813396  1.0000
  C   C43       1.0  0.9157159337190562  0.44079437459510745  0.11021937613335811  1.0000
  C   C44       1.0  0.09464337117574219  0.573902772661704  0.0511247247374982  1.0000
  C   C45       1.0  0.5102842107970105  0.13522538982804383  0.0786506567981604  1.0000
  C   C46       1.0  0.498809319947206  0.8808038384956661  0.0790139156082645  1.0000
  C   C47       1.0  0.6360510887546552  0.067232845483872  0.07464207823330331  1.0000
  C   C48       1.0  0.3753513737723538  0.9487917501434213  0.08243561773773679  1.0000
  C   C49       1.0  0.6263210618495876  0.9408871361587644  0.0746842694443615  1.0000
  C   C50       1.0  0.3823865212194661  0.07423433432514058  0.08174442173877591  1.0000
  C   C51       1.0  0.8849465504795045  0.3223129981167717  0.431068802067074  1.0000
  C   C52       1.0  0.21722956283375078  0.10935442875445031  0.5107224328701818  1.0000
  C   C53       1.0  0.7515650428466073  0.5963562928300945  0.33788996902942614  1.0000
  C   C54       1.0  0.1134705644562217  0.35991191963288577  0.1546574570555421  1.0000
  C   C55       1.0  0.7794687388141526  0.12133163473454542  0.07005379189481431  1.0000
  N   N1        1.0  0.8537418703793662  0.48874066580427933  0.4960614342881016  1.0000
  N   N2        1.0  0.13549289123898933  0.49722158140897244  0.5047138461120397  1.0000
  N   N3        1.0  0.1458798576373681  0.5056514692027533  0.0861207234256298  1.0000
  N   N4        1.0  0.8649955498613339  0.5080886706324321  0.07522684853620382  1.0000
  O   O1        1.0  0.6207192255829171  0.678083710436468  0.493805729301343  1.0000
  O   O2        1.0  0.38521278836520156  0.6783660458966525  0.510079936407756  1.0000
  O   O3        1.0  0.35937989343035776  0.490723638352982  0.5836750256590904  1.0000
  O   O4        1.0  0.59421174364995  0.5112249047965493  0.5744523305029646  1.0000
  O   O5        1.0  0.37739972090908225  0.313447397241255  0.49832227739318574  1.0000
  O   O6        1.0  0.6085767746454421  0.3064297918042059  0.5048354448678865  1.0000
  O   O7        1.0  0.6119915555594345  0.4763715854260299  0.42082868831055015  1.0000
  O   O8        1.0  0.3783667519252773  0.5031910821347267  0.4261282929112086  1.0000
  O   O9        1.0  0.3787092623959154  0.6945727737992443  0.09010365107916131  1.0000
  O   O10       1.0  0.6133103340594558  0.6904216406514223  0.07064187997760742  1.0000
  O   O11       1.0  0.6379941095405782  0.4874096967955809  0.9975595847141179  1.0000
  O   O12       1.0  0.40441175531036316  0.5184885909863582  0.008411350460363601  1.0000
  O   O13       1.0  0.6186219066725441  0.3283090302003657  0.0842370773422445  1.0000
  O   O14       1.0  0.38751675220277093  0.3217670786104705  0.077727638691357  1.0000
  O   O15       1.0  0.39466638838426604  0.4994312779332475  0.16230894690050957  1.0000
  O   O16       1.0  0.6274500071230379  0.5308461763246727  0.15489073712241463  1.0000
  O   O17       1.0  0.12496035825103749  0.5417465475195372  0.8628795130825184  1.0000
  O   O18       1.0  0.10802366760738377  0.5301009622123515  0.7638836600614738  1.0000
  O   O19       1.0  0.8752434092823193  0.4448889951770952  0.8237107245960615  1.0000
  O   O20       1.0  0.8690748151934288  0.440871419733739  0.718386776208483  1.0000
