data_image0
_chemical_formula_structural       Zn2H20C32N4O10
_chemical_formula_sum              "Zn2 H20 C32 N4 O10"
_cell_length_a       7.92388138759583
_cell_length_b       7.989589760375625
_cell_length_c       13.196754308307897
_cell_angle_alpha    107.8154628313582
_cell_angle_beta     101.38644680716118
_cell_angle_gamma    98.91607709869852

_space_group_name_H-M_alt    "P 1"
_space_group_IT_number       1

loop_
  _space_group_symop_operation_xyz
  'x, y, z'

loop_
  _atom_site_type_symbol
  _atom_site_label
  _atom_site_symmetry_multiplicity
  _atom_site_fract_x
  _atom_site_fract_y
  _atom_site_fract_z
  _atom_site_occupancy
  Zn  Zn1       1.0  0.23989521499157732  0.6345193962719694  0.17367871162232262  1.0000
  Zn  Zn2       1.0  0.7601042728589178  0.365484173784779  0.8263204289487476  1.0000
  H   H1        1.0  0.04497222212137335  0.8309859633569376  0.34528113806062793  1.0000
  H   H2        1.0  0.9550178668026988  0.1690042216521519  0.6547176547160376  1.0000
  H   H3        1.0  0.10805606206388776  0.9488501389663357  0.5526797543534842  1.0000
  H   H4        1.0  0.8919305820161155  0.051136094795161624  0.4473202360250356  1.0000
  H   H5        1.0  0.3888375733983622  0.9139122647672483  0.6652253822099041  1.0000
  H   H6        1.0  0.6111574808646266  0.08608869909004116  0.33477506839903276  1.0000
  H   H7        1.0  0.6642378267601146  0.7939590608483801  0.6679030637452003  1.0000
  H   H8        1.0  0.3357575060957458  0.20604317912578557  0.3320961204318564  1.0000
  H   H9        1.0  0.8514526793808057  0.6302136031574224  0.5666004078785322  1.0000
  H   H10       1.0  0.1485370311232614  0.3697806653903088  0.43339979263435424  1.0000
  H   H11       1.0  0.9084295863970978  0.46330195049866785  0.3794524376517998  1.0000
  H   H12       1.0  0.09157283162184637  0.5367031675773009  0.6205511007123264  1.0000
  H   H13       1.0  0.807427161585892  0.3591786406736547  0.17436000932161727  1.0000
  H   H14       1.0  0.1925808681573216  0.6408344115774085  0.8256417470738953  1.0000
  H   H15       1.0  0.5348979195606134  0.43251802619096946  0.085378304996425  1.0000
  H   H16       1.0  0.46510621252576806  0.5674948975916934  0.914620697307619  1.0000
  H   H17       1.0  0.9483721635055957  0.6896495882359235  0.06687639390205653  1.0000
  H   H18       1.0  0.051626093070467526  0.3103484675884688  0.9331193904357987  1.0000
  H   H19       1.0  0.0553110993139257  0.8703650939186364  0.15948700296642931  1.0000
  H   H20       1.0  0.9446833233705404  0.12963305694544403  0.8405106210767103  1.0000
  C   C1        1.0  0.4664827718158122  0.9660459495126691  0.028821001519979506  1.0000
  C   C2        1.0  0.5335267313662159  0.0339620466651027  0.9711868910312164  1.0000
  C   C3        1.0  0.3876665480532966  0.8835291304755163  0.0973631504760135  1.0000
  C   C4        1.0  0.6123362908957973  0.11647205306720564  0.9026420426830627  1.0000
  C   C5        1.0  0.1641146761904794  0.8187730619872726  0.39754174364758654  1.0000
  C   C6        1.0  0.8358794572735632  0.1812237755085775  0.6024563811946351  1.0000
  C   C7        1.0  0.20053967891311694  0.8835164051257111  0.513130138554921  1.0000
  C   C8        1.0  0.7994538973651616  0.11647788013637246  0.48687051915105434  1.0000
  C   C9        1.0  0.35367898196801656  0.8638115432929113  0.5752795167830058  1.0000
  C   C10       1.0  0.6463180497818684  0.1361867304681184  0.4247207089539061  1.0000
  C   C11       1.0  0.4697001652447099  0.7766233735685052  0.5209248567932506  1.0000
  C   C12       1.0  0.5303003326043125  0.22337892594281078  0.4790757026073892  1.0000
  C   C13       1.0  0.6286662278010908  0.7455652357987432  0.5781252813302302  1.0000
  C   C14       1.0  0.3713316822375816  0.25443701531833096  0.421874207642226  1.0000
  C   C15       1.0  0.733037481372932  0.6551083070946009  0.521098287460326  1.0000
  C   C16       1.0  0.2669557271128867  0.3448900989574712  0.47890454361466084  1.0000
  C   C17       1.0  0.6887270955672947  0.5903086538153703  0.40310367469184893  1.0000
  C   C18       1.0  0.31126986823808533  0.40969509135522514  0.5968989892477837  1.0000
  C   C19       1.0  0.7884786210102207  0.4926508852743155  0.3390358803358495  1.0000
  C   C20       1.0  0.21151734342416975  0.507354167693059  0.6609661304070046  1.0000
  C   C21       1.0  0.733533556549105  0.43480617331523064  0.22541277366363494  1.0000
  C   C22       1.0  0.26646397506957703  0.565200161340478  0.7745881230450422  1.0000
  C   C23       1.0  0.5792742869971195  0.4754452201369974  0.1749152258078724  1.0000
  C   C24       1.0  0.42072540087421123  0.5245650601948598  0.8250843209012474  1.0000
  C   C25       1.0  0.5337411713024596  0.6221565628112206  0.3446511031021019  1.0000
  C   C26       1.0  0.46625616029538003  0.3778430615693866  0.6553493874685189  1.0000
  C   C27       1.0  0.4219675289765448  0.7147870878137755  0.40410819657525826  1.0000
  C   C28       1.0  0.578030081214173  0.2852138126837149  0.5958910275634821  1.0000
  C   C29       1.0  0.08463263486657274  0.2570443706759918  0.11595462211830213  1.0000
  C   C30       1.0  0.9153837405611895  0.7429483289904725  0.884041623217378  1.0000
  C   C31       1.0  0.025147916144852907  0.07489247311776381  0.0352102769360556  1.0000
  C   C32       1.0  0.9748722146024634  0.925105565667231  0.9647858012642773  1.0000
  N   N1        1.0  0.4827969204705199  0.5664308137325522  0.23324868866207996  1.0000
  N   N2        1.0  0.517202578007513  0.43357279357555006  0.7667512175417741  1.0000
  N   N3        1.0  0.2719438502061707  0.7370235398144445  0.34465805787266396  1.0000
  N   N4        1.0  0.7280538491841284  0.2629719637761739  0.6553402593289377  1.0000
  O   O1        1.0  0.32773200293758026  0.7108091277670855  0.055435828130242726  1.0000
  O   O2        1.0  0.6722733388015668  0.2891918061591028  0.9445643103946821  1.0000
  O   O3        1.0  0.38179201145179326  0.9809343352475752  0.19103398797383156  1.0000
  O   O4        1.0  0.6182044524847897  0.01906134902833401  0.8089680049940356  1.0000
  O   O5        1.0  0.11721098296345643  0.3807266169288469  0.07254661288514092  1.0000
  O   O6        1.0  0.8828001914092524  0.6192716063640874  0.9274529923280569  1.0000
  O   O7        1.0  0.09863129936847062  0.28286767897590454  0.2154111105851229  1.0000
  O   O8        1.0  0.9013774230829127  0.7171195531036435  0.7845825477944502  1.0000
  O   O9        1.0  0.007297957274872144  0.7436386269202375  0.1481729986316651  1.0000
  O   O10       1.0  0.9926977433734548  0.2563594922639468  0.8518240121763797  1.0000
