data_image0
_chemical_formula_structural       Zn6H18C68I20Cl22O24
_chemical_formula_sum              "Zn6 H18 C68 I20 Cl22 O24"
_cell_length_a       21.614786528538456
_cell_length_b       21.7732443396708
_cell_length_c       21.934342073780726
_cell_angle_alpha    60.13001464765759
_cell_angle_beta     60.7996322987849
_cell_angle_gamma    89.76696997343612

_space_group_name_H-M_alt    "P 1"
_space_group_IT_number       1

loop_
  _space_group_symop_operation_xyz
  'x, y, z'

loop_
  _atom_site_type_symbol
  _atom_site_label
  _atom_site_symmetry_multiplicity
  _atom_site_fract_x
  _atom_site_fract_y
  _atom_site_fract_z
  _atom_site_occupancy
  Zn  Zn1       1.0  0.035310729076386126  0.9993298810093872  0.5063821301782667  1.0000
  Zn  Zn2       1.0  0.9129932386548208  0.002260639670140671  0.49956107619651385  1.0000
  Zn  Zn3       1.0  0.514595433621267  0.5632980579173577  0.4988383200582335  1.0000
  Zn  Zn4       1.0  0.5169450266413165  0.44242658927660017  0.4897439152017781  1.0000
  Zn  Zn5       1.0  0.9681012165398287  0.458611049344654  0.589365208280533  1.0000
  Zn  Zn6       1.0  0.053352657751467907  0.5454050713978518  0.41422221594538666  1.0000
  H   H1        1.0  0.9133448263403781  0.21228844072457773  0.5128410942648998  1.0000
  H   H2        1.0  0.8942772593108258  0.2121701935690792  0.6596364248649565  1.0000
  H   H3        1.0  0.018288007318091125  0.2445011837478716  0.40910031003095076  1.0000
  H   H4        1.0  0.9898301203846671  0.3310275866142617  0.43528534244168776  1.0000
  H   H5        1.0  0.3249721798316971  0.36224578426426735  0.9615778813671412  1.0000
  H   H6        1.0  0.8299202003402611  0.7758744598245709  0.016492026883383935  1.0000
  H   H7        1.0  0.9131942649776976  0.6287378405373828  0.6605435608663157  1.0000
  H   H8        1.0  0.9644070250840147  0.7237540536787607  0.43575924971234764  1.0000
  H   H9        1.0  0.8775776999205864  0.7674004196452414  0.5827953413462197  1.0000
  H   H10       1.0  0.7194170504354317  0.5917629029671048  0.45110961669045224  1.0000
  H   H11       1.0  0.7691486723884682  0.46802918603838634  0.38299099529992003  1.0000
  H   H12       1.0  0.8341901140977587  0.396439352007434  0.48010647322984545  1.0000
  H   H13       1.0  0.7644642164989012  0.38750528739378615  0.5865374713427726  1.0000
  H   H14       1.0  0.3001275792183833  0.18569722134729005  0.951513503899406  1.0000
  H   H15       1.0  0.2568438928043194  0.40090663692282646  0.5840173557760125  1.0000
  H   H16       1.0  0.20838625318670267  0.4010553759570569  0.49621465756017363  1.0000
  H   H17       1.0  0.30022551656963975  0.20746105741596912  0.06906833990962721  1.0000
  H   H18       1.0  0.3150349315950295  0.5823684328961888  0.3338604332636238  1.0000
  C   C1        1.0  0.9960120033850258  0.10899651193099663  0.5210049602154428  1.0000
  C   C2        1.0  0.1840311803788666  0.21577539970009943  0.08662898079190744  1.0000
  C   C3        1.0  0.27135874886201355  0.21903781134174927  0.9732198281617246  1.0000
  C   C4        1.0  0.28643418724119135  0.3053914752485624  0.9122025733060113  1.0000
  C   C5        1.0  0.18531280008549808  0.20488027243817433  0.019585104688602  1.0000
  C   C6        1.0  0.19828386347730032  0.29042732487198475  0.9606142876462728  1.0000
  C   C7        1.0  0.13076515108852507  0.17058978091321106  0.17519551405244016  1.0000
  C   C8        1.0  0.3372973858890733  0.35180455373709674  0.8230024650378096  1.0000
  C   C9        1.0  0.027929416554805252  0.16681162342089098  0.5871713590633263  1.0000
  C   C10       1.0  0.03616152941567217  0.2436180123397802  0.5822163744125605  1.0000
  C   C11       1.0  0.0434093856132094  0.2464549396354485  0.4413648749708372  1.0000
  C   C12       1.0  0.03667832589591311  0.08551861970570229  0.3427180615670693  1.0000
  C   C13       1.0  0.9189495562450462  0.1868052350855506  0.5665635491872152  1.0000
  C   C14       1.0  0.9969761101676939  0.17316261943754804  0.5332577392393887  1.0000
  C   C15       1.0  0.9980740621219296  0.2935989199235108  0.5399686152878117  1.0000
  C   C16       1.0  0.03364910509947095  0.31543923441453353  0.44615776218308417  1.0000
  C   C17       1.0  0.9173578631533276  0.24126780675553047  0.591741954465121  1.0000
  C   C18       1.0  0.6866177946629577  0.7003152630238599  0.041016469189436675  1.0000
  C   C19       1.0  0.667818585667895  0.7707930260556493  0.9910517759754144  1.0000
  C   C20       1.0  0.8151391325640349  0.8846942486561101  0.7506782917826699  1.0000
  C   C21       1.0  0.6431244698139694  0.6625577231846903  0.24721154896126035  1.0000
  C   C22       1.0  0.7717075244547474  0.7401131445086901  0.9663890359506623  1.0000
  C   C23       1.0  0.9948580391435659  0.8809880302424202  0.5099308902653873  1.0000
  C   C24       1.0  0.7530742543271747  0.8110655598935066  0.9145443253504625  1.0000
  C   C25       1.0  0.7838126498517755  0.7744923779504588  0.00883169541334884  1.0000
  C   C26       1.0  0.6990239396685785  0.73466236843624  0.08484034376527194  1.0000
  C   C27       1.0  0.7647378362069831  0.8440976761053063  0.9599537430341274  1.0000
  C   C28       1.0  0.6797694104367057  0.8052034958059834  0.03415574727524261  1.0000
  C   C29       1.0  0.7836886822375179  0.850604586583593  0.8271787911417973  1.0000
  C   C30       1.0  0.6711281797628602  0.6963974451263155  0.1713661527143984  1.0000
  C   C31       1.0  0.06182104594251582  0.7783944595151622  0.5227546463930892  1.0000
  C   C32       1.0  0.05081823465559409  0.6948969551029406  0.5434623604916666  1.0000
  C   C33       1.0  0.9189774811751549  0.7453444419615564  0.5944236108516134  1.0000
  C   C34       1.0  0.8625957022071592  0.9258726343655964  0.6597818194665949  1.0000
  C   C35       1.0  0.9990993184436335  0.8158444463315674  0.4382330442935257  1.0000
  C   C36       1.0  0.9953527861486583  0.8064076685018478  0.5169155172546168  1.0000
  C   C37       1.0  0.9905999710398917  0.6777007106111624  0.5288047737362119  1.0000
  C   C38       1.0  0.9172172956647915  0.6714117619587583  0.6027666180454289  1.0000
  C   C39       1.0  0.0071098105305368205  0.7435664655568529  0.4406358514732177  1.0000
  C   C40       1.0  0.6331222082185023  0.4742532407310732  0.49060473503311663  1.0000
  C   C41       1.0  0.42998645552071235  0.43896285738331653  0.6550209634331097  1.0000
  C   C42       1.0  0.40904236114641196  0.49139825722009073  0.4751401004541905  1.0000
  C   C43       1.0  0.6003220856239653  0.6134244283215293  0.33810624571224684  1.0000
  C   C44       1.0  0.14813984626826499  0.5231799217705697  0.45951628112753434  1.0000
  C   C45       1.0  0.28499385107425473  0.316542588006939  0.9788690303540764  1.0000
  C   C46       1.0  0.9965470734009403  0.3652865023105106  0.5412689969774007  1.0000
  C   C47       1.0  0.9084451310962862  0.5042269262628307  0.4725414831532363  1.0000
  C   C48       1.0  0.9864811864869767  0.6027129906738933  0.5341120853940707  1.0000
  C   C49       1.0  0.7541182324907326  0.5626675555133926  0.42666239443901344  1.0000
  C   C50       1.0  0.8266798604504331  0.5753520154708622  0.42499070647193093  1.0000
  C   C51       1.0  0.6891855886395462  0.44799833888340845  0.576265731686114  1.0000
  C   C52       1.0  0.7571170433333096  0.43984996821745886  0.44689422899247677  1.0000
  C   C53       1.0  0.7067687764603292  0.4779549324340167  0.4865541340709072  1.0000
  C   C54       1.0  0.8356549687111754  0.49794679844706746  0.4744078918703424  1.0000
  C   C55       1.0  0.763288262606686  0.44374484164470834  0.5701218860315507  1.0000
  C   C56       1.0  0.19900445792861632  0.30262711726219743  0.025179634185967404  1.0000
  C   C57       1.0  0.8319290659350076  0.45105499101346413  0.43967691223641475  1.0000
  C   C58       1.0  0.2673297252553226  0.46029977058008587  0.5586974234554063  1.0000
  C   C59       1.0  0.19989649487835967  0.4809101004570947  0.5538313395812082  1.0000
  C   C60       1.0  0.34865492856254604  0.5838976245375916  0.4101809679846581  1.0000
  C   C61       1.0  0.32605433590713784  0.45390515581798513  0.43467171363073476  1.0000
  C   C62       1.0  0.3413384517874291  0.4991403269170575  0.4674274183288177  1.0000
  C   C63       1.0  0.2194061600513564  0.5142232276908912  0.4617933704384357  1.0000
  C   C64       1.0  0.2904731436768346  0.5860593337252095  0.38857790097375033  1.0000
  C   C65       1.0  0.24904537074296237  0.45628094055079055  0.4417582036974181  1.0000
  C   C66       1.0  0.0841921793225708  0.13188382176392102  0.2515545362451378  1.0000
  C   C67       1.0  0.3800938659029925  0.3923251000166842  0.7460213222714243  1.0000
  C   C68       1.0  0.2715256700377538  0.23139229580222315  0.03748731146735909  1.0000
  I   I1        1.0  0.14269515043412181  0.3670680088888644  0.06602056273288784  1.0000
  I   I2        1.0  0.8128442203794394  0.09657123013683104  0.6595590651495585  1.0000
  I   I3        1.0  0.5797362527520704  0.7690188577298187  0.9756873282571165  1.0000
  I   I4        1.0  0.6257812687855593  0.5892234106094775  0.10614094336927585  1.0000
  I   I5        1.0  0.6096308770190152  0.8547111071977154  0.08804127115828186  1.0000
  I   I6        1.0  0.8439710068581193  0.6909679484734141  0.912990890676049  1.0000
  I   I7        1.0  0.01900059074015551  0.607002463912245  0.6759814837383759  1.0000
  I   I8        1.0  0.8725887576536522  0.7287131084938702  0.7173593685563235  1.0000
  I   I9        1.0  0.8941323899032911  0.8268745197513141  0.44147277551194736  1.0000
  I   I10       1.0  0.0758546617628043  0.926838190025748  0.31835837874950834  1.0000
  I   I11       1.0  0.10504657723112133  0.7666997618008222  0.3211046831487965  1.0000
  I   I12       1.0  0.8112452423195865  0.6187770714845583  0.6349068524898911  1.0000
  I   I13       1.0  0.923387214736323  0.6612660824607839  0.2950258989003912  1.0000
  I   I14       1.0  0.1073691807400792  0.1172773756542256  0.05338890098916241  1.0000
  I   I15       1.0  0.7492543055814876  0.4285085385089998  0.682883170445642  1.0000
  I   I16       1.0  0.10996420041882966  0.36831665632618626  0.6497685973288371  1.0000
  I   I17       1.0  0.27942893869049373  0.6959239322103626  0.32950639877142135  1.0000
  I   I18       1.0  0.46001851748673794  0.6551183939633701  0.28852108672800364  1.0000
  I   I19       1.0  0.949173053407094  0.06183434167937199  0.7141231637487878  1.0000
  I   I20       1.0  0.9914810588709247  0.21370661181921954  0.7133731345147323  1.0000
  Cl  Cl1       1.0  0.13022448058551114  0.29854861495051915  0.518560001573114  1.0000
  Cl  Cl2       1.0  0.13680409213598205  0.24977062067956976  0.3784443977399548  1.0000
  Cl  Cl3       1.0  0.11387628869452021  0.39417227923866693  0.35684669277154774  1.0000
  Cl  Cl4       1.0  0.8549590144664593  0.29183489867953233  0.5758375308328495  1.0000
  Cl  Cl5       1.0  0.8127980992925716  0.9352663086692343  0.9108718416878074  1.0000
  Cl  Cl6       1.0  0.06654741995200919  0.7797327279512912  0.6009988761996965  1.0000
  Cl  Cl7       1.0  0.15006774090733904  0.8403764513388623  0.4258650359874779  1.0000
  Cl  Cl8       1.0  0.1344456429385303  0.6858760153066115  0.4795904933132463  1.0000
  Cl  Cl9       1.0  0.1526484555328339  0.3278283226093206  0.9115921485875446  1.0000
  Cl  Cl10      1.0  0.7672838340242054  0.5998060512240002  0.3260831658849881  1.0000
  Cl  Cl11      1.0  0.8171034075685526  0.6176637479617922  0.48026316458607  1.0000
  Cl  Cl12      1.0  0.6465549979042465  0.5047023033190141  0.6118545087583557  1.0000
  Cl  Cl13      1.0  0.7183868794956112  0.3429720713728416  0.49497485281167997  1.0000
  Cl  Cl14      1.0  0.9082232885018376  0.48169113603525904  0.3356710884813338  1.0000
  Cl  Cl15      1.0  0.6217189507142891  0.3562992384439525  0.6542391878637163  1.0000
  Cl  Cl16      1.0  0.27121430452284306  0.46324127025810197  0.6360304439129579  1.0000
  Cl  Cl17      1.0  0.16490848215273252  0.5379677784733301  0.5886083358353532  1.0000
  Cl  Cl18      1.0  0.3372625142855983  0.6288170387119648  0.4622645291765295  1.0000
  Cl  Cl19      1.0  0.40337511881887883  0.4866049081353905  0.3317889319386254  1.0000
  Cl  Cl20      1.0  0.3118329017131245  0.35500385316753835  0.5007529120456127  1.0000
  Cl  Cl21      1.0  0.25503671463887667  0.46810763559717106  0.3532629459314266  1.0000
  Cl  Cl22      1.0  0.1142832247405394  0.14831652090655462  0.5597632288866023  1.0000
  O   O1        1.0  0.043881228076792005  0.07504987282632673  0.5247341265371973  1.0000
  O   O2        1.0  0.6079356814222052  0.42534707439512687  0.48524269619105814  1.0000
  O   O3        1.0  0.4501936473831592  0.5099593445331364  0.6203988593554399  1.0000
  O   O4        1.0  0.4499113270650169  0.4072553324200354  0.6161324007190745  1.0000
  O   O5        1.0  0.43291260604220855  0.5379133428444617  0.4828741185039931  1.0000
  O   O6        1.0  0.43450148087878665  0.4379947876119842  0.47604291302357643  1.0000
  O   O7        1.0  0.5816512935713122  0.6432170966421394  0.3801255424389181  1.0000
  O   O8        1.0  0.582944156176332  0.5443535506771227  0.3688945963422441  1.0000
  O   O9        1.0  0.08579047331521394  0.4952919455187016  0.5290536351981885  1.0000
  O   O10       1.0  0.15578348822570834  0.5574646372461912  0.3875652052144006  1.0000
  O   O11       1.0  0.9616376576578602  0.3568153525745288  0.6132868088170652  1.0000
  O   O12       1.0  0.9516195452867252  0.0979067650744907  0.5033422215513781  1.0000
  O   O13       1.0  0.028366543604818256  0.42751452462533723  0.47102980940698574  1.0000
  O   O14       1.0  0.9016675340173633  0.46948077011081296  0.5427203532454287  1.0000
  O   O15       1.0  0.9706105193262863  0.5429257422476682  0.40000533225644824  1.0000
  O   O16       1.0  0.9566601021754557  0.5405126121222781  0.6067624955804829  1.0000
  O   O17       1.0  0.01336387535446456  0.6080787665243221  0.4655179990917375  1.0000
  O   O18       1.0  0.06910351478463646  0.0674680051293705  0.38131152635876486  1.0000
  O   O19       1.0  0.9653063811977206  0.06588436880463876  0.3782598255764995  1.0000
  O   O20       1.0  0.04904435409677895  0.9139030950299155  0.5029172041649448  1.0000
  O   O21       1.0  0.9403711544167166  0.9034406166440331  0.5120288532998886  1.0000
  O   O22       1.0  0.9319688192979356  0.9380463732308825  0.627784025383683  1.0000
  O   O23       1.0  0.8321280306290998  0.947803461119946  0.6176521598850899  1.0000
  O   O24       1.0  0.60234545592499  0.5209426433658064  0.5001006534813612  1.0000
