data_image0
_chemical_formula_structural       Cd2H30C48N4O10
_chemical_formula_sum              "Cd2 H30 C48 N4 O10"
_cell_length_a       7.626162122291552
_cell_length_b       12.083466040385026
_cell_length_c       12.335820907277801
_cell_angle_alpha    80.49845852715
_cell_angle_beta     74.9146188598996
_cell_angle_gamma    84.6557947254147

_space_group_name_H-M_alt    "P 1"
_space_group_IT_number       1

loop_
  _space_group_symop_operation_xyz
  'x, y, z'

loop_
  _atom_site_type_symbol
  _atom_site_label
  _atom_site_symmetry_multiplicity
  _atom_site_fract_x
  _atom_site_fract_y
  _atom_site_fract_z
  _atom_site_occupancy
  Cd  Cd1       1.0  0.7408079345513201  0.030791523621616107  0.49574995717786413  1.0000
  Cd  Cd2       1.0  0.25919641978408237  0.9692031258847322  0.5042516541307834  1.0000
  H   H1        1.0  0.9428133242404043  0.07332050952966543  0.6921979425969909  1.0000
  H   H2        1.0  0.05718026596171908  0.92667422672222  0.30779722944003407  1.0000
  H   H3        1.0  0.44909630656309923  0.910601436556192  0.7617798395861969  1.0000
  H   H4        1.0  0.5508899028032559  0.08939935185274812  0.23823493889470626  1.0000
  H   H5        1.0  0.5683300359220665  0.8881885423550884  0.9600295511950563  1.0000
  H   H6        1.0  0.43166638826762943  0.11182388583066682  0.039982512576784764  1.0000
  H   H7        1.0  0.9525369929480759  0.7963331739767555  0.836639319139735  1.0000
  H   H8        1.0  0.047475026684928395  0.20367143935173002  0.16335457885543292  1.0000
  H   H9        1.0  0.1658816023454719  0.6400405513915217  0.8807770809498124  1.0000
  H   H10       1.0  0.8341211372027432  0.3599591466527486  0.1192223245086978  1.0000
  H   H11       1.0  0.3500270378416844  0.6512650115593744  0.018320619031513292  1.0000
  H   H12       1.0  0.6499730078864729  0.3487338855115921  0.9816809614635532  1.0000
  H   H13       1.0  0.3193772280221411  0.8186975476500394  0.11333098835166308  1.0000
  H   H14       1.0  0.6806281862170492  0.18130213452136706  0.8866712445353572  1.0000
  H   H15       1.0  0.3292010857867425  0.21133007590437108  0.4063527507762217  1.0000
  H   H16       1.0  0.6707963423856141  0.7886679930635341  0.5936453225725771  1.0000
  H   H17       1.0  0.5466075089556242  0.3535337136922792  0.2975172458506705  1.0000
  H   H18       1.0  0.4533940673133401  0.6464626357631078  0.7024820857245756  1.0000
  H   H19       1.0  0.8978943672717462  0.4006188681018799  0.28133167265116305  1.0000
  H   H20       1.0  0.10210555063045494  0.5993825453941568  0.7186687000355506  1.0000
  H   H21       1.0  0.11581858936654034  0.5478111522256697  0.17427180082260924  1.0000
  H   H22       1.0  0.884181352986161  0.4521894289214786  0.825730327367559  1.0000
  H   H23       1.0  0.31879196643450314  0.5716155640825562  0.3821372857756842  1.0000
  H   H24       1.0  0.6812066821522789  0.4283850094982996  0.617860181738621  1.0000
  H   H25       1.0  0.40691367502169834  0.7219278396074885  0.46943180140617363  1.0000
  H   H26       1.0  0.5930889964964406  0.2780727062883912  0.5305690955104936  1.0000
  H   H27       1.0  0.7972630291701605  0.8303803168107323  0.15783744469958802  1.0000
  H   H28       1.0  0.20273973216783495  0.16961937348217762  0.8421603372781163  1.0000
  H   H29       1.0  0.7122588657837526  0.6777981426408034  0.06865422472581166  1.0000
  H   H30       1.0  0.2877397583525294  0.322203263288941  0.9313414872850457  1.0000
  C   C1        1.0  0.8218909440581682  0.028095861232088706  0.7356271655883404  1.0000
  C   C2        1.0  0.1781066363906447  0.9718988589618647  0.26437387107225874  1.0000
  C   C3        1.0  0.569443973805832  0.9407300481291119  0.7761823714032657  1.0000
  C   C4        1.0  0.43054218665952954  0.0592724049775981  0.22382889607073508  1.0000
  C   C5        1.0  0.625025802633182  0.9294170007112471  0.8748763607652066  1.0000
  C   C6        1.0  0.37497118467408797  0.07058616699336541  0.1251330965537392  1.0000
  C   C7        1.0  0.8949902680517353  0.9929916244108272  0.9240995158884786  1.0000
  C   C8        1.0  0.10501359943033609  0.0070122584468919  0.07589901969024743  1.0000
  C   C9        1.0  0.012865144777620692  0.9010762331279594  0.9484529450689722  1.0000
  C   C10       1.0  0.9871428572454518  0.09892675869044613  0.051544281492347514  1.0000
  C   C11       1.0  0.03168151096112838  0.8018185624329349  0.8971299743772079  1.0000
  C   C12       1.0  0.968323702100605  0.19818613321020004  0.10286578419111687  1.0000
  C   C13       1.0  0.1508196750330555  0.7148092526992258  0.9217836312277683  1.0000
  C   C14       1.0  0.8491816346890956  0.2851921334819707  0.07821409647119273  1.0000
  C   C15       1.0  0.2560701623313618  0.7211478519799857  0.999911274753444  1.0000
  C   C16       1.0  0.7439312643218512  0.2788510216518318  8.847249426940012e-05  1.0000
  C   C17       1.0  0.24018209167238067  0.8147881499372576  0.052257945931820836  1.0000
  C   C18       1.0  0.7598247034918728  0.1852115087949926  0.9477424537078464  1.0000
  C   C19       1.0  0.879194107362025  0.09189328542736058  0.9726233833721808  1.0000
  C   C20       1.0  0.12081263890122787  0.9081080380026664  0.02737350526058434  1.0000
  C   C21       1.0  0.9729111340936782  0.20477016452737468  0.40874901556834  1.0000
  C   C22       1.0  0.027085016529078076  0.795226243803505  0.5912503433327032  1.0000
  C   C23       1.0  0.0998049766052276  0.2954040467244924  0.3491197863532066  1.0000
  C   C24       1.0  0.9001910244017849  0.7045948857828179  0.6508799882202964  1.0000
  C   C25       1.0  0.28209166223119553  0.28363323886083697  0.35435153045122547  1.0000
  C   C26       1.0  0.7179042136105735  0.7163673854740156  0.645650415298192  1.0000
  C   C27       1.0  0.404529390649074  0.3638870261079745  0.29393846129443096  1.0000
  C   C28       1.0  0.5954707231091518  0.6361110231113827  0.7060616277424786  1.0000
  C   C29       1.0  0.040315428379614084  0.3908924864199437  0.2838782955731247  1.0000
  C   C30       1.0  0.959684685378612  0.6091055627994211  0.7161217934637775  1.0000
  C   C31       1.0  0.1611687924855971  0.4726291672519238  0.2239169216264898  1.0000
  C   C32       1.0  0.8388310927319297  0.527372257871157  0.7760858862814287  1.0000
  C   C33       1.0  0.34289849063025457  0.4575068502297839  0.22895459077388136  1.0000
  C   C34       1.0  0.6571016340228654  0.5424911951138967  0.7710446865226217  1.0000
  C   C35       1.0  0.5107537160504376  0.616210606425284  0.220216189220281  1.0000
  C   C36       1.0  0.48923931103411167  0.38379339030774423  0.779781589269632  1.0000
  C   C37       1.0  0.42427311700532744  0.6276932241243501  0.3330845000198934  1.0000
  C   C38       1.0  0.5757212229742095  0.3723115970211309  0.6669129366808236  1.0000
  C   C39       1.0  0.47405823932073327  0.711998872398695  0.3817798599101891  1.0000
  C   C40       1.0  0.5259417248217487  0.28800170099709294  0.6182206447991733  1.0000
  C   C41       1.0  0.6080418932220938  0.7856124992275187  0.31897550233778554  1.0000
  C   C42       1.0  0.39196231973174633  0.21438549517709757  0.6810223339186621  1.0000
  C   C43       1.0  0.6934189257864319  0.7727901027568295  0.20596259301921552  1.0000
  C   C44       1.0  0.30658247641628816  0.22720960322386938  0.7940353987250434  1.0000
  C   C45       1.0  0.6462103239218778  0.6885292252159305  0.15626705195286655  1.0000
  C   C46       1.0  0.353781319576889  0.3114756195537752  0.8437291808001463  1.0000
  C   C47       1.0  0.6571273555895375  0.8771132969035522  0.37066368065404026  1.0000
  C   C48       1.0  0.34287967901030914  0.12288298204930474  0.6293331883742042  1.0000
  N   N1        1.0  0.6937272241344915  0.0020712904250146007  0.6903347607192103  1.0000
  N   N2        1.0  0.3062663522599961  0.9979209797856612  0.3096721717513944  1.0000
  N   N3        1.0  0.7855488652916377  0.9850519150609788  0.8478568047909505  1.0000
  N   N4        1.0  0.2144510879559576  0.014948662210493102  0.15214451165881832  1.0000
  O   O1        1.0  0.02067741872456  0.12608614296979684  0.48050578943117733  1.0000
  O   O2        1.0  0.9793182748167836  0.8739170171685232  0.5194990072119056  1.0000
  O   O3        1.0  0.8193435180188684  0.20641706536393664  0.38497910500105803  1.0000
  O   O4        1.0  0.1806610704306948  0.7935758535580532  0.6150122177276531  1.0000
  O   O5        1.0  0.5664120492600374  0.8897004149652618  0.47318233917017233  1.0000
  O   O6        1.0  0.4335936262045335  0.1102958796753839  0.5268147396246192  1.0000
  O   O7        1.0  0.7829921180752349  0.9411094816186036  0.3169172355991777  1.0000
  O   O8        1.0  0.21701356828422289  0.058886809146358104  0.6830790314552077  1.0000
  O   O9        1.0  0.4668961862865402  0.5363617388101077  0.1649415721545893  1.0000
  O   O10       1.0  0.5331039383665797  0.4636363065335729  0.8350577051419137  1.0000
