data_image0
_chemical_formula_structural       Al4H26C100N12Cl18O40
_chemical_formula_sum              "Al4 H26 C100 N12 Cl18 O40"
_cell_length_a       6.822260666876705
_cell_length_b       28.05430934127534
_cell_length_c       31.759657663522823
_cell_angle_alpha    78.27280874901723
_cell_angle_beta     89.39829854682242
_cell_angle_gamma    89.24689948918774

_space_group_name_H-M_alt    "P 1"
_space_group_IT_number       1

loop_
  _space_group_symop_operation_xyz
  'x, y, z'

loop_
  _atom_site_type_symbol
  _atom_site_label
  _atom_site_symmetry_multiplicity
  _atom_site_fract_x
  _atom_site_fract_y
  _atom_site_fract_z
  _atom_site_occupancy
  Al  Al1       1.0  0.10944354242581505  0.49988063869209765  0.5011676967230727  1.0000
  Al  Al2       1.0  0.6055844551953554  0.5011184918970459  0.4993022998829063  1.0000
  Al  Al3       1.0  0.6971824519769144  0.001675870271391502  0.9998100807846555  1.0000
  Al  Al4       1.0  0.19815927886329374  0.997569699863583  0.9981316449804041  1.0000
  H   H1        1.0  0.5923560771644959  0.6344901752230359  0.4089978122841629  1.0000
  H   H2        1.0  0.21145664384695811  0.8544289558270037  0.7115464375983009  1.0000
  H   H3        1.0  0.18910778837027212  0.943580336141615  0.8854968044820096  1.0000
  H   H4        1.0  0.8344064968747916  0.3253129942799546  0.24017672334567663  1.0000
  H   H5        1.0  0.0969133452134443  0.38643158658572224  0.4374234262074665  1.0000
  H   H6        1.0  0.7068520340172099  0.10967727801068614  0.162206066161545  1.0000
  H   H7        1.0  0.7026909815421903  0.05868092376063322  0.1064792746076719  1.0000
  H   H8        1.0  0.1536934699648711  0.17412576486508166  0.11450292155500821  1.0000
  H   H9        1.0  0.6526223990363532  0.42014029900348515  0.6174504654542616  1.0000
  H   H10       1.0  0.11617172103075289  0.30216752101696903  0.6617395971300086  1.0000
  H   H11       1.0  0.31908820073069677  0.5825623297754848  0.40437552431195906  1.0000
  H   H12       1.0  0.563866261784561  0.609087063000409  0.7720440419437438  1.0000
  H   H13       1.0  0.9890669201343913  0.6325789348161023  0.5019666660341643  1.0000
  H   H14       1.0  0.43405039324282757  0.597705165035258  0.6686182397810825  1.0000
  H   H15       1.0  0.8974551855016059  0.15544833685740408  0.2362854046904204  1.0000
  H   H16       1.0  0.015207236556136603  0.17868917449777647  0.36702621449712325  1.0000
  H   H17       1.0  0.8301438993138532  0.28970305384223144  0.13820440511504734  1.0000
  H   H18       1.0  0.574044588852253  0.5074284128110876  0.3791420881538272  1.0000
  H   H19       1.0  0.06052643115913978  0.3768992168304807  0.5519471905383924  1.0000
  H   H20       1.0  0.06998100496017659  0.10050094595442265  0.9385254182416958  1.0000
  H   H21       1.0  0.5445362145095273  0.906831199144392  0.06623637762194791  1.0000
  H   H22       1.0  0.5933970303941224  0.8205335566803456  0.2232275992976156  1.0000
  H   H23       1.0  0.35384133548574687  0.5622314480812065  0.5068714713333974  1.0000
  H   H24       1.0  0.8589817576995246  0.44010585193004215  0.4947457148838552  1.0000
  H   H25       1.0  0.46249765290856704  0.9411741717321078  0.9883315505038369  1.0000
  H   H26       1.0  0.9565793516577087  0.056411344818847915  0.011751621040467303  1.0000
  C   C1        1.0  0.3653889980373108  0.4516468209973823  0.4467638791386222  1.0000
  C   C2        1.0  0.35772053733130343  0.43589752758217776  0.5625637619988028  1.0000
  C   C3        1.0  0.8436771893420881  0.5514984673244003  0.5524349869322975  1.0000
  C   C4        1.0  0.8637527143564296  0.5651831249489307  0.43742739489189825  1.0000
  C   C5        1.0  0.03895300991665348  0.6055502087069656  0.37037436429190523  1.0000
  C   C6        1.0  0.04283960213353309  0.6410897215755186  0.3324527851928636  1.0000
  C   C7        1.0  0.8916513175762688  0.6760490355603894  0.32257666726416545  1.0000
  C   C8        1.0  0.7307566048521608  0.6737934968719163  0.35090390219695416  1.0000
  C   C9        1.0  0.7182184949114756  0.6367685606677255  0.3873596382632911  1.0000
  C   C10       1.0  0.8726450103494795  0.6033284933340115  0.39715888127773263  1.0000
  C   C11       1.0  0.9220836908906803  0.7832623767739266  0.2163740425234053  1.0000
  C   C12       1.0  0.903447138885511  0.7151026936792777  0.2835174966781365  1.0000
  C   C13       1.0  0.1078004205833025  0.8385357436887164  0.15781983248393067  1.0000
  C   C14       1.0  0.1096792217341473  0.8835333346227261  0.12849456925596314  1.0000
  C   C15       1.0  0.937360685472477  0.8989707696686511  0.10481242618138961  1.0000
  C   C16       1.0  0.7587351816512607  0.8772468401723119  0.11994233938044366  1.0000
  C   C17       1.0  0.7551019509924898  0.8472741657135502  0.1619408048714277  1.0000
  C   C18       1.0  0.9283760804603176  0.8227164405799672  0.17755777147696253  1.0000
  C   C19       1.0  0.8778461352316781  0.64945206987575  0.7195785147397588  1.0000
  C   C20       1.0  0.09775327439005108  0.7039046246564454  0.673709719805494  1.0000
  C   C21       1.0  0.07266633011406037  0.7406498317706466  0.7008621943671969  1.0000
  C   C22       1.0  0.9402590741066205  0.730456114843591  0.736534794040125  1.0000
  C   C23       1.0  0.8414625476562634  0.6853677720877442  0.7472519183341434  1.0000
  C   C24       1.0  0.17289401617444608  0.7848111179658093  0.6931402293363861  1.0000
  C   C25       1.0  0.13759469980975328  0.8195067945480121  0.7190384497493127  1.0000
  C   C26       1.0  0.011036762119438505  0.8094362149140438  0.7538537608567921  1.0000
  C   C27       1.0  0.9129582488856939  0.7642705203452638  0.7637063155400483  1.0000
  C   C28       1.0  0.7777513415376162  0.755033004440854  0.7984772895612124  1.0000
  C   C29       1.0  0.6834005213414898  0.7102823586915437  0.8085133247999535  1.0000
  C   C30       1.0  0.7232839374717557  0.6739816281668569  0.7839019420024869  1.0000
  C   C31       1.0  0.9738141887657646  0.8464224848571791  0.780440600566493  1.0000
  C   C32       1.0  0.7364926106162386  0.7961343785570776  0.820372487107818  1.0000
  C   C33       1.0  0.821416642718063  0.838614875035667  0.89711322077698  1.0000
  C   C34       1.0  0.81537133243485  0.8699677209976857  0.9265468919473391  1.0000
  C   C35       1.0  0.9392639766885721  0.9103579035857625  0.9205120483346647  1.0000
  C   C36       1.0  0.07708969897279867  0.9159488237319952  0.8873167564683796  1.0000
  C   C37       1.0  0.0776929655879641  0.886703659939535  0.85687381047142  1.0000
  C   C38       1.0  0.9297046180217307  0.8510918949730953  0.8576078961275114  1.0000
  C   C39       1.0  0.9712524306164596  0.6607301953431064  0.599534976938024  1.0000
  C   C40       1.0  0.9624546170557053  0.626911170874408  0.5727340076737804  1.0000
  C   C41       1.0  0.841401387713617  0.5857852202852457  0.5827904252550908  1.0000
  C   C42       1.0  0.7186326596666249  0.581334254993948  0.6188511858023134  1.0000
  C   C43       1.0  0.7336264570353919  0.6136201508936666  0.6475287439793291  1.0000
  C   C44       1.0  0.886656136230215  0.6489942618508663  0.6416203523416755  1.0000
  C   C45       1.0  0.5819235107317268  0.20717915410789806  0.1731665505404152  1.0000
  C   C46       1.0  0.2749385268844193  0.16588244530633042  0.2045942362485818  1.0000
  C   C47       1.0  0.2690093760700094  0.19734627160915622  0.23675748687390546  1.0000
  C   C48       1.0  0.4184365549832662  0.23197172414727166  0.23637010558337576  1.0000
  C   C49       1.0  0.5701862335676751  0.23855311920655714  0.20504458866001582  1.0000
  C   C50       1.0  0.12226375405875702  0.19184446741758887  0.2685510057463318  1.0000
  C   C51       1.0  0.1326344657653138  0.21716036538580144  0.30306581372808244  1.0000
  C   C52       1.0  0.27867712990895643  0.25140832134228935  0.3025288649746826  1.0000
  C   C53       1.0  0.4176398172222093  0.2603397225660871  0.2685820921943147  1.0000
  C   C54       1.0  0.5684745956339083  0.2940785608048203  0.2693946711797039  1.0000
  C   C55       1.0  0.716761366213852  0.2998010343283398  0.23870077656370373  1.0000
  C   C56       1.0  0.7163703374836955  0.2729298871938398  0.2056883305412569  1.0000
  C   C57       1.0  0.3055347650596402  0.27637735484390913  0.3390307411057805  1.0000
  C   C58       1.0  0.5743749313771076  0.32206465936253187  0.30413623256421124  1.0000
  C   C59       1.0  0.4758971547123849  0.40376182812499206  0.3456183453000606  1.0000
  C   C60       1.0  0.49194080835292187  0.43190743416591476  0.3771345897590663  1.0000
  C   C61       1.0  0.36040296910528713  0.4232195142014916  0.4122331727747125  1.0000
  C   C62       1.0  0.21337878288815657  0.38916581278120793  0.4134552909200266  1.0000
  C   C63       1.0  0.2107879555341299  0.3582250692446964  0.38431685365880247  1.0000
  C   C64       1.0  0.36327551988996726  0.35996217399159053  0.35291290390703983  1.0000
  C   C65       1.0  0.5851685026471076  0.11228375757099944  0.139946224929993  1.0000
  C   C66       1.0  0.5822538485996843  0.08382656244888413  0.10898748652670781  1.0000
  C   C67       1.0  0.4255393226703815  0.08593490431655941  0.080281230721404  1.0000
  C   C68       1.0  0.27009401321675597  0.11890793875840444  0.08269014979203598  1.0000
  C   C69       1.0  0.27352587063140277  0.14845737934230396  0.1130927448031684  1.0000
  C   C70       1.0  0.42952640991270397  0.14459193698894524  0.14155682596913982  1.0000
  C   C71       1.0  0.5354801929727059  0.3942081282993898  0.6273302636137998  1.0000
  C   C72       1.0  0.5515912616855089  0.35937652574101275  0.665347827682659  1.0000
  C   C73       1.0  0.40017135916439633  0.32576946139246854  0.6781891235514976  1.0000
  C   C74       1.0  0.23381227315061176  0.3282717699367197  0.652567548987605  1.0000
  C   C75       1.0  0.2159163864122888  0.3626140407858785  0.6141122943782592  1.0000
  C   C76       1.0  0.3688167506864133  0.3962237513978906  0.6018424261800703  1.0000
  C   C77       1.0  0.42484961625833517  0.2181376754431384  0.783993958133216  1.0000
  C   C78       1.0  0.4122511394384245  0.2869455035796237  0.7172579891123689  1.0000
  C   C79       1.0  0.6061028090400741  0.16671882587188247  0.8456268137342917  1.0000
  C   C80       1.0  0.6157755049481181  0.1209052827775423  0.874244349394175  1.0000
  C   C81       1.0  0.44121606490795523  0.10261876535363264  0.8953395472319059  1.0000
  C   C82       1.0  0.2599904619357858  0.12367480809772502  0.8795488626769983  1.0000
  C   C83       1.0  0.2640068897044329  0.15181260877259456  0.8369888995722122  1.0000
  C   C84       1.0  0.4312265569116818  0.1786137607825253  0.8226055553263762  1.0000
  C   C85       1.0  0.44429598938555864  0.06292129995772913  0.9351927197570689  1.0000
  C   C86       1.0  0.4363870386114925  0.052637892493137904  0.0492665950541564  1.0000
  C   C87       1.0  0.9458814115653809  0.9368784717995454  0.06359141593472369  1.0000
  C   C88       1.0  0.9437359826187901  0.9456309803996349  0.9497971754640986  1.0000
  C   C89       1.0  0.21272235266110331  0.5715055448923608  0.38186773894972964  1.0000
  C   C90       1.0  0.639904475898902  0.623424699263893  0.7974331118762521  1.0000
  C   C91       1.0  0.07736331569925169  0.6342053994505435  0.5309903725808098  1.0000
  C   C92       1.0  0.5632378754894135  0.6184286805793137  0.67509562576776  1.0000
  C   C93       1.0  0.9457189351569967  0.1612340802763512  0.2679368387468486  1.0000
  C   C94       1.0  0.9803707480990553  0.20813160759990987  0.3390614783433037  1.0000
  C   C95       1.0  0.8760130629638424  0.2830147211746521  0.17228947360158034  1.0000
  C   C96       1.0  0.635886155432445  0.47291360611077965  0.3725392708396456  1.0000
  C   C97       1.0  0.0456816226396271  0.3584878909645539  0.5862314618504599  1.0000
  C   C98       1.0  0.10701928482234987  0.13143993119344094  0.9125553721273079  1.0000
  C   C99       1.0  0.5965472743054789  0.8738651992446481  0.08819172442617432  1.0000
  C   C100      1.0  0.613637658479753  0.8528554603246763  0.19703018703057743  1.0000
  N   N1        1.0  0.7725469353428521  0.7141238707359253  0.2522379861793951  1.0000
  N   N2        1.0  0.7828640170009251  0.749121423364891  0.2173871356909274  1.0000
  N   N3        1.0  0.049273772606341006  0.7848484571130855  0.2484164595577383  1.0000
  N   N4        1.0  0.04046117778042908  0.7495369824357426  0.28296055775489043  1.0000
  N   N5        1.0  0.9287267820945145  0.6727517982150604  0.6747546273741918  1.0000
  N   N6        1.0  0.9095062354166642  0.8255416357556206  0.8239633201733696  1.0000
  N   N7        1.0  0.42604895514131863  0.17490436462323802  0.17315769726991453  1.0000
  N   N8        1.0  0.3909305729716905  0.3244756256332624  0.32734937452011076  1.0000
  N   N9        1.0  0.2635483597473254  0.2846998772281709  0.7459423175128208  1.0000
  N   N10       1.0  0.2717412928008187  0.24964032123072144  0.7807416623939147  1.0000
  N   N11       1.0  0.5692585260367906  0.21919579411876813  0.754345955665393  1.0000
  N   N12       1.0  0.5644624041701222  0.25510001628382645  0.7202423118172163  1.0000
  Cl  Cl1       1.0  0.5157921790898924  0.6984042702768036  0.8498227230095523  1.0000
  Cl  Cl2       1.0  0.72043663258507  0.7820913721539003  0.9134712135076201  1.0000
  Cl  Cl3       1.0  0.6725403557536679  0.8550389807263702  0.9722805741679821  1.0000
  Cl  Cl4       1.0  0.2814898889952389  0.8918328236518323  0.8240537216589486  1.0000
  Cl  Cl5       1.0  0.0536690976508396  0.7180626094979061  0.5769295367315479  1.0000
  Cl  Cl6       1.0  0.5550852137228333  0.5340772267941034  0.6311005264291865  1.0000
  Cl  Cl7       1.0  0.23613320246938233  0.6422057416154987  0.2968088545456312  1.0000
  Cl  Cl8       1.0  0.5599419170349477  0.4297282054592416  0.29477694449888503  1.0000
  Cl  Cl9       1.0  0.0011369143648706972  0.3250125172659041  0.38542568882224515  1.0000
  Cl  Cl10      1.0  0.5498660085890846  0.7180967265563396  0.3416920129505812  1.0000
  Cl  Cl11      1.0  0.07342186679646552  0.12782232174177474  0.0477974693620169  1.0000
  Cl  Cl12      1.0  0.7544423123668337  0.35942933039767416  0.6969915100658428  1.0000
  Cl  Cl13      1.0  0.7860044866839289  0.20884361889752517  0.8396854075420636  1.0000
  Cl  Cl14      1.0  0.8238252421863592  0.08575710106951111  0.8782059696368805  1.0000
  Cl  Cl15      1.0  0.08338524640434031  0.14958111841254856  0.8004611408979656  1.0000
  Cl  Cl16      1.0  0.3111136326597261  0.8025029575725358  0.16978110981170855  1.0000
  Cl  Cl17      1.0  0.30505996378617795  0.920987596199929  0.12609831199231536  1.0000
  Cl  Cl18      1.0  0.3364969453164477  0.8009965974501371  0.6513460466421961  1.0000
  O   O1        1.0  0.5197826615072642  0.44895847012350754  0.5438328559540935  1.0000
  O   O2        1.0  0.20354210819908047  0.457809189355473  0.46556892293524044  1.0000
  O   O3        1.0  0.029364239761932302  0.5475293186437682  0.45148788971076204  1.0000
  O   O4        1.0  0.18830845741671004  0.4536195805769412  0.551373055598738  1.0000
  O   O5        1.0  0.012558082542263097  0.5419722143907891  0.5382771291277706  1.0000
  O   O6        1.0  0.5318825776225538  0.46712635173228995  0.4559807950104613  1.0000
  O   O7        1.0  0.3549633299881237  0.5311097649304629  0.49787601828735717  1.0000
  O   O8        1.0  0.6804302744297742  0.5368659630334208  0.5417940424071617  1.0000
  O   O9        1.0  0.6967217729839845  0.5544385393348321  0.4545953291322178  1.0000
  O   O10       1.0  0.8584154514533607  0.4718370640944017  0.5024450265680613  1.0000
  O   O11       1.0  0.8964356915224059  0.6056851375715767  0.7322625966214816  1.0000
  O   O12       1.0  0.24413261895796268  0.6983635928564597  0.6529129973551875  1.0000
  O   O13       1.0  0.9887806245402047  0.8900670173461692  0.7667773810619424  1.0000
  O   O14       1.0  0.5741369403546841  0.8073454515227072  0.8313417098574192  1.0000
  O   O15       1.0  0.7221842220061134  0.20813444290891434  0.1481456259833323  1.0000
  O   O16       1.0  0.1609685283348057  0.13221281153616365  0.20483550390886757  1.0000
  O   O17       1.0  0.2673703396969103  0.2567597375686148  0.3760040712897634  1.0000
  O   O18       1.0  0.7233834365217433  0.3412684116859524  0.3127612611332822  1.0000
  O   O19       1.0  0.2766406769241883  0.03850807274651661  0.03581830795221921  1.0000
  O   O20       1.0  0.6068632790141706  0.052332018949790914  0.954108630507193  1.0000
  O   O21       1.0  0.7804219944831557  0.9615120022220797  0.9611541248885088  1.0000
  O   O22       1.0  0.6079891910232716  0.040202754515775006  0.0391021368270259  1.0000
  O   O23       1.0  0.7816500180512164  0.9549169958733048  0.04940788576129759  1.0000
  O   O24       1.0  0.2805433390997081  0.04308452329194521  0.94725628686016  1.0000
  O   O25       1.0  0.4518123036075253  0.9690097594415334  0.002196537572125111  1.0000
  O   O26       1.0  0.11163475144150678  0.9474527939591084  0.045914908496911315  1.0000
  O   O27       1.0  0.11291056292053271  0.9575888724257313  0.9602927231697862  1.0000
  O   O28       1.0  0.9497134010030877  0.029750350028223207  0.996405947191846  1.0000
  O   O29       1.0  0.24151747814099175  0.5358932139187333  0.36612063416094287  1.0000
  O   O30       1.0  0.655626685321124  0.6004633511807  0.8341391906046739  1.0000
  O   O31       1.0  0.25350409524834555  0.6411288836449034  0.5283895255984489  1.0000
  O   O32       1.0  0.5495347311273235  0.6455946673376118  0.7010120289625663  1.0000
  O   O33       1.0  0.8538041261078603  0.14509773729671596  0.3010828712271163  1.0000
  O   O34       1.0  0.8337897106316134  0.23382336939425846  0.3376574641573243  1.0000
  O   O35       1.0  0.04740900790857689  0.2864803781167566  0.18233679799158153  1.0000
  O   O36       1.0  0.8076343272909412  0.4689207946892254  0.362523036354844  1.0000
  O   O37       1.0  0.8989675582046105  0.33499939888793756  0.5990728532596707  1.0000
  O   O38       1.0  0.0526885645384425  0.17315256821686384  0.9126312826642079  1.0000
  O   O39       1.0  0.5453770915634024  0.8330317756144014  0.08516951440122968  1.0000
  O   O40       1.0  0.5507047252933006  0.8928869468676057  0.20042344758345365  1.0000
