data_image0
_chemical_formula_structural       Zn2H32C54N4O14
_chemical_formula_sum              "Zn2 H32 C54 N4 O14"
_cell_length_a       9.516951819310533
_cell_length_b       11.0557199923144
_cell_length_c       28.091499224810292
_cell_angle_alpha    91.69558241779423
_cell_angle_beta     91.65514680513945
_cell_angle_gamma    87.79379186376723

_space_group_name_H-M_alt    "P 1"
_space_group_IT_number       1

loop_
  _space_group_symop_operation_xyz
  'x, y, z'

loop_
  _atom_site_type_symbol
  _atom_site_label
  _atom_site_symmetry_multiplicity
  _atom_site_fract_x
  _atom_site_fract_y
  _atom_site_fract_z
  _atom_site_occupancy
  Zn  Zn1       1.0  0.3586306656139725  0.5046820876473673  0.4972547224662308  1.0000
  Zn  Zn2       1.0  0.6405874669555233  0.49479972219371154  0.503033313004643  1.0000
  H   H1        1.0  0.7121639022873436  0.5377957598353618  0.6561281801675491  1.0000
  H   H2        1.0  0.2867678041441124  0.468806655595202  0.34432208791111674  1.0000
  H   H3        1.0  0.4773690527028761  0.8025984583018656  0.8806677167220587  1.0000
  H   H4        1.0  0.49167035905679757  0.1971513674661907  0.11956498142951233  1.0000
  H   H5        1.0  0.7304932062064253  0.5217942340633783  0.3525081303028729  1.0000
  H   H6        1.0  0.2712565323339291  0.4725465418483381  0.6475588688228201  1.0000
  H   H7        1.0  0.7354242985415523  0.5258076076263122  0.2629214133711956  1.0000
  H   H8        1.0  0.2661533632199635  0.4677474327637014  0.7371524688384526  1.0000
  H   H9        1.0  0.5244258350470047  0.802532259378516  0.1259846433939913  1.0000
  H   H10       1.0  0.5046118704745908  0.19500927868017465  0.8741639148991924  1.0000
  H   H11       1.0  0.5142949261906224  0.8060026627664809  0.03784293124262921  1.0000
  H   H12       1.0  0.5079561400543964  0.19170452488533843  0.9623136875841922  1.0000
  H   H13       1.0  0.4869417313376657  0.806551708937896  0.9688945989267597  1.0000
  H   H14       1.0  0.48667975224928023  0.1928641590669997  0.03130962242864401  1.0000
  H   H15       1.0  0.7217600016133046  0.8779220793072401  0.5107287477463347  1.0000
  H   H16       1.0  0.27546340768888194  0.12157623118456229  0.48959281405215915  1.0000
  H   H17       1.0  0.7238812768056136  0.105400450395372  0.5107547204315781  1.0000
  H   H18       1.0  0.27332785608975735  0.894058821303787  0.4895807997641414  1.0000
  H   H19       1.0  0.8648898032298147  0.36044273651278047  0.4494802572063109  1.0000
  H   H20       1.0  0.13438011912027997  0.6389988841212073  0.5507732336636124  1.0000
  H   H21       1.0  0.8649619427918933  0.6308002957596485  0.5549671950869737  1.0000
  H   H22       1.0  0.13440704467508618  0.36837486496465743  0.44543937746009743  1.0000
  H   H23       1.0  0.8350418064204774  0.6664353602416639  0.7221363599115096  1.0000
  H   H24       1.0  0.8865929257079943  0.5147980825371975  0.70459253170597  1.0000
  H   H25       1.0  0.9938339767867248  0.47693188612070253  0.7843637098362708  1.0000
  H   H26       1.0  0.06318690148161468  0.6111669551495851  0.7620171378910428  1.0000
  H   H27       1.0  0.9321025644829672  0.6218974854751238  0.8060621152917307  1.0000
  H   H28       1.0  0.11042157981531629  0.5032393445364461  0.2945453027654993  1.0000
  H   H29       1.0  0.15882140196187317  0.3481183836558658  0.28163532222177423  1.0000
  H   H30       1.0  0.06721121452672209  0.37699367097659564  0.19619626675287805  1.0000
  H   H31       1.0  0.9338668441220149  0.4008073828200195  0.2389808900558208  1.0000
  H   H32       1.0  0.0095154313835408  0.5272931125478026  0.21270085436835737  1.0000
  C   C1        1.0  0.4964787967037125  0.7377376875801785  0.5003378812591351  1.0000
  C   C2        1.0  0.5008487338460765  0.2617671442518272  0.49998808247871557  1.0000
  C   C3        1.0  0.49801728098037046  0.507163807429933  0.594189218489831  1.0000
  C   C4        1.0  0.5025892689363688  0.49294346892997964  0.4061144127341123  1.0000
  C   C5        1.0  0.4805383958317719  0.6120558146518106  0.8214797353015515  1.0000
  C   C6        1.0  0.5073656621495032  0.3870567375573445  0.1787176298226286  1.0000
  C   C7        1.0  0.4925142468126679  0.3852455972914939  0.8189540589441293  1.0000
  C   C8        1.0  0.5197476398899211  0.6130197994139195  0.18116560942159776  1.0000
  C   C9        1.0  0.3633316099246001  0.4829446598917002  0.7189743131459212  1.0000
  C   C10       1.0  0.6377019265671534  0.5132477875758497  0.2811649715463744  1.0000
  C   C11       1.0  0.36582824933987007  0.4860397528169784  0.6694721250971939  1.0000
  C   C12       1.0  0.6352843674652957  0.5106658047027538  0.3306821772782557  1.0000
  C   C13       1.0  0.6161307033957398  0.5228863418226624  0.674782908973768  1.0000
  C   C14       1.0  0.38343137974762  0.4808937761155504  0.3256087502974624  1.0000
  C   C15       1.0  0.6138835233465372  0.519512176304282  0.7244120491194084  1.0000
  C   C16       1.0  0.38568106534648894  0.48373645114832425  0.2759701796276062  1.0000
  C   C17       1.0  0.48558696117137856  0.49969037141254813  0.7461529204655478  1.0000
  C   C18       1.0  0.5147062299799714  0.4995349054232177  0.25405958740687856  1.0000
  C   C19       1.0  0.4913230347250631  0.49887000133774967  0.8981903769054469  1.0000
  C   C20       1.0  0.5074766634605794  0.4996386942022751  0.10196568413362432  1.0000
  C   C21       1.0  0.48511752931273827  0.6097822545103496  0.8741123185614867  1.0000
  C   C22       1.0  0.5036066879247726  0.38921210621971636  0.1260832726066283  1.0000
  C   C23       1.0  0.48297865056887457  0.7185637600989169  0.9000982340597549  1.0000
  C   C24       1.0  0.4956097286085351  0.28077230558138666  0.100106609006545  1.0000
  C   C25       1.0  0.49436225189131006  0.38782482833297394  0.8717026292449788  1.0000
  C   C26       1.0  0.5153796904945338  0.6103071116189228  0.12843356342497714  1.0000
  C   C27       1.0  0.49257848535739174  0.5058504028405933  0.6474749356408439  1.0000
  C   C28       1.0  0.5078522819651922  0.49449110146711206  0.35281788142548726  1.0000
  C   C29       1.0  0.5036834806088705  0.6121497645283399  0.02731867357827871  1.0000
  C   C30       1.0  0.4984899714879773  0.38619110536563267  0.9728256667986772  1.0000
  C   C31       1.0  0.4979800648340458  0.38654461245791083  0.024925686119495107  1.0000
  C   C32       1.0  0.49547740179491473  0.6121001212075399  0.9752305953413016  1.0000
  C   C33       1.0  0.503075188506621  0.49944263919535087  0.05098615398780031  1.0000
  C   C34       1.0  0.49499859642630634  0.49904589012297856  0.9491684487074256  1.0000
  C   C35       1.0  0.5120021897786131  0.719156022072646  0.055041444588148615  1.0000
  C   C36       1.0  0.5026728096224033  0.2787822046123125  0.9451063244216089  1.0000
  C   C37       1.0  0.5180741251635225  0.7186455501372605  0.10476615916094544  1.0000
  C   C38       1.0  0.5009567305619099  0.2792131100802919  0.8953742626413475  1.0000
  C   C39       1.0  0.48852401774510656  0.7193390626356831  0.949826237845038  1.0000
  C   C40       1.0  0.49303499691036007  0.27978966585241244  0.050359227503548716  1.0000
  C   C41       1.0  0.6246713381998176  0.9323174202188583  0.5062242702948795  1.0000
  C   C42       1.0  0.3725021185553458  0.0671681723064879  0.4941692849198987  1.0000
  C   C43       1.0  0.6259294969415093  0.05803684626528139  0.5060729736187569  1.0000
  C   C44       1.0  0.3712491566936862  0.9414357204158676  0.494313408372854  1.0000
  C   C45       1.0  0.4998301730877727  0.1263449237365037  0.5000289922557146  1.0000
  C   C46       1.0  0.4973613459393534  0.8731506378583517  0.5003732430822582  1.0000
  C   C47       1.0  0.9268894337652398  0.4217545874608533  0.471910710091642  1.0000
  C   C48       1.0  0.07236228870668529  0.5776150270720563  0.5283924966414446  1.0000
  C   C49       1.0  0.9268649182038614  0.5727930647414893  0.5307846616971119  1.0000
  C   C50       1.0  0.0723954191814826  0.4264815644055204  0.4695468813680109  1.0000
  C   C51       1.0  0.8551713666011833  0.573910895938546  0.735053563953642  1.0000
  C   C52       1.0  0.967580439918258  0.5705227381140787  0.7742936184946319  1.0000
  C   C53       1.0  0.1418311437196778  0.43801011684276847  0.2659706440792675  1.0000
  C   C54       1.0  0.031732487320198295  0.43590916312441425  0.22598284601264146  1.0000
  N   N1        1.0  0.4829662902474751  0.498628945906809  0.7972748724283465  1.0000
  N   N2        1.0  0.5169852416486477  0.5000040621320849  0.20293527882449783  1.0000
  N   N3        1.0  0.14297423940362822  0.5044257478899395  0.49776841377220654  1.0000
  N   N4        1.0  0.8562645057492091  0.494920719483943  0.5025388778281582  1.0000
  O   O1        1.0  0.37711631443332283  0.6888630538739662  0.4978843957594493  1.0000
  O   O2        1.0  0.6202067711224047  0.31069963018163804  0.5027986546662009  1.0000
  O   O3        1.0  0.38203918033006085  0.3188093850118108  0.4972731502268744  1.0000
  O   O4        1.0  0.6153790664061205  0.680709193800851  0.5026181725228156  1.0000
  O   O5        1.0  0.3810100628894091  0.5090198937413531  0.5708932964016713  1.0000
  O   O6        1.0  0.619691882770475  0.48981827173300013  0.4293646940805261  1.0000
  O   O7        1.0  0.3813811540925513  0.4955395060314771  0.4244719148098711  1.0000
  O   O8        1.0  0.6192738429895427  0.5054682916241475  0.5758854870234844  1.0000
  O   O9        1.0  0.4741663325722527  0.7065300924289843  0.7993353198860833  1.0000
  O   O10       1.0  0.5035607303102053  0.2929901686426746  0.2008754132902553  1.0000
  O   O11       1.0  0.5255095033196611  0.7074981083371413  0.20525310318717527  1.0000
  O   O12       1.0  0.498436891474661  0.29070234481422125  0.7947918509801469  1.0000
  O   O13       1.0  0.7276453944146863  0.5327134627406025  0.7544343823092348  1.0000
  O   O14       1.0  0.271262856017934  0.4732288577722129  0.24611136074339166  1.0000
