data_image0
_chemical_formula_structural       Cr2CdH42C42N8O12
_chemical_formula_sum              "Cr2 Cd1 H42 C42 N8 O12"
_cell_length_a       10.622976812861427
_cell_length_b       10.899650303742382
_cell_length_c       11.10176662042844
_cell_angle_alpha    69.83846802556512
_cell_angle_beta     69.90503080670909
_cell_angle_gamma    67.26496567657702

_space_group_name_H-M_alt    "P 1"
_space_group_IT_number       1

loop_
  _space_group_symop_operation_xyz
  'x, y, z'

loop_
  _atom_site_type_symbol
  _atom_site_label
  _atom_site_symmetry_multiplicity
  _atom_site_fract_x
  _atom_site_fract_y
  _atom_site_fract_z
  _atom_site_occupancy
  Cr  Cr1       1.0  0.3255685947995276  0.9665831863759067  0.7014915275424086  1.0000
  Cr  Cr2       1.0  0.6744268572937457  0.03341141653598358  0.2985169182026866  1.0000
  Cd  Cd1       1.0  0.9999982877470899  0.9999986381462874  2.1111106889620992e-06  1.0000
  H   H1        1.0  0.6191336680019717  0.646881349954995  0.693273354582722  1.0000
  H   H2        1.0  0.380859667942488  0.3531265965433119  0.30672318118187303  1.0000
  H   H3        1.0  0.584220881335419  0.7978186569104649  0.5625850966277994  1.0000
  H   H4        1.0  0.41577273677093984  0.20218516869615397  0.43742444600662367  1.0000
  H   H5        1.0  0.6607583372765191  0.7943505182894767  0.6850315774318573  1.0000
  H   H6        1.0  0.3392248059921813  0.20564823699481133  0.3149768247698289  1.0000
  H   H7        1.0  0.820370236837306  0.9425145306518485  0.5268385255921616  1.0000
  H   H8        1.0  0.17963266260466068  0.057485170862960885  0.47316304190890424  1.0000
  H   H9        1.0  0.1360488710152268  0.5827529831484242  0.7492156292678659  1.0000
  H   H10       1.0  0.8639575991330304  0.41724159716535053  0.2507774805121202  1.0000
  H   H11       1.0  0.1635526695150206  0.2161922157275312  0.8831916456988864  1.0000
  H   H12       1.0  0.8364511208246203  0.783801335930775  0.11681080169151417  1.0000
  H   H13       1.0  0.8843560768574226  0.631575577397406  0.8254565313598192  1.0000
  H   H14       1.0  0.11565239884518529  0.36841899658102756  0.1745350183728789  1.0000
  H   H15       1.0  0.6844009757197185  0.5351038738963538  0.8960471744420887  1.0000
  H   H16       1.0  0.31560423697622764  0.4648948035350384  0.10394857104277834  1.0000
  H   H17       1.0  0.7344830105443592  0.2791755323235137  0.9639150507234787  1.0000
  H   H18       1.0  0.2655208386502964  0.7208210898217473  0.036088143041602926  1.0000
  H   H19       1.0  0.6561779922294804  0.0924878551829664  0.019499856197867888  1.0000
  H   H20       1.0  0.34381962365868196  0.9075159708156306  0.9804993602566157  1.0000
  H   H21       1.0  0.5033735982695688  0.1227852139807837  0.876230655957194  1.0000
  H   H22       1.0  0.4966247607230373  0.8772227076985927  0.12376693387287221  1.0000
  H   H23       1.0  0.6145939371240914  0.033855409421903494  0.6719694344704124  1.0000
  H   H24       1.0  0.38540368042993123  0.9661484149438662  0.32803068274473896  1.0000
  H   H25       1.0  0.014592489655953625  0.8949714486890696  0.7721557493428365  1.0000
  H   H26       1.0  0.9854049646599494  0.10502315115315494  0.22784933483363543  1.0000
  H   H27       1.0  0.9805668782942335  0.8436674200744461  0.3704464273698847  1.0000
  H   H28       1.0  0.01943169567594082  0.15633331839044462  0.6295589191519682  1.0000
  H   H29       1.0  0.15612992564064146  0.7588877521911284  0.3897498131977459  1.0000
  H   H30       1.0  0.8438709699128281  0.2411119540261807  0.6102542151112756  1.0000
  H   H31       1.0  0.812597447492614  0.7147623503413172  0.43629797158495603  1.0000
  H   H32       1.0  0.18740343973153273  0.2852373640401637  0.5637015529207119  1.0000
  H   H33       1.0  0.22911814808418288  0.5094330674062489  0.5031502082042535  1.0000
  H   H34       1.0  0.7708847463601887  0.49056663900706327  0.49684865701479447  1.0000
  H   H35       1.0  0.4632771410466818  0.4596456886020164  0.833251888944332  1.0000
  H   H36       1.0  0.5367261721438724  0.5403591475684733  0.16674060401249594  1.0000
  H   H37       1.0  0.32793218099792654  0.612226216195836  0.7875845466207991  1.0000
  H   H38       1.0  0.6720673799237104  0.3877745346132996  0.2124114626510406  1.0000
  H   H39       1.0  0.5154428820076902  0.28288727874447517  0.6740413190040613  1.0000
  H   H40       1.0  0.4845620718484511  0.7171154967189465  0.3259540302603697  1.0000
  H   H41       1.0  0.3794279770366913  0.7243921581725273  0.560085642130865  1.0000
  H   H42       1.0  0.6205769718218549  0.2756106221893971  0.4399070048515555  1.0000
  C   C1        1.0  0.5854759378462407  0.7596149421733143  0.6678569468608302  1.0000
  C   C2        1.0  0.41451196296735293  0.2403878928554093  0.33214851014319885  1.0000
  C   C3        1.0  0.05907397102295423  0.28959679478503375  0.8858643848781469  1.0000
  C   C4        1.0  0.9409305019002618  0.7103977836999178  0.11413478875248725  1.0000
  C   C5        1.0  0.04005368966852533  0.43124905030114036  0.8495751072350756  1.0000
  C   C6        1.0  0.9599524122592341  0.568743478906576  0.1504206173784653  1.0000
  C   C7        1.0  0.9031665940575241  0.5210747467141273  0.8513214321095359  1.0000
  C   C8        1.0  0.09684087970084222  0.4789198296155632  0.1486713480271433  1.0000
  C   C9        1.0  0.7919289312283624  0.4673076912437537  0.8909039416610794  1.0000
  C   C10       1.0  0.20807622594429634  0.5326879124350157  0.10909285897044904  1.0000
  C   C11       1.0  0.8189029113206415  0.3256861893336449  0.9286302738047284  1.0000
  C   C12       1.0  0.18110093121055842  0.674310439342946  0.0713693169176679  1.0000
  C   C13       1.0  0.700553630226345  0.055365339245000214  0.9296003887019283  1.0000
  C   C14       1.0  0.2994432997465069  0.9446374631926129  0.07040029999097919  1.0000
  C   C15       1.0  0.6159782286250746  0.07023258056486269  0.8504274442915544  1.0000
  C   C16       1.0  0.3840213961491728  0.9297712358327387  0.1495720136369769  1.0000
  C   C17       1.0  0.6780257548612312  0.020270745752654293  0.7373652970483279  1.0000
  C   C18       1.0  0.32197381605559644  0.9797299952594826  0.26263611678754023  1.0000
  C   C19       1.0  0.8232764936960633  0.9528737507377231  0.7078673387529976  1.0000
  C   C20       1.0  0.176719694838205  0.047124954386283884  0.292135877325002  1.0000
  C   C21       1.0  0.9012959246404508  0.9425859717506948  0.7922767738721036  1.0000
  C   C22       1.0  0.09870057992276324  0.05741170746107117  0.20772668404034528  1.0000
  C   C23       1.0  0.00986726006617301  0.8062600156425714  0.565809795181579  1.0000
  C   C24       1.0  0.9901329462402656  0.19373867027942274  0.43419390384453044  1.0000
  C   C25       1.0  0.0450843361582686  0.7654583448060986  0.43706196567647754  1.0000
  C   C26       1.0  0.9549158701481703  0.23454034111589547  0.562941733349632  1.0000
  C   C27       1.0  0.02334588161069464  0.6278230214578001  0.46650528940916997  1.0000
  C   C28       1.0  0.9766550106110472  0.37217668802517767  0.5334969373785017  1.0000
  C   C29       1.0  0.8948739886763307  0.6206776140603409  0.46524484036849867  1.0000
  C   C30       1.0  0.10512790382379934  0.37932209470421435  0.5347552552545239  1.0000
  C   C31       1.0  0.1285737048179953  0.5056770977521551  0.5013190226490849  1.0000
  C   C32       1.0  0.8714271840720188  0.4943226149964914  0.498681402617251  1.0000
  C   C33       1.0  0.2779886409593715  0.42167756861292083  0.8449017932055796  1.0000
  C   C34       1.0  0.7220175181575358  0.5783180327145913  0.15509377702196767  1.0000
  C   C35       1.0  0.3804577664486501  0.505774502793848  0.7786607871089118  1.0000
  C   C36       1.0  0.6195454928844911  0.4942272579911771  0.22133366175524566  1.0000
  C   C37       1.0  0.4423591553403695  0.503741410572225  0.6342666347849357  1.0000
  C   C38       1.0  0.5576418934560367  0.49626752996563533  0.36572702199874385  1.0000
  C   C39       1.0  0.509534297313806  0.3785530858402025  0.5978705043584965  1.0000
  C   C40       1.0  0.49046870151367744  0.6214527746096864  0.4021226475245497  1.0000
  C   C41       1.0  0.43279920363457347  0.6256120826966975  0.5345027774158665  1.0000
  C   C42       1.0  0.5672041128877083  0.3743927502081235  0.46549151706229713  1.0000
  N   N1        1.0  0.9503983572158315  0.23949071266679306  0.9250083896045568  1.0000
  N   N2        1.0  0.049604169008041786  0.7605069426404539  0.07499309044803948  1.0000
  N   N3        1.0  0.8403565617649845  0.9949164694514964  0.8990914728869938  1.0000
  N   N4        1.0  0.15964163565536887  0.0050822260715008985  0.1009119846650535  1.0000
  N   N5        1.0  0.8840814398822587  0.904008655084176  0.592839949048731  1.0000
  N   N6        1.0  0.11591739126184558  0.0959879869815197  0.4071648929328973  1.0000
  N   N7        1.0  0.151896711595434  0.48481411231031746  0.8097403867982252  1.0000
  N   N8        1.0  0.848110762162932  0.5151804640193732  0.19025239333846142  1.0000
  O   O1        1.0  0.17619029694090219  0.9649384984259655  0.8113779016691822  1.0000
  O   O2        1.0  0.8238004248110684  0.03505512625227419  0.18861712119551297  1.0000
  O   O3        1.0  0.3752439638503374  0.09107788276783418  0.6968932569319646  1.0000
  O   O4        1.0  0.6247417409671882  0.9089126325619005  0.3031350951587302  1.0000
  O   O5        1.0  0.44912840474752624  0.8055416329447525  0.7505371031383135  1.0000
  O   O6        1.0  0.5508648084893225  0.19446017747812044  0.24945523759490845  1.0000
  O   O7        1.0  0.31179627332662124  0.9817845310227038  0.5549432526380117  1.0000
  O   O8        1.0  0.6882030119989296  0.01823669126700619  0.4450585527343591  1.0000
  O   O9        1.0  0.08978251272565531  0.75004915848465  0.6421703077502698  1.0000
  O   O10       1.0  0.9102183828278142  0.24995054773266653  0.35783372055875157  1.0000
  O   O11       1.0  0.30753907813340214  0.30700131873680897  0.9216041041425811  1.0000
  O   O12       1.0  0.692467195361793  0.6930004268302952  0.07839115731299265  1.0000
