data_image0
_chemical_formula_structural       CoH20C24N8Cl2O4
_chemical_formula_sum              "Co1 H20 C24 N8 Cl2 O4"
_cell_length_a       8.275722851843762
_cell_length_b       10.003728746474916
_cell_length_c       9.937813003181578
_cell_angle_alpha    56.64684783632125
_cell_angle_beta     86.10147473268239
_cell_angle_gamma    81.16627790233933

_space_group_name_H-M_alt    "P 1"
_space_group_IT_number       1

loop_
  _space_group_symop_operation_xyz
  'x, y, z'

loop_
  _atom_site_type_symbol
  _atom_site_label
  _atom_site_symmetry_multiplicity
  _atom_site_fract_x
  _atom_site_fract_y
  _atom_site_fract_z
  _atom_site_occupancy
  Co  Co1       1.0  0.9999941813295052  0.5000014602922676  0.5000032601458813  1.0000
  H   H1        1.0  0.9647554986335576  0.8518880961413448  0.3056849611949985  1.0000
  H   H2        1.0  0.035258949485758306  0.14811607712837122  0.6943180090322374  1.0000
  H   H3        1.0  0.8354472375491325  0.5095517950901611  0.7694483008663157  1.0000
  H   H4        1.0  0.1645304664093175  0.49045574885572313  0.230540887015408  1.0000
  H   H5        1.0  0.7853966363153901  0.33698076247174674  0.7773484081131202  1.0000
  H   H6        1.0  0.21458661426628106  0.6630150686184421  0.22265763215335008  1.0000
  H   H7        1.0  0.7987517580342426  0.44792967575278925  0.3102385511282931  1.0000
  H   H8        1.0  0.2012492899217548  0.5520721456116889  0.689763881835937  1.0000
  H   H9        1.0  0.8488203819820868  0.07693765520667031  0.3398870258025326  1.0000
  H   H10       1.0  0.151193762148921  0.9230659699748216  0.6601121534282086  1.0000
  H   H11       1.0  0.545986988644593  0.3224657027149007  0.3498400534498956  1.0000
  H   H12       1.0  0.4540292195856067  0.677510421336642  0.6501712228448113  1.0000
  H   H13       1.0  0.7017718036701837  0.013177810781321929  0.5946751292243206  1.0000
  H   H14       1.0  0.29823665208362365  0.9868347806572262  0.4053186180228323  1.0000
  H   H15       1.0  0.6271693281840953  0.5913483342213369  0.898144010102925  1.0000
  H   H16       1.0  0.37283163574302586  0.4086649898358489  0.1018481909804691  1.0000
  H   H17       1.0  0.39965484233078996  0.16414550681987816  0.8786262611342224  1.0000
  H   H18       1.0  0.6003351299930555  0.8358529544738857  0.12137379794369005  1.0000
  H   H19       1.0  0.3926037272080265  0.22483234668222005  0.6095446610782036  1.0000
  H   H20       1.0  0.6073954477825011  0.775152970659569  0.3904572314686875  1.0000
  C   C1        1.0  0.9065181996285573  0.8284763577296842  0.4166946442412609  1.0000
  C   C2        1.0  0.09349154729144261  0.1715236290827633  0.583308679554719  1.0000
  C   C3        1.0  0.8276702319456888  0.6362798884116005  0.6728072229883538  1.0000
  C   C4        1.0  0.17232593234916746  0.3637294110915904  0.3271842524248357  1.0000
  C   C5        1.0  0.7211279051346864  0.3451678906065965  0.6811388797094651  1.0000
  C   C6        1.0  0.2788612364046159  0.6548289574114108  0.3188650450969562  1.0000
  C   C7        1.0  0.7337584795123391  0.3956807257189256  0.4233579022437154  1.0000
  C   C8        1.0  0.2662390049921299  0.6043097973588872  0.5766550687584202  1.0000
  C   C9        1.0  0.8383969375574765  0.9523988869533897  0.4365677495330971  1.0000
  C   C10       1.0  0.16161254882168657  0.04760572076099831  0.5634345496646207  1.0000
  C   C11       1.0  0.7495021825364815  0.7555485005979891  0.6974065993001162  1.0000
  C   C12       1.0  0.25050035619121047  0.24445997251864068  0.3025876035681351  1.0000
  C   C13       1.0  0.5720098666003961  0.2858062957728437  0.7077294457525626  1.0000
  C   C14       1.0  0.42798775965804475  0.7141869739036082  0.2922721048484149  1.0000
  C   C15       1.0  0.5915020298156931  0.32825706817698835  0.44636812030545064  1.0000
  C   C16       1.0  0.40850502204379074  0.6717258351350567  0.5536390820813468  1.0000
  C   C17       1.0  0.7568981808975153  0.9182374036851685  0.5771247538857408  1.0000
  C   C18       1.0  0.2431165160982118  0.081770388077949  0.4228684284589336  1.0000
  C   C19       1.0  0.5066839325478653  0.2744630346289016  0.5889636608406549  1.0000
  C   C20       1.0  0.49331030677100063  0.7255258185516669  0.4110392205156614  1.0000
  C   C21       1.0  0.6179970146118379  0.7919698173638494  0.9065506940183213  1.0000
  C   C22       1.0  0.38200143660773017  0.20804587246337294  0.09344173849013518  1.0000
  C   C23       1.0  0.4910648861046951  0.2925178847987412  0.9466280301827654  1.0000
  C   C24       1.0  0.5089336230752651  0.7074832009416668  0.05337297436758344  1.0000
  N   N1        1.0  0.09989854419756479  0.32910467595741016  0.4660154493595884  1.0000
  N   N2        1.0  0.9000995625611449  0.6708960235980401  0.5339806849553169  1.0000
  N   N3        1.0  0.7974335126816712  0.40520197893816606  0.5393006459340343  1.0000
  N   N4        1.0  0.20256500816271478  0.5947908674068999  0.4607111710971381  1.0000
  N   N5        1.0  0.6632982682731309  0.7039646291408419  0.840324878726733  1.0000
  N   N6        1.0  0.3367049855536237  0.2960458120470051  0.1596785386531039  1.0000
  N   N7        1.0  0.49000091890218295  0.23399335018007855  0.8523298152639571  1.0000
  N   N8        1.0  0.509988303691074  0.7660012683385915  0.14767408222212444  1.0000
  Cl  Cl1       1.0  0.0838742449984267  0.30453873530854036  0.8084009962796233  1.0000
  Cl  Cl2       1.0  0.9161320598700868  0.6954599054132019  0.19159007939263253  1.0000
  O   O1        1.0  0.6518774175915494  0.9276293330670741  0.8562881576862155  1.0000
  O   O2        1.0  0.3481262936419185  0.07237616341228657  0.14371844276978865  1.0000
  O   O3        1.0  0.5716140700080601  0.39752638629826015  0.9251743835019329  1.0000
  O   O4        1.0  0.42836702945301397  0.6024843474532917  0.07479876086575378  1.0000
