data_image0
_chemical_formula_structural       Ag4H36C32S4N8O14
_chemical_formula_sum              "Ag4 H36 C32 S4 N8 O14"
_cell_length_a       7.498949289553602
_cell_length_b       12.259710059886267
_cell_length_c       12.642021421018987
_cell_angle_alpha    113.05539507914115
_cell_angle_beta     105.68793296029021
_cell_angle_gamma    94.11286946627402

_space_group_name_H-M_alt    "P 1"
_space_group_IT_number       1

loop_
  _space_group_symop_operation_xyz
  'x, y, z'

loop_
  _atom_site_type_symbol
  _atom_site_label
  _atom_site_symmetry_multiplicity
  _atom_site_fract_x
  _atom_site_fract_y
  _atom_site_fract_z
  _atom_site_occupancy
  Ag  Ag1       1.0  0.5199320050393936  0.5375288915699984  0.7674812455018694  1.0000
  Ag  Ag2       1.0  0.48006616690168613  0.4624708938123518  0.23251856444898772  1.0000
  Ag  Ag3       1.0  0.8227264639718966  0.4406220239215062  0.669690541132624  1.0000
  Ag  Ag4       1.0  0.17727696568047693  0.5593768508182393  0.33031213569979906  1.0000
  H   H1        1.0  0.23859185670809074  0.0606519052964529  0.34802261044356436  1.0000
  H   H2        1.0  0.7614099488176436  0.9393505880988046  0.6519788014910615  1.0000
  H   H3        1.0  0.17242392332034476  0.8526660443365016  0.3365983783836554  1.0000
  H   H4        1.0  0.8275845108505991  0.14733552541493822  0.6634029499154507  1.0000
  H   H5        1.0  0.2086160586533196  0.8236309669423034  0.5246841348713075  1.0000
  H   H6        1.0  0.7913931859375225  0.1763687922652153  0.4753174296469495  1.0000
  H   H7        1.0  0.3039742243666623  9.243267016499946e-05  0.7255773439814559  1.0000
  H   H8        1.0  0.6960322586353911  0.9999073379457356  0.27442536681395774  1.0000
  H   H9        1.0  0.17144752394655438  0.9022466083825408  0.8369717438324  1.0000
  H   H10       1.0  0.8285399642782069  0.097741420551074  0.1630187585275138  1.0000
  H   H11       1.0  0.1889788834333359  0.12407860471262211  0.8862701164104504  1.0000
  H   H12       1.0  0.8110236192208617  0.8759130255053054  0.11372888503828457  1.0000
  H   H13       1.0  0.9151738872584404  0.21729866855168475  0.9117382535301245  1.0000
  H   H14       1.0  0.08483616775230725  0.782699280111906  0.0882635472072834  1.0000
  H   H15       1.0  0.6162738678669228  0.0968246426209589  0.8919167900177454  1.0000
  H   H16       1.0  0.3837295937799823  0.9031787401929492  0.10808126672093721  1.0000
  H   H17       1.0  0.7952972132535621  0.514788715118641  0.9549478269043873  1.0000
  H   H18       1.0  0.20470511750482964  0.4852110653128251  0.04505422592824713  1.0000
  H   H19       1.0  0.9952272548924199  0.5933942101704305  0.9465155107868024  1.0000
  H   H20       1.0  0.0047739802588254296  0.40660647838510044  0.05348671050554537  1.0000
  H   H21       1.0  0.8263757459709494  0.33543004122080333  0.8186573841162923  1.0000
  H   H22       1.0  0.17362658150062063  0.6645697367783255  0.1813438762568395  1.0000
  H   H23       1.0  0.04634075769431691  0.3842519229769223  0.8298407117595158  1.0000
  H   H24       1.0  0.9536618615381443  0.6157487623067509  0.170161728853756  1.0000
  H   H25       1.0  0.6510347229421855  0.37528844470875106  0.43376488152127723  1.0000
  H   H26       1.0  0.34896898861060777  0.6247113300185275  0.5662365981727786  1.0000
  H   H27       1.0  0.6978166942772716  0.5254141177952362  0.5043881469890434  1.0000
  H   H28       1.0  0.30218148423745816  0.47458567245179484  0.4956132478808114  1.0000
  H   H29       1.0  0.8736977473378503  0.47640619216790714  0.37231739348199244  1.0000
  H   H30       1.0  0.12630435323560357  0.5235972109442315  0.6276859911522761  1.0000
  H   H31       1.0  0.9483249384192902  0.36302883578665757  0.41737050557889416  1.0000
  H   H32       1.0  0.05168131439783252  0.6369745575099159  0.5826335370181466  1.0000
  H   H33       1.0  0.3515011822195079  0.6494288234670478  0.9677623815045276  1.0000
  H   H34       1.0  0.6484997677444966  0.35057096266861276  0.03224024446667782  1.0000
  H   H35       1.0  0.19565524286898037  0.6463875761815743  0.8553723568497699  1.0000
  H   H36       1.0  0.8043459955690864  0.3536131148062864  0.14463065690208052  1.0000
  C   C1        1.0  0.348792847234087  0.2767319969226918  0.569436476708951  1.0000
  C   C2        1.0  0.6512080961562674  0.7232677843482946  0.4305645643432569  1.0000
  C   C3        1.0  0.3046202672204573  0.1458015902646537  0.5421581402835824  1.0000
  C   C4        1.0  0.6953809613571382  0.854199093426196  0.4578424960897677  1.0000
  C   C5        1.0  0.25131767943516786  0.0468694294040333  0.42937139331832685  1.0000
  C   C6        1.0  0.7486766287363267  0.9531312706460895  0.5706281464503957  1.0000
  C   C7        1.0  0.21595131756188843  0.9310942565223786  0.42439136274580846  1.0000
  C   C8        1.0  0.7840529709390439  0.06890732790930798  0.5756108925095305  1.0000
  C   C9        1.0  0.2347120047921082  0.9145970737420301  0.5299961402183583  1.0000
  C   C10       1.0  0.7652961474784165  0.0854035960218837  0.47000638521911486  1.0000
  C   C11       1.0  0.28908980604138174  0.0138242122445789  0.6439769660254979  1.0000
  C   C12       1.0  0.7109144857463789  0.9861773746194443  0.35602608168934297  1.0000
  C   C13       1.0  0.3227722586745188  0.12786392641069  0.6467278465881705  1.0000
  C   C14       1.0  0.6772306424583618  0.8721376588605094  0.35327339688673454  1.0000
  C   C15       1.0  0.8429647540051664  0.7476092915564224  0.8112488243333614  1.0000
  C   C16       1.0  0.1570254019226667  0.2523914183092586  0.18875005747258194  1.0000
  C   C17       1.0  0.8830898854320494  0.8776318597719523  0.8348648216771078  1.0000
  C   C18       1.0  0.11689799469774442  0.12236611935025375  0.1651263377899781  1.0000
  C   C19       1.0  0.05073867386233393  0.9450247278857944  0.8467081875072394  1.0000
  C   C20       1.0  0.9492530667502308  0.05497233413630911  0.15328244968248578  1.0000
  C   C21       1.0  0.05898668900645988  0.0677603412130736  0.8734110661613241  1.0000
  C   C22       1.0  0.9410117032590861  0.9322358141915857  0.12658503460939124  1.0000
  C   C23       1.0  0.9034852172044339  0.12112385885566107  0.8881236546791624  1.0000
  C   C24       1.0  0.09651374872242971  0.8788741038210688  0.11187242919333328  1.0000
  C   C25       1.0  0.7344491342541275  0.05412177205449351  0.8763699616906492  1.0000
  C   C26       1.0  0.26554683332535933  0.9458798198466171  0.12362701534163277  1.0000
  C   C27       1.0  0.7292551318775649  0.9326671371610401  0.8493411658154739  1.0000
  C   C28       1.0  0.27073719225678866  0.06733173943015201  0.15065183185452466  1.0000
  C   C29       1.0  0.9370379020413466  0.5090110526472529  0.9467678457190514  1.0000
  C   C30       1.0  0.0629644254302235  0.4909887253518761  0.05323341465408758  1.0000
  C   C31       1.0  0.9143408473921965  0.45348675819609235  0.4507731220535191  1.0000
  C   C32       1.0  0.0856612531812644  0.5465166449160465  0.5492302625807496  1.0000
  S   S1        1.0  0.39199384606692433  0.27210053345554996  0.7718823708490913  1.0000
  S   S2        1.0  0.6080145881040195  0.7279010362958899  0.2281189574500217  1.0000
  S   S3        1.0  0.5453900946326371  0.8230095838599709  0.8334886904474812  1.0000
  S   S4        1.0  0.45459705637416187  0.1769947503654166  0.16650949959923617  1.0000
  N   N1        1.0  0.9172995737069628  0.40799006939511884  0.828821363463966  1.0000
  N   N2        1.0  0.08270275705142893  0.5920097110363473  0.17118068936866856  1.0000
  N   N3        1.0  0.75357589298941  0.44918638758594653  0.4970150133126266  1.0000
  N   N4        1.0  0.2464253421618352  0.5508143009695843  0.5029872079797284  1.0000
  N   N5        1.0  0.39823697887245396  0.3496070804166891  0.6921845136324547  1.0000
  N   N6        1.0  0.6017667293935174  0.6503926918782524  0.3078161736021057  1.0000
  N   N7        1.0  0.6647974888418915  0.7120650864171693  0.8095563635529499  1.0000
  N   N8        1.0  0.3351882132209099  0.28793471868252146  0.1904383026715735  1.0000
  O   O1        1.0  0.34299384689868617  0.3152331624262033  0.49131975695227925  1.0000
  O   O2        1.0  0.657004843701408  0.6847639051276815  0.5086791089775814  1.0000
  O   O3        1.0  0.5811320124510716  0.28735932897906485  0.8542702014419631  1.0000
  O   O4        1.0  0.4188747524514013  0.712641341624362  0.14573131221508348  1.0000
  O   O5        1.0  0.24860310750032263  0.296539612728843  0.8311394565388209  1.0000
  O   O6        1.0  0.7514053233837927  0.7034619545902602  0.16886107930078958  1.0000
  O   O7        1.0  0.9601447166341543  0.6804321968255281  0.7965758379545061  1.0000
  O   O8        1.0  0.039845737628226616  0.31956942518937137  0.2034258090105823  1.0000
  O   O9        1.0  0.38411004908468266  0.7945169322426436  0.7253850604596577  1.0000
  O   O10       1.0  0.6158776205811307  0.20548468415427124  0.27461218556607037  1.0000
  O   O11       1.0  0.5037578477000437  0.8550896488599519  0.9461168907095964  1.0000
  O   O12       1.0  0.49624176989821933  0.14491466321575788  0.05388565060395221  1.0000
  O   O13       1.0  0.28394394364431713  0.5990976779769853  0.8813054354398558  1.0000
  O   O14       1.0  0.7160553370512163  0.4009012090106694  0.11869737588929041  1.0000
