data_image0
_chemical_formula_structural       Zn4H36C52N4O20
_chemical_formula_sum              "Zn4 H36 C52 N4 O20"
_cell_length_a       6.397689315498858
_cell_length_b       13.201513417920747
_cell_length_c       15.331376745512786
_cell_angle_alpha    111.09345363153645
_cell_angle_beta     90.00132305078354
_cell_angle_gamma    89.99906728380905

_space_group_name_H-M_alt    "P 1"
_space_group_IT_number       1

loop_
  _space_group_symop_operation_xyz
  'x, y, z'

loop_
  _atom_site_type_symbol
  _atom_site_label
  _atom_site_symmetry_multiplicity
  _atom_site_fract_x
  _atom_site_fract_y
  _atom_site_fract_z
  _atom_site_occupancy
  Zn  Zn1       1.0  0.8633848787000744  0.27818789638930497  0.3948906716237488  1.0000
  Zn  Zn2       1.0  0.8633748651086962  0.22181926661907878  0.10511114260069832  1.0000
  Zn  Zn3       1.0  0.13662690843209194  0.7218114495903335  0.6051055083894283  1.0000
  Zn  Zn4       1.0  0.1366009716032863  0.7781833620761984  0.8948892930667398  1.0000
  H   H1        1.0  0.6307182614944935  0.6995717992759934  0.4928265563114138  1.0000
  H   H2        1.0  0.6307268538182527  0.8004429545819035  0.007169372162984284  1.0000
  H   H3        1.0  0.3692997779430769  0.3004422305620977  0.5071805946826657  1.0000
  H   H4        1.0  0.3692474199315542  0.19955808559983268  0.9928338437018809  1.0000
  H   H5        1.0  0.6067912512021537  0.8308215722927769  0.41574163864972047  1.0000
  H   H6        1.0  0.6068022125022025  0.6691859413954758  0.08424860030552853  1.0000
  H   H7        1.0  0.3932330404335432  0.16918510151541707  0.5842587180651222  1.0000
  H   H8        1.0  0.3932064486981872  0.33081511279385717  0.9157559245347359  1.0000
  H   H9        1.0  0.579620851300099  0.5677821266986598  0.14836120455460397  1.0000
  H   H10       1.0  0.5796107981000276  0.9322182662705881  0.35163313333755764  1.0000
  H   H11       1.0  0.4203784315846448  0.43221895567206997  0.8516459379032  1.0000
  H   H12       1.0  0.4204056783655546  0.0677852093994105  0.6483708205090011  1.0000
  H   H13       1.0  0.8750002768436576  0.10481492041102307  0.4694534969038672  1.0000
  H   H14       1.0  0.8749678462760997  0.3951946569795125  0.030551771741627907  1.0000
  H   H15       1.0  0.1250427716638498  0.8951763139491076  0.5305408783178649  1.0000
  H   H16       1.0  0.12502205789547818  0.6048054797849147  0.9694426908689948  1.0000
  H   H17       1.0  0.8925283548991204  0.08092116548986178  0.6231171059460365  1.0000
  H   H18       1.0  0.892496667570157  0.4190978433779406  0.8768905197698231  1.0000
  H   H19       1.0  0.1075131305504868  0.9190774037691011  0.3768821003317769  1.0000
  H   H20       1.0  0.1074963627689911  0.5808998648421876  0.1231038594667808  1.0000
  H   H21       1.0  0.8951846700607149  0.4325961487860752  0.7525387474358993  1.0000
  H   H22       1.0  0.8951813429915205  0.06742356201727517  0.7474599851867794  1.0000
  H   H23       1.0  0.104797418835183  0.5674007475979791  0.24745538582013182  1.0000
  H   H24       1.0  0.1048023090282655  0.9325766170026312  0.25253840388348436  1.0000
  H   H25       1.0  0.8684471849583845  0.43921216150545916  0.5942641318726203  1.0000
  H   H26       1.0  0.8684307666272773  0.0607946733016576  0.905730437731485  1.0000
  H   H27       1.0  0.1315599129814302  0.5607790377293042  0.4057269711239044  1.0000
  H   H28       1.0  0.1315435069784101  0.9392046797981235  0.0942663965361064  1.0000
  H   H29       1.0  0.22082068626234266  0.36820822565426425  0.4162147976133568  1.0000
  H   H30       1.0  0.22080319128068743  0.1317862732899471  0.08377948163558101  1.0000
  H   H31       1.0  0.7791911009330832  0.6317919603461701  0.5837842459912608  1.0000
  H   H32       1.0  0.7791648300114958  0.8682114279430024  0.9162142430799989  1.0000
  H   H33       1.0  0.26386605284469056  0.24524330526752178  0.3443086154498403  1.0000
  H   H34       1.0  0.2638639129880573  0.25474862425917166  0.1556898740590569  1.0000
  H   H35       1.0  0.7361441712968926  0.7547576996359381  0.6556913284964097  1.0000
  H   H36       1.0  0.7361166132098802  0.7452427158393816  0.8443143171118238  1.0000
  C   C1        1.0  0.6903022766602261  0.4819225286495338  0.41438951818332015  1.0000
  C   C2        1.0  0.6902996762011783  0.018085363493163698  0.08561016559123398  1.0000
  C   C3        1.0  0.30970169540637477  0.5180858815663639  0.5856218009428317  1.0000
  C   C4        1.0  0.3096761604373768  0.9819115329041848  0.9143839676381378  1.0000
  C   C5        1.0  0.6339402534745132  0.5583455360562155  0.36571903722168736  1.0000
  C   C6        1.0  0.6339368717469184  0.9416643822492147  0.13428002397635203  1.0000
  C   C7        1.0  0.36606840770085103  0.4416603963295173  0.6342876176364314  1.0000
  C   C8        1.0  0.36604521730359346  0.058335020116494704  0.8657213912252502  1.0000
  C   C9        1.0  0.6222745906622364  0.6703325901678309  0.4168643950436887  1.0000
  C   C10       1.0  0.6222722361981995  0.8296765306930497  0.08313104866687139  1.0000
  C   C11       1.0  0.3777403227210813  0.3296749518425557  0.583141442880141  1.0000
  C   C12       1.0  0.37771141593424323  0.17032287870969745  0.9168710209557744  1.0000
  C   C13       1.0  0.6067540267847703  0.7449096468060359  0.3726274905648737  1.0000
  C   C14       1.0  0.6067534683953043  0.7550962433463652  0.12736225615597624  1.0000
  C   C15       1.0  0.3932640127448082  0.25509790223806306  0.6273790017866787  1.0000
  C   C16       1.0  0.3932442512880813  0.24490234008639788  0.8726382587639776  1.0000
  C   C17       1.0  0.5966436074779934  0.7109016938708945  0.2743959964955067  1.0000
  C   C18       1.0  0.5966378352955388  0.7891026507794477  0.22559644418445407  1.0000
  C   C19       1.0  0.40336505371867304  0.2891018029368197  0.7256099205608706  1.0000
  C   C20       1.0  0.403366136599189  0.21089917303701353  0.7744044000834264  1.0000
  C   C21       1.0  0.5932523030374951  0.5986722749728413  0.22426254268847856  1.0000
  C   C22       1.0  0.5932438775519556  0.901328864831832  0.2757315029806406  1.0000
  C   C23       1.0  0.4067516690155629  0.4013296122068936  0.7757441913088456  1.0000
  C   C24       1.0  0.40675853130651524  0.09867378492801747  0.7242708960432509  1.0000
  C   C25       1.0  0.6137418543017361  0.5228298777277728  0.2679237429452357  1.0000
  C   C26       1.0  0.6137394362295227  0.9771727986324378  0.23207096935443167  1.0000
  C   C27       1.0  0.38626211781086545  0.4771752920911324  0.7320872468596562  1.0000
  C   C28       1.0  0.3862567203614446  0.022824958863587604  0.7679279907961813  1.0000
  C   C29       1.0  0.6285411605693341  0.40622212837808286  0.20278050016358412  1.0000
  C   C30       1.0  0.6285255657349751  0.0937836542725634  0.2972238087778081  1.0000
  C   C31       1.0  0.37145968540443863  0.5937781491703473  0.797227050781359  1.0000
  C   C32       1.0  0.37147371689265185  0.9062205840107962  0.7027758100286619  1.0000
  C   C33       1.0  0.8804059454875245  0.1745011592132144  0.5349700330602332  1.0000
  C   C34       1.0  0.8803712600320707  0.3255089778101095  0.9650354384029711  1.0000
  C   C35       1.0  0.11962772465832931  0.8254933437253059  0.4650272891003057  1.0000
  C   C36       1.0  0.11961395502396503  0.6744903752664083  0.03496139591127445  1.0000
  C   C37       1.0  0.8907434597567631  0.16246000949707448  0.6210164450987676  1.0000
  C   C38       1.0  0.8907177759843349  0.3375557313510312  0.8789875640277245  1.0000
  C   C39       1.0  0.10928083195739903  0.8375336604809647  0.3789786678447201  1.0000
  C   C40       1.0  0.1092705652003758  0.6624436217188358  0.12100927029985084  1.0000
  C   C41       1.0  0.8952551280121455  0.25493392724335  0.7034778507008994  1.0000
  C   C42       1.0  0.8952421825532539  0.24508745628199338  0.7965259552501394  1.0000
  C   C43       1.0  0.1047519699270083  0.7450654187462645  0.296518329292276  1.0000
  C   C44       1.0  0.10474772171710361  0.7549094612065301  0.20347014128236654  1.0000
  C   C45       1.0  0.8908624857165109  0.35629118224734657  0.6932496738450028  1.0000
  C   C46       1.0  0.8908519663414723  0.14372451582006113  0.8067504098749225  1.0000
  C   C47       1.0  0.10913679690839471  0.6437032785221247  0.3067437216826151  1.0000
  C   C48       1.0  0.10913324876395343  0.8562732276185017  0.1932472414002647  1.0000
  C   C49       1.0  0.8784633299875609  0.3619995322073634  0.6047304378134939  1.0000
  C   C50       1.0  0.8784437279541281  0.13801457377822146  0.8952670850153979  1.0000
  C   C51       1.0  0.12154689404201949  0.6379940955584118  0.3952607485837163  1.0000
  C   C52       1.0  0.12153523486926328  0.8619839744926165  0.10473015775266255  1.0000
  N   N1        1.0  0.8731420584069908  0.27258192039431606  0.5265475928401315  1.0000
  N   N2        1.0  0.8731174054039386  0.2274338882771189  0.9734556117697294  1.0000
  N   N3        1.0  0.12687754409284924  0.7274141851717105  0.47344825788510303  1.0000
  N   N4        1.0  0.12686468347742869  0.7725687052030351  0.02654155185246053  1.0000
  O   O1        1.0  0.6896289181853703  0.3803815853060327  0.3627126782614312  1.0000
  O   O2        1.0  0.6896256732288322  0.11962712860181308  0.1372879001161991  1.0000
  O   O3        1.0  0.3103797429443205  0.619623514099274  0.6372917674196259  1.0000
  O   O4        1.0  0.3103626679981701  0.8803714266894431  0.8627099971062365  1.0000
  O   O5        1.0  0.7452472366455821  0.5175370714608505  0.49896840163860656  1.0000
  O   O6        1.0  0.7452493267528625  0.9824716037820731  0.001035289373120841  1.0000
  O   O7        1.0  0.25474423088939346  0.4824631849864359  0.5010371860231899  1.0000
  O   O8        1.0  0.2547093163045275  0.0175269726934317  0.9989645709658248  1.0000
  O   O9        1.0  0.8195835076851593  0.3750243066992879  0.1808356754507514  1.0000
  O   O10       1.0  0.8195774214068123  0.12498787855994209  0.31916396877917913  1.0000
  O   O11       1.0  0.1804173379854959  0.6249823671587719  0.8191646811641249  1.0000
  O   O12       1.0  0.18043123951210296  0.8750130629835694  0.6808300854309551  1.0000
  O   O13       1.0  0.46720003432962187  0.3541103443841959  0.16784201276711738  1.0000
  O   O14       1.0  0.4671908170490653  0.14587920922286193  0.3321681895280477  1.0000
  O   O15       1.0  0.5328039381107886  0.6458876243061126  0.8321765798483155  1.0000
  O   O16       1.0  0.5328209701389284  0.8541258620143355  0.6678336385088032  1.0000
  O   O17       1.0  0.1596170053111265  0.3046200782374271  0.3640626000151316  1.0000
  O   O18       1.0  0.15960955634570692  0.19537713066821985  0.1359332039555454  1.0000
  O   O19       1.0  0.8403979079564792  0.6953825292536492  0.6359358725757858  1.0000
  O   O20       1.0  0.8403662803774239  0.8046181701719062  0.8640630550635322  1.0000
