data_image0
_chemical_formula_structural       Cu2H12C16N24
_chemical_formula_sum              "Cu2 H12 C16 N24"
_cell_length_a       8.464957484090668
_cell_length_b       8.46669511285529
_cell_length_c       10.075147717445061
_cell_angle_alpha    102.66967584030209
_cell_angle_beta     102.6917692619778
_cell_angle_gamma    118.51447355661914

_space_group_name_H-M_alt    "P 1"
_space_group_IT_number       1

loop_
  _space_group_symop_operation_xyz
  'x, y, z'

loop_
  _atom_site_type_symbol
  _atom_site_label
  _atom_site_symmetry_multiplicity
  _atom_site_fract_x
  _atom_site_fract_y
  _atom_site_fract_z
  _atom_site_occupancy
  Cu  Cu1       1.0  0.11137132870875631  0.3610690807823431  0.24992390340803178  1.0000
  Cu  Cu2       1.0  0.8886283925498831  0.6389304588403134  0.7500752927090203  1.0000
  H   H1        1.0  0.8394826226026028  0.1284646582178297  0.8971252365211126  1.0000
  H   H2        1.0  0.2315503438603416  0.4418071010912287  0.6026949415001964  1.0000
  H   H3        1.0  0.16051494746219666  0.871537688942972  0.10287211594130956  1.0000
  H   H4        1.0  0.7684341017851112  0.5581841363092508  0.3973043848260147  1.0000
  H   H5        1.0  0.29833152911275823  0.2290436662004751  0.8099541848595633  1.0000
  H   H6        1.0  0.41928076152856875  0.9881387977655435  0.6896840723618566  1.0000
  H   H7        1.0  0.7016777660312032  0.7709605397990916  0.19004992128629544  1.0000
  H   H8        1.0  0.5807201825100068  0.011865297720703414  0.310312343291919  1.0000
  H   H9        1.0  0.46295130009426094  0.2998299830308611  0.2603153230353286  1.0000
  H   H10       1.0  0.03920840571996823  0.7017880640237382  0.23946124084925205  1.0000
  H   H11       1.0  0.537051873392713  0.7001739787164993  0.7396854957461086  1.0000
  H   H12       1.0  0.9607887435677683  0.29821124771316226  0.7605383774243463  1.0000
  C   C1        1.0  0.5990285352997945  0.257603492569757  0.03266985170132835  1.0000
  C   C2        1.0  0.22469134414045303  0.06565209488478982  0.46698422591642696  1.0000
  C   C3        1.0  0.40097700464456665  0.7424004800885698  0.9673334400940872  1.0000
  C   C4        1.0  0.775308973607558  0.9343487482027727  0.5330173507190565  1.0000
  C   C5        1.0  0.7792480626637188  0.18773203332835922  0.9614676214372863  1.0000
  C   C6        1.0  0.22635994627249542  0.3172012490178417  0.5382960094679844  1.0000
  C   C7        1.0  0.22075489555969346  0.8122691099698828  0.038532567984809446  1.0000
  C   C8        1.0  0.7736261718832157  0.6827931015869456  0.46170132249719137  1.0000
  C   C9        1.0  0.30092317823787346  0.2525738497731211  0.9219388490331892  1.0000
  C   C10       1.0  0.33069204589124024  0.878621640821912  0.5777774029060723  1.0000
  C   C11       1.0  0.6990800242023526  0.7474256338910622  0.07806502166167927  1.0000
  C   C12       1.0  0.6693137583210673  0.12138001966179963  0.422218504132104  1.0000
  C   C13       1.0  0.3874014517729592  0.29111559538146997  0.1541856172905298  1.0000
  C   C14       1.0  0.13664642790254075  0.7324875541851056  0.34561975215970614  1.0000
  C   C15       1.0  0.6125985137024942  0.708882284607128  0.8458172600992953  1.0000
  C   C16       1.0  0.8633554155966723  0.267513655982583  0.6543782356985587  1.0000
  N   N1        1.0  0.8748271410746968  0.30005549543393073  0.10613550353986066  1.0000
  N   N2        1.0  0.19408371810823874  0.2682082354723363  0.3936395303416162  1.0000
  N   N3        1.0  0.12517523040938983  0.699946945873741  0.8938658298936771  1.0000
  N   N4        1.0  0.8059107124495455  0.7317881022546258  0.6063589156723451  1.0000
  N   N5        1.0  0.757741676914691  0.3475196289400486  0.15337750820822288  1.0000
  N   N6        1.0  0.19409603467681083  0.10379378909808419  0.34632022462776035  1.0000
  N   N7        1.0  0.2422623960329133  0.6524814474887535  0.8466248827777034  1.0000
  N   N8        1.0  0.8059003811125508  0.8962040745240502  0.6536789432410899  1.0000
  N   N9        1.0  0.6020365368365435  0.15691044180655925  0.9100825413177204  1.0000
  N   N10       1.0  0.24665066916801956  0.19123686422256017  0.5896118205980087  1.0000
  N   N11       1.0  0.39796479817790253  0.8430947401698108  0.08991915002501127  1.0000
  N   N12       1.0  0.753341922917244  0.8087606937334115  0.4103874979772471  1.0000
  N   N13       1.0  0.23014034547818343  0.2956453567857693  0.11469585214825881  1.0000
  N   N14       1.0  0.1808008850316369  0.6148628582976272  0.38520563578796185  1.0000
  N   N15       1.0  0.7698610087394615  0.7043527456330951  0.8853053665780236  1.0000
  N   N16       1.0  0.8191997752388789  0.3851383464145713  0.6147911155633068  1.0000
  N   N17       1.0  0.17542951385891573  0.2720230009176845  0.9688972519307412  1.0000
  N   N18       1.0  0.30316431383012327  0.7061518831570764  0.5309563776244275  1.0000
  N   N19       1.0  0.8245718403587364  0.7279751015011797  0.031103966795541404  1.0000
  N   N20       1.0  0.6968406883793109  0.293848256886946  0.46904004406584215  1.0000
  N   N21       1.0  0.4374657804205171  0.26563218277307493  0.035421905612849976  1.0000
  N   N22       1.0  0.23001973458468677  0.9014023615481931  0.46426185381991286  1.0000
  N   N23       1.0  0.562538224022589  0.7343688213308043  0.9645814504299182  1.0000
  N   N24       1.0  0.7699846123809237  0.09859900418032203  0.5357366769386402  1.0000
