data_image0
_chemical_formula_structural       Er2Zn2H32C52N4Cl2O22
_chemical_formula_sum              "Er2 Zn2 H32 C52 N4 Cl2 O22"
_cell_length_a       9.584386182887199
_cell_length_b       12.347054926781807
_cell_length_c       12.627448730446355
_cell_angle_alpha    73.9262993354954
_cell_angle_beta     84.27655396733556
_cell_angle_gamma    71.61157353501744

_space_group_name_H-M_alt    "P 1"
_space_group_IT_number       1

loop_
  _space_group_symop_operation_xyz
  'x, y, z'

loop_
  _atom_site_type_symbol
  _atom_site_label
  _atom_site_symmetry_multiplicity
  _atom_site_fract_x
  _atom_site_fract_y
  _atom_site_fract_z
  _atom_site_occupancy
  Er  Er1       1.0  0.7943534979764948  0.4711312262383701  0.031265226389777495  1.0000
  Er  Er2       1.0  0.20563945242957965  0.5288833110811028  0.968742535876544  1.0000
  Zn  Zn1       1.0  0.6642026890141396  0.6517985797155035  0.3128009974078552  1.0000
  Zn  Zn2       1.0  0.33579611365208717  0.34820003866149574  0.6871979704373601  1.0000
  H   H1        1.0  0.9380161306772408  0.25563620551469773  0.940312570519751  1.0000
  H   H2        1.0  0.06198676248586556  0.7443712361915478  0.059689220303582  1.0000
  H   H3        1.0  0.05277307970143849  0.3232886541036706  0.9556966979671843  1.0000
  H   H4        1.0  0.9472172962101411  0.6767214720536503  0.04430850605139367  1.0000
  H   H5        1.0  0.0653527042262425  0.052234882714145704  0.5285747310064579  1.0000
  H   H6        1.0  0.9346528407679886  0.947754002505917  0.47142319251004494  1.0000
  H   H7        1.0  0.34018025041282846  0.21090717826245248  0.2826454750952649  1.0000
  H   H8        1.0  0.6598174848890325  0.7890914393509617  0.7173488246175453  1.0000
  H   H9        1.0  0.3135875742021952  0.04368452082617579  0.440693905814257  1.0000
  H   H10       1.0  0.6864169609120763  0.9563070106733778  0.5592962488251346  1.0000
  H   H11       1.0  0.5506633491564231  0.25759337610664096  0.5302450248807773  1.0000
  H   H12       1.0  0.4493245454559657  0.7424035015179272  0.4697505158297092  1.0000
  H   H13       1.0  0.9498474323053829  0.3390032745500307  0.5623494243656426  1.0000
  H   H14       1.0  0.050150241483109384  0.6609785681005819  0.43765182175098266  1.0000
  H   H15       1.0  0.8103109204321726  0.4564106188021102  0.693750620900012  1.0000
  H   H16       1.0  0.18969345405858457  0.5435729739262173  0.3062520021268469  1.0000
  H   H17       1.0  0.5478087232106291  0.46552841168384856  0.7403583912869323  1.0000
  H   H18       1.0  0.4521990733670123  0.534451642408861  0.259648095740765  1.0000
  H   H19       1.0  0.33239170336375423  0.8271781198093109  0.7918378673405401  1.0000
  H   H20       1.0  0.6676007024733792  0.172829351399983  0.2081671090741182  1.0000
  H   H21       1.0  0.38992769109863457  0.018573573905115402  0.7015673978343102  1.0000
  H   H22       1.0  0.6100856912763248  0.981419711557372  0.2984366361334878  1.0000
  H   H23       1.0  0.5774252156896723  0.0701840999864558  0.7822820630947263  1.0000
  H   H24       1.0  0.42258498233674413  0.9298091867223093  0.21771271570589332  1.0000
  H   H25       1.0  0.7623184432327649  0.1255709747140443  0.004011908656622211  1.0000
  H   H26       1.0  0.23770444024759038  0.8744249322409415  0.9959875031494505  1.0000
  H   H27       1.0  0.905153241076434  0.8785900704501587  0.8027641214782693  1.0000
  H   H28       1.0  0.09483968589206881  0.12141297066549578  0.1972238057056401  1.0000
  H   H29       1.0  0.08818505391873539  0.9852376760033721  0.712833884057254  1.0000
  H   H30       1.0  0.911816838458499  0.014760922263121805  0.2871490097282816  1.0000
  H   H31       1.0  0.09605462188552143  0.1603597713982978  0.772118334132678  1.0000
  H   H32       1.0  0.9039560129492302  0.8396379243559338  0.22786887511253445  1.0000
  C   C1        1.0  0.4528075264411341  0.663730738839334  0.9777259578652816  1.0000
  C   C2        1.0  0.5471724889429694  0.3362847132652362  0.02227939640857099  1.0000
  C   C3        1.0  0.08027960044896791  0.1224628507536565  0.4584638411842334  1.0000
  C   C4        1.0  0.9197191240308912  0.8775331164537123  0.5415326866373107  1.0000
  C   C5        1.0  0.9710776996086001  0.31150355625309345  0.3280364109073873  1.0000
  C   C6        1.0  0.028928772235929007  0.6884941576690409  0.6719606211884185  1.0000
  C   C7        1.0  0.1104826892117288  0.3063871733042873  0.27870722375593726  1.0000
  C   C8        1.0  0.8895150756643633  0.6936114502041946  0.7212949913402725  1.0000
  C   C9        1.0  0.23342089663044166  0.21140648997192096  0.32127279494050504  1.0000
  C   C10       1.0  0.7665782942319908  0.7885938921759885  0.6787240787090313  1.0000
  C   C11       1.0  0.2180375628717997  0.11863334187067659  0.4092952003110428  1.0000
  C   C12       1.0  0.7819594535220418  0.8813643952440132  0.5907001870484195  1.0000
  C   C13       1.0  0.959125867734443  0.21940352041235667  0.4186213008227071  1.0000
  C   C14       1.0  0.040881337805224335  0.7805950769560327  0.5813786013181427  1.0000
  C   C15       1.0  0.8379251847889152  0.4165162238498894  0.2902571842321748  1.0000
  C   C16       1.0  0.16209531417288048  0.5834947080969997  0.7097486190977876  1.0000
  C   C17       1.0  0.12927770525499235  0.3960971299716645  0.17617337816147946  1.0000
  C   C18       1.0  0.8707154342772797  0.6039112246838985  0.823834468298223  1.0000
  C   C19       1.0  0.612315289296248  0.3000912951980936  0.5650786464228545  1.0000
  C   C20       1.0  0.38768186761166135  0.6998976139781166  0.43492230048970987  1.0000
  C   C21       1.0  0.7599014105695687  0.2890624927042111  0.5371800785101611  1.0000
  C   C22       1.0  0.24009035181030217  0.7109352570987255  0.46281413126077814  1.0000
  C   C23       1.0  0.8346778179065028  0.3455542425167835  0.5828750314542717  1.0000
  C   C24       1.0  0.16532275813085567  0.654431127434293  0.4171289879207833  1.0000
  C   C25       1.0  0.7572227623766635  0.4107105991410336  0.6558674732996082  1.0000
  C   C26       1.0  0.24277833349870545  0.5892677048739544  0.3441376368178554  1.0000
  C   C27       1.0  0.610628369817178  0.4173583831049968  0.6818694236581849  1.0000
  C   C28       1.0  0.3893684534214971  0.5826314087538834  0.3181297251670117  1.0000
  C   C29       1.0  0.6254220435856511  0.9114952505194013  0.915486927394383  1.0000
  C   C30       1.0  0.374571537598257  0.0885033870304355  0.0845195697840495  1.0000
  C   C31       1.0  0.5927228774906151  0.8065093046450615  0.967311490099448  1.0000
  C   C32       1.0  0.4072702134295199  0.1934964047359387  0.0327018317199759  1.0000
  C   C33       1.0  0.4871538156121318  0.7765851900502837  0.9213806300476648  1.0000
  C   C34       1.0  0.51285105294955  0.22341695025436087  0.07862482545479568  1.0000
  C   C35       1.0  0.4144502328528502  0.8524038561369381  0.8253021210221689  1.0000
  C   C36       1.0  0.585546650605835  0.1476000748423019  0.17470822137237016  1.0000
  C   C37       1.0  0.4477787456099732  0.9572020878568211  0.7749961169534103  1.0000
  C   C38       1.0  0.5522265052330725  0.04280181503971651  0.2250056612766898  1.0000
  C   C39       1.0  0.5538774165356057  0.9870257117638989  0.8194828035754896  1.0000
  C   C40       1.0  0.4461267876450421  0.012978194495595098  0.1805198472905758  1.0000
  C   C41       1.0  0.6653931422410936  0.7295811493882167  0.07376458852472474  1.0000
  C   C42       1.0  0.3345860303939149  0.270428126362944  0.9262456802701706  1.0000
  C   C43       1.0  0.8314840292078073  0.0939017737224006  0.9383227913701546  1.0000
  C   C44       1.0  0.16853459535143125  0.9060914966938044  0.06167925403281055  1.0000
  C   C45       1.0  0.8190880140675745  0.9967768267656895  0.9083624266977921  1.0000
  C   C46       1.0  0.18091261165346142  0.0032253157901607006  0.09163148012009262  1.0000
  C   C47       1.0  0.9110478251286909  0.9558259740907573  0.8257095740730378  1.0000
  C   C48       1.0  0.08894437997437168  0.04417618593666361  0.17427864921918262  1.0000
  C   C49       1.0  0.012049294768303298  0.015329032304215702  0.776097959382014  1.0000
  C   C50       1.0  0.9879462364907352  0.9846669343808968  0.22388693865732992  1.0000
  C   C51       1.0  0.01791668439846459  0.11228739692608515  0.8097995616047059  1.0000
  C   C52       1.0  0.9820972736348424  0.8877041048963367  0.19018353084928924  1.0000
  N   N1        1.0  0.5402989116316305  0.3625094941756686  0.6363886556230867  1.0000
  N   N2        1.0  0.45970007424594417  0.637482940358403  0.36360881333882855  1.0000
  N   N3        1.0  0.9289725634220574  0.15030433826853346  0.8897434091945584  1.0000
  N   N4        1.0  0.07105178767038463  0.8496818440912154  0.11024823992589457  1.0000
  Cl  Cl1       1.0  0.7351851919540949  0.7530818704950305  0.4056538092693529  1.0000
  Cl  Cl2       1.0  0.2648090785635945  0.246917641658456  0.5943436848790213  1.0000
  O   O1        1.0  0.8194889452371824  0.49788341906816685  0.3384580684665721  1.0000
  O   O2        1.0  0.18053056583997326  0.5021327991272173  0.661527366781499  1.0000
  O   O3        1.0  0.7557181305792041  0.4168568318978885  0.21783448031233388  1.0000
  O   O4        1.0  0.24429354289540575  0.5831664775428324  0.7821583472601503  1.0000
  O   O5        1.0  0.024658142419724423  0.4444972875422979  0.10620271001308622  1.0000
  O   O6        1.0  0.9753279447746837  0.5555216876689357  0.893810714994686  1.0000
  O   O7        1.0  0.2501218569556444  0.42032226996862937  0.1552365103422133  1.0000
  O   O8        1.0  0.7498711646504007  0.5796807900112597  0.8447767460685542  1.0000
  O   O9        1.0  0.8204472716197272  0.21984502192000835  0.46562091907507147  1.0000
  O   O10       1.0  0.17955018561142572  0.7801712521598603  0.5343630530698888  1.0000
  O   O11       1.0  0.6010482377228359  0.7516216718715967  0.16120073219178727  1.0000
  O   O12       1.0  0.39892256774962925  0.2483761404744982  0.8388045979918459  1.0000
  O   O13       1.0  0.7868521102782751  0.6486929915494883  0.07102400620782123  1.0000
  O   O14       1.0  0.21313579002713828  0.3513153787418658  0.9289866203550545  1.0000
  O   O15       1.0  0.5498060314492007  0.5808252085791212  0.03869041415422463  1.0000
  O   O16       1.0  0.450188506159236  0.41918226356785493  0.9613231069869103  1.0000
  O   O17       1.0  0.7232876786392952  0.9395165087552045  0.9694982958606886  1.0000
  O   O18       1.0  0.27671730381964477  0.0604767983054018  0.030505595349808297  1.0000
  O   O19       1.0  0.9520517271337354  0.3176858305863846  0.9746861613814277  1.0000
  O   O20       1.0  0.047942660016822534  0.682316340400334  0.025324062789032126  1.0000
  O   O21       1.0  0.32530914294329705  0.6600448814694175  0.9631511664385003  1.0000
  O   O22       1.0  0.674686625610434  0.33997053080187817  0.0368553459859129  1.0000
