data_image0
_chemical_formula_structural       La2H60C48N6O26
_chemical_formula_sum              "La2 H60 C48 N6 O26"
_cell_length_a       9.322559939309912
_cell_length_b       11.834954071887449
_cell_length_c       15.257095196051194
_cell_angle_alpha    112.81658535925705
_cell_angle_beta     104.83112563905681
_cell_angle_gamma    89.99465280805873

_space_group_name_H-M_alt    "P 1"
_space_group_IT_number       1

loop_
  _space_group_symop_operation_xyz
  'x, y, z'

loop_
  _atom_site_type_symbol
  _atom_site_label
  _atom_site_symmetry_multiplicity
  _atom_site_fract_x
  _atom_site_fract_y
  _atom_site_fract_z
  _atom_site_occupancy
  La  La1       1.0  0.9212960473961755  0.6873111966265241  0.2136320252806243  1.0000
  La  La2       1.0  0.4209795562431892  0.5263455673696101  0.2137250693836706  1.0000
  H   H1        1.0  0.5472279173725951  0.782558560295328  0.5322138957430838  1.0000
  H   H2        1.0  0.047264068083443064  0.7499692423122466  0.5320120017643362  1.0000
  H   H3        1.0  0.13142390907630397  0.9248085635414186  0.4570052946328433  1.0000
  H   H4        1.0  0.6317639885220672  0.53218427984158  0.45681272285106894  1.0000
  H   H5        1.0  0.7490371231455554  0.4101476571433551  0.8826239933385409  1.0000
  H   H6        1.0  0.2494189194541363  0.47202923142126  0.8821983118805434  1.0000
  H   H7        1.0  0.4131327873259067  0.30166215205284885  0.9894765742533381  1.0000
  H   H8        1.0  0.9133961485073313  0.6871293989068121  0.9891654154217308  1.0000
  H   H9        1.0  0.49281847077006796  0.6791320393681487  0.057447544415751416  1.0000
  H   H10       1.0  0.9927841392892843  0.37841582213044234  0.057619851372337015  1.0000
  H   H11       1.0  0.8234684101026986  0.2530107667793118  0.6462099654264152  1.0000
  H   H12       1.0  0.3236605051170899  0.39271051425026837  0.6459173477664207  1.0000
  H   H13       1.0  0.882581992005015  0.2653923743278739  0.7715993713342469  1.0000
  H   H14       1.0  0.3830744697562735  0.5055090115569314  0.7713642070091424  1.0000
  H   H15       1.0  0.7947113302773161  0.38735824796122376  0.7432153810123338  1.0000
  H   H16       1.0  0.29426513748268224  0.3554605871050356  0.7428251458039979  1.0000
  H   H17       1.0  0.864642776889255  0.9359283994397172  0.7481623110992787  1.0000
  H   H18       1.0  0.36470066671932233  0.8127025534072133  0.7479876197521237  1.0000
  H   H19       1.0  0.7924259045549179  0.9097107805987509  0.6200930642143447  1.0000
  H   H20       1.0  0.2924266010186614  0.7107303237162056  0.619937886871071  1.0000
  H   H21       1.0  0.7341129182251862  0.804387365202075  0.6664276155580495  1.0000
  H   H22       1.0  0.23401474781144316  0.8623746752429252  0.6661862406312764  1.0000
  H   H23       1.0  0.021445276085181292  0.22014572185138084  0.5879625096847079  1.0000
  H   H24       1.0  0.5219989251007534  0.3680449357405777  0.5881209946410237  1.0000
  H   H25       1.0  0.9840980769131703  0.0547937974186681  0.540996256362348  1.0000
  H   H26       1.0  0.4846187701794307  0.4864218580410977  0.5411582596179727  1.0000
  H   H27       1.0  0.0827448532907624  0.1224683771640684  0.4840923905437222  1.0000
  H   H28       1.0  0.5827419068126004  0.3615795735506353  0.4839997956819743  1.0000
  H   H29       1.0  0.13278956844158776  0.040434155622499204  0.8627957941727901  1.0000
  H   H30       1.0  0.6327474630944252  0.8216539603533447  0.8626438385924402  1.0000
  H   H31       1.0  0.1633810016115476  0.20529540153983558  0.9046671698154328  1.0000
  H   H32       1.0  0.663727094814476  0.6984548879827485  0.9042550904068278  1.0000
  H   H33       1.0  0.2924903125724327  0.1266095066512989  0.963286683705533  1.0000
  H   H34       1.0  0.7923114589370002  0.8360581747698034  0.9632257780311946  1.0000
  H   H35       1.0  0.7055632269210292  0.9723530417075424  0.1327717084186873  1.0000
  H   H36       1.0  0.2051758176052161  0.16042872954417217  0.13298811481424622  1.0000
  H   H37       1.0  0.5424776943707171  0.04739712250383829  0.1503790282397972  1.0000
  H   H38       1.0  0.04202154699501649  0.10309888554848358  0.1505546233004225  1.0000
  H   H39       1.0  0.5819315476777049  0.0003949035553248002  0.03356980188678448  1.0000
  H   H40       1.0  0.08157127195218551  0.033196578128482195  0.0337870728814167  1.0000
  H   H41       1.0  0.30276449362427366  0.7436977504334337  0.9830959692883141  1.0000
  H   H42       1.0  0.8026073739508205  0.239490997031595  0.9830612327434878  1.0000
  H   H43       1.0  0.3382871803350866  0.8609761548470728  0.9428405858526502  1.0000
  H   H44       1.0  0.8381057434991134  0.08194741671011489  0.9428880273455817  1.0000
  H   H45       1.0  0.2861558164614451  0.9005915716569535  0.05532918531181261  1.0000
  H   H46       1.0  0.7857878048878106  0.15487743550221467  0.055296965033008384  1.0000
  H   H47       1.0  0.1565732470697014  0.5154982603220688  0.34512162595251544  1.0000
  H   H48       1.0  0.6559482428325721  0.8294732593790786  0.34477928006176484  1.0000
  H   H49       1.0  0.7883343797873649  0.35007391014833183  0.2540943247896052  1.0000
  H   H50       1.0  0.287768462003811  0.9041649222121747  0.25394129817971123  1.0000
  H   H51       1.0  0.8035787824045358  0.35823331888698823  0.3755877200248037  1.0000
  H   H52       1.0  0.30315310735389994  0.0174323797038411  0.3754769265672309  1.0000
  H   H53       1.0  0.862438262307826  0.2284680402666694  0.2895286011906392  1.0000
  H   H54       1.0  0.3619418392522746  0.06114916225880759  0.289403337457351  1.0000
  H   H55       1.0  0.21992302076124304  0.4276093335735069  0.44473969410818637  1.0000
  H   H56       1.0  0.7195176510098235  0.0169941596300376  0.4443963486387403  1.0000
  H   H57       1.0  0.12549173351043663  0.2784861347413213  0.4091450046128458  1.0000
  H   H58       1.0  0.6250733132123187  0.1305534598526776  0.4087967727340853  1.0000
  H   H59       1.0  0.07280466546679781  0.4118821111122913  0.4967664060521528  1.0000
  H   H60       1.0  0.5725006624556174  0.08486745941944208  0.496519203945617  1.0000
  C   C1        1.0  0.47652739864550137  0.8561493390108554  0.552397192932368  1.0000
  C   C2        1.0  0.9766568063277602  0.6965067951250389  0.5522101583406069  1.0000
  C   C3        1.0  0.42583102232671166  0.0536291731081207  0.6665813434511065  1.0000
  C   C4        1.0  0.9262131986705171  0.6130876624631297  0.6663877110455091  1.0000
  C   C5        1.0  0.2856409264742439  0.0410262137023807  0.5990755994274579  1.0000
  C   C6        1.0  0.7861025582236041  0.558037933440815  0.5988393494349894  1.0000
  C   C7        1.0  0.28467824045118556  0.7356223958568434  0.3911140711968457  1.0000
  C   C8        1.0  0.7846560906809755  0.6558279140545267  0.3909814016180136  1.0000
  C   C9        1.0  0.33586106408673533  0.8458193626269404  0.4872772894986356  1.0000
  C   C10       1.0  0.8360405382275999  0.6416743676322626  0.487103539433008  1.0000
  C   C11       1.0  0.5202924107606819  0.9599353152566579  0.6421323845787228  1.0000
  C   C12       1.0  0.02049455003594861  0.6825092600119332  0.641979554793906  1.0000
  C   C13       1.0  0.23979643892013058  0.9371692928802274  0.5097936714429636  1.0000
  C   C14       1.0  0.7401165683452433  0.5726918240271744  0.5095882177911619  1.0000
  C   C15       1.0  0.40929507863859976  0.18428904142206184  0.8379834209163591  1.0000
  C   C16       1.0  0.9097153973089078  0.6535109228023046  0.8377870423223683  1.0000
  C   C17       1.0  0.4762854844777705  0.16329233933287668  0.7608316514142075  1.0000
  C   C18       1.0  0.9767371804470956  0.5975802974216435  0.7606363722320425  1.0000
  C   C19       1.0  0.597453885233854  0.24679906603925875  0.7766038701017449  1.0000
  C   C20       1.0  0.0979164017864846  0.5298003035752785  0.7763567612576878  1.0000
  C   C21       1.0  0.6533449106451457  0.34624361392942393  0.8677238409776393  1.0000
  C   C22       1.0  0.15372444720320289  0.5210768119665231  0.8673538903137228  1.0000
  C   C23       1.0  0.5856271015049614  0.3639553513206906  0.9433612027787673  1.0000
  C   C24       1.0  0.08583639612823651  0.5786823253966418  0.942970455010503  1.0000
  C   C25       1.0  0.4621805890322791  0.2851688955542214  0.9288350827401715  1.0000
  C   C26       1.0  0.9624486363931976  0.6431191501632795  0.9285241292517695  1.0000
  C   C27       1.0  0.6543135918726221  0.46519507820971745  0.04277572461088402  1.0000
  C   C28       1.0  0.154376199915859  0.5766995316022303  0.04238171585545561  1.0000
  C   C29       1.0  0.5683901360983582  0.7649994692115881  0.08609993276854058  1.0000
  C   C30       1.0  0.06818975831360062  0.3211473911545539  0.0863185858364446  1.0000
  C   C31       1.0  0.7971913825012038  0.28713643327328947  0.7173446899059996  1.0000
  C   C32       1.0  0.2973367380614107  0.4298309080799357  0.7170384743793292  1.0000
  C   C33       1.0  0.7661490231693974  0.9015875641059807  0.6838705779002936  1.0000
  C   C34       1.0  0.26619203554488285  0.7826833249469162  0.6836988986500074  1.0000
  C   C35       1.0  0.06467919436312998  0.13205699393561326  0.5549983323182559  1.0000
  C   C36       1.0  0.5651185465824184  0.4230222038946323  0.5550022643711403  1.0000
  C   C37       1.0  0.21755705489056246  0.11989834840873209  0.8922848079820227  1.0000
  C   C38       1.0  0.7176958801893462  0.7717617516077838  0.8921064502893331  1.0000
  C   C39       1.0  0.5888382920890081  0.9760129119106086  0.09706803825594094  1.0000
  C   C40       1.0  0.08845187999096278  0.12109705947580099  0.09724574062563111  1.0000
  C   C41       1.0  0.3497871705725757  0.8393463726926383  0.008084995066987143  1.0000
  C   C42       1.0  0.8495310631280404  0.1688353281927348  0.008097453887351886  1.0000
  C   C43       1.0  0.04064475538084619  0.4710070657133442  0.3117218953359071  1.0000
  C   C44       1.0  0.5400200111709808  0.840635466523814  0.3114413135046306  1.0000
  C   C45       1.0  0.855525727903611  0.32806122259410836  0.3143056684167433  1.0000
  C   C46       1.0  0.3550131599882179  0.9863166983032201  0.3141609717982163  1.0000
  C   C47       1.0  0.11200970808206988  0.37682074137106275  0.429787758541913  1.0000
  C   C48       1.0  0.6116124183560602  0.05290528480921349  0.4294987385998894  1.0000
  N   N1        1.0  0.5061699599211877  0.8553420014161475  0.0628468727936778  1.0000
  N   N2        1.0  0.00588455348813711  0.20755951152634117  0.06295635317913914  1.0000
  N   N3        1.0  0.9845038788031458  0.9633587974237656  0.26433926693518134  1.0000
  N   N4        1.0  0.48459728770150423  0.3009990843592761  0.26439397154852873  1.0000
  N   N5        1.0  0.004825552050512314  0.39315989872570617  0.34863627677043507  1.0000
  N   N6        1.0  0.5043053371287342  0.9554301018631081  0.3483953002838335  1.0000
  O   O1        1.0  0.1631411932135762  0.7371228082976202  0.3304974775319778  1.0000
  O   O2        1.0  0.6629574803631542  0.5939149757289286  0.3304904676979064  1.0000
  O   O3        1.0  0.7008157739276868  0.7756977216562931  0.13639821718632564  1.0000
  O   O4        1.0  0.20053213391079788  0.3606834892561253  0.13681916860774382  1.0000
  O   O5        1.0  0.6529434352018909  0.9779280154337046  0.7124830218947124  1.0000
  O   O6        1.0  0.1530474982775445  0.7350017923393608  0.7123728921228648  1.0000
  O   O7        1.0  0.36365192575960487  0.6456465775596811  0.37398756925851023  1.0000
  O   O8        1.0  0.8635694119514524  0.7286484857950556  0.373791014830509  1.0000
  O   O9        1.0  0.2014637707349181  0.13650284571092897  0.6259328998659939  1.0000
  O   O10       1.0  0.7021717310544062  0.4892628723321407  0.6257126421757349  1.0000
  O   O11       1.0  0.2952245529987181  0.09769868556161748  0.8187625162366459  1.0000
  O   O12       1.0  0.7957174503827176  0.7210314572972152  0.8187101395949199  1.0000
  O   O13       1.0  0.5874086109005036  0.49103871222671097  0.10997791937649747  1.0000
  O   O14       1.0  0.0876058209735291  0.6182834797639458  0.10964906973610059  1.0000
  O   O15       1.0  0.7801976035059041  0.519951452527721  0.055471054895441865  1.0000
  O   O16       1.0  0.28013956364064535  0.5344204422781474  0.055020294599884854  1.0000
  O   O17       1.0  0.6542325076785575  0.22355632534119962  0.6978296778123152  1.0000
  O   O18       1.0  0.1547768912946523  0.4745027978197669  0.697592451496817  1.0000
  O   O19       1.0  0.010473777241372797  0.8806064672616714  0.18756823911947162  1.0000
  O   O20       1.0  0.5102590690857696  0.30689861951064057  0.187514777267225  1.0000
  O   O21       1.0  0.9525903346520225  0.49290036966787903  0.2438219835878144  1.0000
  O   O22       1.0  0.4519125430127673  0.7509028291439678  0.243539049318521  1.0000
  O   O23       1.0  0.9299477431215593  0.9271361766799868  0.3189881375758646  1.0000
  O   O24       1.0  0.43020043610793113  0.3919393030395639  0.31912939016888947  1.0000
  O   O25       1.0  0.012767761918823301  0.0753136837129276  0.2852654784434137  1.0000
  O   O26       1.0  0.5129778168827883  0.20999925469205039  0.2853466152004741  1.0000
