data_image0
_chemical_formula_structural       Cd2H28C36S4N16O4
_chemical_formula_sum              "Cd2 H28 C36 S4 N16 O4"
_cell_length_a       7.654075723420917
_cell_length_b       9.909495681186902
_cell_length_c       13.882042048808803
_cell_angle_alpha    89.9996057336327
_cell_angle_beta     106.07225978871959
_cell_angle_gamma    90.00067347271565

_space_group_name_H-M_alt    "P 1"
_space_group_IT_number       1

loop_
  _space_group_symop_operation_xyz
  'x, y, z'

loop_
  _atom_site_type_symbol
  _atom_site_label
  _atom_site_symmetry_multiplicity
  _atom_site_fract_x
  _atom_site_fract_y
  _atom_site_fract_z
  _atom_site_occupancy
  Cd  Cd1       1.0  2.578956142020545e-06  0.49999446789723123  0.999999268851106  1.0000
  Cd  Cd2       1.0  0.5000018301212634  2.7363293499999995e-07  3.989519967937966e-07  1.0000
  H   H1        1.0  0.7619582386585935  0.5843747512379949  0.3307141488742148  1.0000
  H   H2        1.0  0.7380288449391442  0.08437281853541378  0.6692765802063221  1.0000
  H   H3        1.0  0.2380338224920848  0.4156305731212413  0.6692842443840166  1.0000
  H   H4        1.0  0.2619794800771231  0.915622414560424  0.3307232997715275  1.0000
  H   H5        1.0  0.8210860991219633  0.634589259274527  0.16543643954403114  1.0000
  H   H6        1.0  0.6789029398270402  0.13458925392857415  0.8345528743368009  1.0000
  H   H7        1.0  0.1789016682027409  0.3654160650848723  0.8345577673216269  1.0000
  H   H8        1.0  0.32110670078312603  0.8654130431074946  0.1654464634612367  1.0000
  H   H9        1.0  0.0134806285012417  0.24880619149691796  0.1433011028871647  1.0000
  H   H10       1.0  0.4865220771287895  0.7488041864346967  0.8567029145742425  1.0000
  H   H11       1.0  0.9865209886587821  0.7511991328965592  0.8566993080856024  1.0000
  H   H12       1.0  0.5134632761313185  0.25120618355672514  0.14329600968627432  1.0000
  H   H13       1.0  0.9648116457777434  0.1808597945983621  0.3080289556114337  1.0000
  H   H14       1.0  0.535192436653688  0.6808501681831982  0.69197587343988  1.0000
  H   H15       1.0  0.0351912869555875  0.8191495663360723  0.6919709131859407  1.0000
  H   H16       1.0  0.4648012004204247  0.3191531378989865  0.30802633732761825  1.0000
  H   H17       1.0  0.5554820384757235  0.4547644460623131  0.6155286026153989  1.0000
  H   H18       1.0  0.9445214767842813  0.9547635061470033  0.38447124138338756  1.0000
  H   H19       1.0  0.44451953523083193  0.545232805269684  0.3844710817565088  1.0000
  H   H20       1.0  0.05548154267064119  0.045234754316950884  0.6155300806554537  1.0000
  H   H21       1.0  0.7695799899055448  0.5338216824089912  0.6662489529798565  1.0000
  H   H22       1.0  0.7304270938652168  0.033821852232904306  0.3337497764349422  1.0000
  H   H23       1.0  0.2304216271789628  0.4661725415204856  0.33375145800910394  1.0000
  H   H24       1.0  0.2695758387994616  0.9661774173706306  0.6662500923771475  1.0000
  H   H25       1.0  0.7241290997186028  0.3725093132941878  0.712237016531212  1.0000
  H   H26       1.0  0.7758719374885316  0.8725097625208565  0.2877628828607612  1.0000
  H   H27       1.0  0.27586984288252125  0.6274859197544274  0.2877637521826558  1.0000
  H   H28       1.0  0.22413248431621466  0.1274895070782947  0.7122393502323734  1.0000
  C   C1        1.0  0.8192551384049055  0.507321830719725  0.2920951898551039  1.0000
  C   C2        1.0  0.6807351038761384  0.007319006566426397  0.7078984970638517  1.0000
  C   C3        1.0  0.18073547700426218  0.492683493640648  0.7079015657347227  1.0000
  C   C4        1.0  0.3192706768661396  0.9926792539049881  0.2921039204738847  1.0000
  C   C5        1.0  0.8518210812877669  0.5355236486003887  0.20028501637371224  1.0000
  C   C6        1.0  0.6481723059778942  0.03552066451218389  0.7997096838139015  1.0000
  C   C7        1.0  0.1481695341076659  0.4644796574938041  0.7997117392190561  1.0000
  C   C8        1.0  0.3518347469254053  0.9644796142372626  0.2002914649387364  1.0000
  C   C9        1.0  0.9601755825368058  0.3198442052752241  0.18823515896203702  1.0000
  C   C10       1.0  0.5398247814948505  0.8198385311665387  0.8117656206116735  1.0000
  C   C11       1.0  0.039817794173444596  0.6801631373587966  0.8117626921237431  1.0000
  C   C12       1.0  0.4601714432724009  0.1801647749360953  0.18823477920416565  1.0000
  C   C13       1.0  0.9325985524831708  0.2826207642637755  0.2792377875294535  1.0000
  C   C14       1.0  0.5674013918909966  0.7826131784308998  0.7207645538079037  1.0000
  C   C15       1.0  0.06739486762563018  0.7173865783669982  0.720760790168967  1.0000
  C   C16       1.0  0.43259491965963554  0.2173881093990602  0.27923729923615787  1.0000
  C   C17       1.0  0.8634325824872564  0.3785473718317006  0.33362022243785117  1.0000
  C   C18       1.0  0.6365631010390658  0.8785399265894255  0.6663789215874303  1.0000
  C   C19       1.0  0.13656079421613043  0.6214589616692264  0.6663776286494  1.0000
  C   C20       1.0  0.363439961828135  0.12146035213746129  0.3336231270611023  1.0000
  C   C21       1.0  0.8398751310881566  0.34311715006892024  0.4306718411552027  1.0000
  C   C22       1.0  0.6601241038365017  0.8431108410333008  0.569327232892107  1.0000
  C   C23       1.0  0.1601277582054266  0.6568861560702216  0.5693273010383565  1.0000
  C   C24       1.0  0.3398790024361205  0.15689044682343217  0.43067554236759525  1.0000
  C   C25       1.0  0.7707532342642835  0.36881475863150104  0.5694375537420414  1.0000
  C   C26       1.0  0.7292463937202599  0.868813426424474  0.4305621719819329  1.0000
  C   C27       1.0  0.22924833943540088  0.6311814835674098  0.43056213063133  1.0000
  C   C28       1.0  0.2707580714830371  0.13118584317143697  0.5694407877238419  1.0000
  C   C29       1.0  0.7018427651677827  0.43636746851949215  0.6457041531507317  1.0000
  C   C30       1.0  0.7981591842538052  0.9363674912070505  0.35429628665779944  1.0000
  C   C31       1.0  0.2981574929723294  0.5636267554046341  0.35429607339509067  1.0000
  C   C32       1.0  0.2018438786065317  0.06363177838674257  0.6457057619922041  1.0000
  C   C33       1.0  0.9032968595054173  0.8267119477055757  0.054389820135497854  1.0000
  C   C34       1.0  0.5967021957306501  0.3267222453562794  0.9456100283343006  1.0000
  C   C35       1.0  0.09670326831546558  0.17326411183266535  0.9456082265988927  1.0000
  C   C36       1.0  0.40329666003218995  0.6732669329002832  0.054389287163111526  1.0000
  S   S1        1.0  0.8607536632323658  0.9662049851337287  0.10580822285923121  1.0000
  S   S2        1.0  0.6392473766720173  0.4662161603460786  0.8941926721027543  1.0000
  S   S3        1.0  0.1392509320498903  0.03377712918990741  0.8941969167094755  1.0000
  S   S4        1.0  0.3607529248941077  0.5337821001071674  0.10580828104983203  1.0000
  N   N1        1.0  0.9233158281826308  0.4449272733624168  0.14997937196599054  1.0000
  N   N2        1.0  0.5766847919391012  0.9449246018437872  0.8500194052195058  1.0000
  N   N3        1.0  0.0766775919055789  0.5550770418690902  0.8500192057368424  1.0000
  N   N4        1.0  0.42331818415845385  0.055079713421953606  0.14998119019786324  1.0000
  N   N5        1.0  0.878332790966475  0.22922633397471506  0.4795661229926367  1.0000
  N   N6        1.0  0.6216648944439813  0.7292231633728931  0.5204332831313182  1.0000
  N   N7        1.0  0.12167132706212408  0.770774953913339  0.5204310238090814  1.0000
  N   N8        1.0  0.37833685288424584  0.2707781244784826  0.479569307685253  1.0000
  N   N9        1.0  0.8341645071504828  0.24616299468263486  0.5695535293638869  1.0000
  N   N10       1.0  0.6658320497549823  0.7461610822364974  0.4304456429314385  1.0000
  N   N11       1.0  0.16583965424920416  0.753834256669812  0.4304443440563547  1.0000
  N   N12       1.0  0.3341683820274  0.25384020560627346  0.569557490054649  1.0000
  N   N13       1.0  0.9363075056740086  0.7258494231351307  0.017162237117709412  1.0000
  N   N14       1.0  0.5636955696224958  0.2258540195249026  0.9828379166137893  1.0000
  N   N15       1.0  0.0636899043747761  0.27414379165493585  0.9828354407054151  1.0000
  N   N16       1.0  0.4363044281606179  0.774145250084146  0.01715795024885131  1.0000
  O   O1        1.0  0.7711957958998924  0.43670964305019316  0.4833624884430848  1.0000
  O   O2        1.0  0.7288062015471582  0.9367054723759975  0.5166386769864958  1.0000
  O   O3        1.0  0.22880586462435562  0.5632906356745834  0.5166386491496837  1.0000
  O   O4        1.0  0.2711982636630027  0.06329480635299228  0.4833642827178082  1.0000
