data_image0
_chemical_formula_structural       Al6H68C102Br6O28
_chemical_formula_sum              "Al6 H68 C102 Br6 O28"
_cell_length_a       13.60415231428754
_cell_length_b       13.577948518446457
_cell_length_c       27.22193481438887
_cell_angle_alpha    90.6512139173745
_cell_angle_beta     90.34419588994876
_cell_angle_gamma    62.55940022690446

_space_group_name_H-M_alt    "P 1"
_space_group_IT_number       1

loop_
  _space_group_symop_operation_xyz
  'x, y, z'

loop_
  _atom_site_type_symbol
  _atom_site_label
  _atom_site_symmetry_multiplicity
  _atom_site_fract_x
  _atom_site_fract_y
  _atom_site_fract_z
  _atom_site_occupancy
  Al  Al1       1.0  0.4121447790991155  0.4276232622541869  0.4942372777660609  1.0000
  Al  Al2       1.0  0.40153227213698267  0.1967360149273532  0.4970120261883437  1.0000
  Al  Al3       1.0  0.18731569091940517  0.40673785831636877  0.4938964278937732  1.0000
  Al  Al4       1.0  0.9108764920691002  0.9220985145854499  0.9845793878331295  1.0000
  Al  Al5       1.0  0.9216347352580668  0.15255800712244388  0.984587724603145  1.0000
  Al  Al6       1.0  0.13597039368976735  0.9421878065839524  0.980395643112935  1.0000
  H   H1        1.0  0.07265646193243923  0.3543463312800482  0.1841210249512599  1.0000
  H   H2        1.0  0.18156289536869952  0.8380762849209945  0.2106221916066815  1.0000
  H   H3        1.0  0.5044094700692057  0.27654844573064  0.1870233720821801  1.0000
  H   H4        1.0  0.20205723213788926  0.3288406210711586  0.2708342957793235  1.0000
  H   H5        1.0  0.3216035988364966  0.6780529633675345  0.2851237890238565  1.0000
  H   H6        1.0  0.5402804834864696  0.34526951951398394  0.2830493033710724  1.0000
  H   H7        1.0  0.21824348009875652  0.2953374523887504  0.1877702843162581  1.0000
  H   H8        1.0  0.3122472149555196  0.7226767579874575  0.20236649086505315  1.0000
  H   H9        1.0  0.5911943515321454  0.3372638119902477  0.20167897456780537  1.0000
  H   H10       1.0  0.27088307058824057  0.0021776029045738983  0.2010635088064348  1.0000
  H   H11       1.0  0.21271563955173878  0.5146183808833272  0.17773590402682524  1.0000
  H   H12       1.0  0.8469766031796339  0.06868474692244321  0.22072745055928072  1.0000
  H   H13       1.0  0.9595795072514762  0.2829932978229621  0.8547666638579301  1.0000
  H   H14       1.0  0.2516042136230468  0.8051786246561009  0.8472059076917232  1.0000
  H   H15       1.0  0.7444211618910618  0.9854880388083417  0.8606538356773044  1.0000
  H   H16       1.0  0.04844144586854782  0.3529143655715643  0.6163461812503003  1.0000
  H   H17       1.0  0.32144422017735497  0.6336064634305529  0.6095865199552791  1.0000
  H   H18       1.0  0.5770229964335769  0.0647280647295219  0.6230216111156254  1.0000
  H   H19       1.0  0.8965831940996408  0.3901404000860537  0.7779763698194984  1.0000
  H   H20       1.0  0.35244312479243683  0.7731819291669525  0.7685518454119419  1.0000
  H   H21       1.0  0.6979113876608238  0.9161626743530746  0.7840092558109362  1.0000
  H   H22       1.0  0.9270356555300834  0.4142889159392952  0.6904141810355855  1.0000
  H   H23       1.0  0.376747317469409  0.713538082508137  0.6812020845689376  1.0000
  H   H24       1.0  0.6396283891782772  0.943020120641613  0.696868356617273  1.0000
  H   H25       1.0  0.2816709877620767  0.0009065631075983983  0.8631633560498031  1.0000
  H   H26       1.0  0.9678311248198527  0.7474649190103476  0.85853903840691  1.0000
  H   H27       1.0  0.7253081785990859  0.3098661416804873  0.8666241805295203  1.0000
  H   H28       1.0  0.4390823420877013  0.9681007754307275  0.7017243171868799  1.0000
  H   H29       1.0  0.93213583220448  0.6121848625822323  0.69765860571394  1.0000
  H   H30       1.0  0.5983002187122112  0.4624709649183246  0.705361631304477  1.0000
  H   H31       1.0  0.3694385586854453  0.06871250163941771  0.6228701634795897  1.0000
  H   H32       1.0  0.039948496259043495  0.5718021730003358  0.6197221270818077  1.0000
  H   H33       1.0  0.5523944920809428  0.3914460926513996  0.6284303746186383  1.0000
  H   H34       1.0  0.09714284730894462  0.0770052952410083  0.2826569108693491  1.0000
  H   H35       1.0  0.014922028404811346  0.6623651584592807  0.2735429075256803  1.0000
  H   H36       1.0  0.7279744528507455  0.9908510081476365  0.28269280897914234  1.0000
  H   H37       1.0  0.9926085186223615  0.21599042280797687  0.2869584137229282  1.0000
  H   H38       1.0  0.008804209561333225  0.7936429139762423  0.2824255125824493  1.0000
  H   H39       1.0  0.5832297358235862  0.04301170567239859  0.2814869793495944  1.0000
  H   H40       1.0  0.9812332683046278  0.23633638298633036  0.20138501728483502  1.0000
  H   H41       1.0  0.005315217597391954  0.8148455965363655  0.19792458851597422  1.0000
  H   H42       1.0  0.5739482058664934  0.07637006659835072  0.1961963653836065  1.0000
  H   H43       1.0  0.3387153052737233  0.12926000457676418  0.2716318621232645  1.0000
  H   H44       1.0  0.32467678113849263  0.5024184621483841  0.2704265002902062  1.0000
  H   H45       1.0  0.7363081834473916  0.259177209336059  0.291789522322432  1.0000
  H   H46       1.0  0.2971244573587413  0.027392837148831  0.2846035644452556  1.0000
  H   H47       1.0  0.20140460975528646  0.4914039448030181  0.2618671546222515  1.0000
  H   H48       1.0  0.8156158248816611  0.11608723571767852  0.3039446833153434  1.0000
  H   H49       1.0  0.33598001028224894  0.08521553774956202  0.1880112094416617  1.0000
  H   H50       1.0  0.3304345935052594  0.5363016052213255  0.1865556927457206  1.0000
  H   H51       1.0  0.804003241234284  0.21031944173617495  0.2105838389345891  1.0000
  H   H52       1.0  0.007631663875059811  0.3983668955669232  0.3520491590310826  1.0000
  H   H53       1.0  0.08094731523234336  0.4710349412124516  0.3345313750797914  1.0000
  H   H54       1.0  0.9354172954668131  0.5334030271559058  0.32728386014231603  1.0000
  H   H55       1.0  0.014047125659288976  0.47402269496647154  0.2461765603793822  1.0000
  H   H56       1.0  0.9566104222150782  0.38783983862977334  0.26322562891295587  1.0000
  H   H57       1.0  0.14918101452646218  0.808772628235886  0.37583525621364805  1.0000
  H   H58       1.0  0.28913275072515887  0.7786302071916256  0.367986959929013  1.0000
  H   H59       1.0  0.1845832250906271  0.9187139985230813  0.3718430259532042  1.0000
  H   H60       1.0  0.23154251003410312  0.8841384921112265  0.2856211894940657  1.0000
  H   H61       1.0  0.10098844959615869  0.8902155681590074  0.2918345055082412  1.0000
  H   H62       1.0  0.4097533705954319  0.22955212992965812  0.34651993512136414  1.0000
  H   H63       1.0  0.2898095042760858  0.340647061903752  0.3225828089139782  1.0000
  H   H64       1.0  0.4018534267714314  0.36304933647886634  0.341885686264547  1.0000
  H   H65       1.0  0.3739113998249763  0.33760385537581783  0.2455797247240881  1.0000
  H   H66       1.0  0.43369883699710954  0.1963104937406399  0.2582776430772142  1.0000
  H   H67       1.0  0.5381355551498572  0.49375205979676196  0.5167352119404143  1.0000
  H   H68       1.0  0.8122407915633831  0.8336229048891327  0.0156503208307299  1.0000
  C   C1        1.0  0.227988586559377  0.5307866943904643  0.4223995235597897  1.0000
  C   C2        1.0  0.5458052297417312  0.21406105878492102  0.4333184641484777  1.0000
  C   C3        1.0  0.22440778501676567  0.23217021656095232  0.42741897750826047  1.0000
  C   C4        1.0  0.2672769920301263  0.08350269523583619  0.20830834505284204  1.0000
  C   C5        1.0  0.24529661040193665  0.5622641660121843  0.1990191217304087  1.0000
  C   C6        1.0  0.7780570331681388  0.1518209409323177  0.2261603111239125  1.0000
  C   C7        1.0  0.27471772000554034  0.10359540381532642  0.2637322639948465  1.0000
  C   C8        1.0  0.24121319437870167  0.5440679693679868  0.2546591054908093  1.0000
  C   C9        1.0  0.7487787804745877  0.1760154017919007  0.2808271980143715  1.0000
  C   C10       1.0  0.14778810685202615  0.16512035925244106  0.13523019064027153  1.0000
  C   C11       1.0  0.1698319831531093  0.714318159826725  0.136847876720843  1.0000
  C   C12       1.0  0.7052167642251633  0.1525178768087798  0.1445778283851169  1.0000
  C   C13       1.0  0.17436401178256494  0.20148249794014816  0.33675155316736743  1.0000
  C   C14       1.0  0.18220203322206885  0.623360026326246  0.3346399817172241  1.0000
  C   C15       1.0  0.6235156174769473  0.17309905917861812  0.34394220309818735  1.0000
  C   C16       1.0  0.19580361003605154  0.20450151799408192  0.3800681389955543  1.0000
  C   C17       1.0  0.19695758107628342  0.5849920400860357  0.37572051733724976  1.0000
  C   C18       1.0  0.6064248050571878  0.18006158029880479  0.3879583530335395  1.0000
  C   C19       1.0  0.787491326706416  0.120548572435716  0.9179626364201711  1.0000
  C   C20       1.0  0.09327054229628827  0.11552828017325115  0.913456528231663  1.0000
  C   C21       1.0  0.08962357458064206  0.8209257326613726  0.9088446724383772  1.0000
  C   C22       1.0  0.7976725506119209  0.11270942732049602  0.0564841853142042  1.0000
  C   C23       1.0  0.10134082594291269  0.12240618010653753  0.0465069600745665  1.0000
  C   C24       1.0  0.11805629556893386  0.8039996500868726  0.04869167136418181  1.0000
  C   C25       1.0  0.11053804336614088  0.2849050893278289  0.6375684705868068  1.0000
  C   C26       1.0  0.2528725917650051  0.6371320611359081  0.6313859925376519  1.0000
  C   C27       1.0  0.5863759060651362  0.12887270429585132  0.6439242171401958  1.0000
  C   C28       1.0  0.09149431301295151  0.27293056048334563  0.6871674285147692  1.0000
  C   C29       1.0  0.2376002324166321  0.6760421466305504  0.6800567731886744  1.0000
  C   C30       1.0  0.6214305939852024  0.11070581354071861  0.6930420053858484  1.0000
  C   C31       1.0  0.05630108259467903  0.24514141795435754  0.7879557959771688  1.0000
  C   C32       1.0  0.20906200230112404  0.7457484620192363  0.78028467122833  1.0000
  C   C33       1.0  0.6894461295709463  0.079103183504948  0.793190726273579  1.0000
  C   C34       1.0  0.208699258194784  0.5469843872197089  0.5606205989698054  1.0000
  C   C35       1.0  0.5167545804183787  0.2514486484207978  0.5702696525828301  1.0000
  C   C36       1.0  0.231928068722972  0.2313956926290005  0.5635266023020549  1.0000
  C   C37       1.0  0.9738181054364148  0.3337071960508382  0.7598131616348313  1.0000
  C   C38       1.0  0.29643576605040095  0.7460971618785378  0.751131353901137  1.0000
  C   C39       1.0  0.6787161093839628  0.9939176646139458  0.7656009470465295  1.0000
  C   C40       1.0  0.9906801702335528  0.34699143691194223  0.7115162996158447  1.0000
  C   C41       1.0  0.3099545594380685  0.7130436091309635  0.703059356150341  1.0000
  C   C42       1.0  0.6464766520813116  0.008924126071860905  0.7175639866594637  1.0000
  C   C43       1.0  0.038097849302971554  0.22863809794530718  0.8371241970635737  1.0000
  C   C44       1.0  0.19539353024216413  0.7783926245801708  0.8298562415780637  1.0000
  C   C45       1.0  0.724598116753235  0.0633215737936723  0.8422123313007859  1.0000
  C   C46       1.0  0.118840029814379  0.14032307854730425  0.8634605169163265  1.0000
  C   C47       1.0  0.10882068933018743  0.7785579820983342  0.8572608285428203  1.0000
  C   C48       1.0  0.7378498341155577  0.1460961299712764  0.8679201821663725  1.0000
  C   C49       1.0  0.2922437127904161  0.12397086185945481  0.6412209409604159  1.0000
  C   C50       1.0  0.09339629431837444  0.6021050781501813  0.637017449775179  1.0000
  C   C51       1.0  0.5729078930279314  0.31364773016336045  0.6469724321279315  1.0000
  C   C52       1.0  0.2769672962063439  0.10993032209137972  0.6910436268684563  1.0000
  C   C53       1.0  0.07565424305837347  0.6398198401278563  0.6858903049511724  1.0000
  C   C54       1.0  0.6076579883059381  0.29888921137236935  0.6960729588980287  1.0000
  C   C55       1.0  0.17565635719086714  0.18457501355002393  0.7145173144050008  1.0000
  C   C56       1.0  0.14879981936810796  0.6763402968857478  0.7081173117955828  1.0000
  C   C57       1.0  0.6317620126574965  0.19690117589409084  0.7197708130096601  1.0000
  C   C58       1.0  0.3610860037375758  0.023541230975745  0.7194416555748191  1.0000
  C   C59       1.0  0.9876757580352161  0.6402151473477389  0.7146723250532219  1.0000
  C   C60       1.0  0.618041827115036  0.3843482465130352  0.7234611696967336  1.0000
  C   C61       1.0  0.3444071794939276  0.0114581287232554  0.7679004978909205  1.0000
  C   C62       1.0  0.9739906770275438  0.6740430769328045  0.7626340135319724  1.0000
  C   C63       1.0  0.6509345419961292  0.3687212950106442  0.7714007883554856  1.0000
  C   C64       1.0  0.2424441044546272  0.08257680505135312  0.792823531700769  1.0000
  C   C65       1.0  0.0459911125926382  0.7107506950697982  0.786850232816292  1.0000
  C   C66       1.0  0.6771370625243306  0.2671277034159729  0.7969041396826029  1.0000
  C   C67       1.0  0.1363726180277709  0.3083805245025033  0.25891875311997137  1.0000
  C   C68       1.0  0.23465470064903118  0.7281506755518308  0.27379100779350557  1.0000
  C   C69       1.0  0.5438802859224835  0.2700733015297417  0.265562879996601  1.0000
  C   C70       1.0  0.1586749690174685  0.17078549642931054  0.7649082097453572  1.0000
  C   C71       1.0  0.1341507295506403  0.7110861910282935  0.7581455833050796  1.0000
  C   C72       1.0  0.6657263272090573  0.18155300611154965  0.769749932945068  1.0000
  C   C73       1.0  0.2204580414464061  0.0688464429266702  0.8417174774267694  1.0000
  C   C74       1.0  0.03464404792843834  0.7454262206964087  0.8360138020131275  1.0000
  C   C75       1.0  0.7138174339988409  0.2471829769946439  0.845683472638207  1.0000
  C   C76       1.0  0.20973401511141532  0.21106317213642709  0.6147526728425062  1.0000
  C   C77       1.0  0.18212814074171763  0.5995126999052757  0.6102562023259139  1.0000
  C   C78       1.0  0.5617623268818407  0.22951578449329454  0.6211979321508281  1.0000
  C   C79       1.0  0.07185790460737708  0.1612558287529211  0.26933152716686243  1.0000
  C   C80       1.0  0.055997879383923484  0.7126895611094071  0.2642192896994118  1.0000
  C   C81       1.0  0.6509430794847193  0.059147272815671684  0.2689708262273811  1.0000
  C   C82       1.0  0.05899653789367677  0.16613555201939081  0.2130286610999192  1.0000
  C   C83       1.0  0.05643086939981148  0.7282128143541372  0.2083885455747208  1.0000
  C   C84       1.0  0.6528017546038357  0.0633141852050656  0.21261685420113713  1.0000
  C   C85       1.0  0.13322234390442128  0.15464134155578793  0.091817112473322  1.0000
  C   C86       1.0  0.15424191280148145  0.7478045186399098  0.0948933715488849  1.0000
  C   C87       1.0  0.7396169102078146  0.1429348573850078  0.10277489615013741  1.0000
  C   C88       1.0  0.16243324550961094  0.19529606238938874  0.28381134679890613  1.0000
  C   C89       1.0  0.17612527444413228  0.6551850200362282  0.2835669447193681  1.0000
  C   C90       1.0  0.6404068014116008  0.16909866769304216  0.2913667783882232  1.0000
  C   C91       1.0  0.14587439110569278  0.2896870897040174  0.20241425066525665  1.0000
  C   C92       1.0  0.22925134699008254  0.7489831179974829  0.21769807895712032  1.0000
  C   C93       1.0  0.5742457947524926  0.26771633076842966  0.21039618068497393  1.0000
  C   C94       1.0  0.15701104130879878  0.17445136108962345  0.1879630974302557  1.0000
  C   C95       1.0  0.1757019304033847  0.6867895392525867  0.1885565687027295  1.0000
  C   C96       1.0  0.678025834218964  0.15836757622975034  0.196402961592284  1.0000
  C   C97       1.0  0.024680047027899804  0.4079098503671759  0.27203937905878217  1.0000
  C   C98       1.0  0.011678161957924274  0.45430702784317134  0.32434478859028815  1.0000
  C   C99       1.0  0.189018718065782  0.8396815250809766  0.3015354442913107  1.0000
  C   C100      1.0  0.2036744833569059  0.835947377739039  0.3572885929505887  1.0000
  C   C101      1.0  0.4296130302552542  0.2750709855055646  0.2715488720549857  1.0000
  C   C102      1.0  0.3804497682657697  0.3031616968325537  0.3233666313309769  1.0000
  Br  Br1       1.0  0.46129948980193797  0.8962152461866211  0.8036212670663261  1.0000
  Br  Br2       1.0  0.8560200444836069  0.6700070996821526  0.7987207736833001  1.0000
  Br  Br3       1.0  0.6611181329628907  0.48738768648204467  0.8055742685428912  1.0000
  Br  Br4       1.0  0.04657855691090872  0.0360472670157463  0.1863588112729246  1.0000
  Br  Br5       1.0  0.9818601458049372  0.6517240376197507  0.173287795718359  1.0000
  Br  Br6       1.0  0.7591741846403508  0.9167001722109094  0.18622594193990244  1.0000
  O   O1        1.0  0.5202978734731829  0.31038295910848757  0.4490846622301206  1.0000
  O   O2        1.0  0.31864122446167187  0.16743833627767665  0.44571004262876107  1.0000
  O   O3        1.0  0.15507917026128842  0.5117408280963858  0.4445861032408446  1.0000
  O   O4        1.0  0.021484637099718012  0.8266783015523912  0.0346972777147343  1.0000
  O   O5        1.0  0.821293844305629  0.1848654810975532  0.03646896668207231  1.0000
  O   O6        1.0  0.166655068275297  0.02667455108400669  0.0292297757693376  1.0000
  O   O7        1.0  0.32542072205340133  0.5038688930775308  0.4369695359326045  1.0000
  O   O8        1.0  0.5156493748696319  0.14490639568430913  0.45218513480025996  1.0000
  O   O9        1.0  0.15384327867906927  0.3248995665752119  0.4463034576431113  1.0000
  O   O10       1.0  0.49316861179822535  0.34522447262432376  0.5521216485790816  1.0000
  O   O11       1.0  0.32289196677583476  0.16062605548162173  0.5434856039855234  1.0000
  O   O12       1.0  0.1394500149306524  0.5158661384954257  0.5418745302885171  1.0000
  O   O13       1.0  0.29832502510850395  0.5312628143766389  0.5407461704085392  1.0000
  O   O14       1.0  0.5015803239254168  0.17463170019527754  0.5486218064274482  1.0000
  O   O15       1.0  0.16238058267748565  0.32080866348658077  0.5430377138207092  1.0000
  O   O16       1.0  0.33299837144743094  0.34249797016376243  0.49480623776739924  1.0000
  O   O17       1.0  0.9998349271143429  0.8376719767248064  0.9289577208623501  1.0000
  O   O18       1.0  0.808638578515115  0.19476936197256825  0.9390463571051129  1.0000
  O   O19       1.0  0.16524527189450572  0.026159292744729605  0.9335462046305095  1.0000
  O   O20       1.0  0.8104046660857803  0.027108296752928095  0.9357045259090597  1.0000
  O   O21       1.0  0.9995676625663067  0.18085407700484527  0.9323237669736743  1.0000
  O   O22       1.0  0.16483977380594436  0.8410551955143577  0.9288875809026749  1.0000
  O   O23       1.0  0.9904197301068793  0.006615439194774802  0.9837358958300442  1.0000
  O   O24       1.0  0.8238005849251309  0.0162068929038455  0.0403229902683364  1.0000
  O   O25       1.0  0.006594516912137697  0.1894981158147431  0.028842028926988002  1.0000
  O   O26       1.0  0.18615834077110088  0.8307119435758709  0.0265379684974008  1.0000
  O   O27       1.0  0.4827045778830766  0.5078105223791597  0.4917100064511644  1.0000
  O   O28       1.0  0.8392349752693915  0.8429345172725252  0.9841575289308723  1.0000
