data_image0
_chemical_formula_structural       Li2B2H28C36N4O12
_chemical_formula_sum              "Li2 B2 H28 C36 N4 O12"
_cell_length_a       8.75940245502416
_cell_length_b       9.874188030807305
_cell_length_c       11.77668662584616
_cell_angle_alpha    105.19055965931003
_cell_angle_beta     92.04817287864874
_cell_angle_gamma    112.40214120608728

_space_group_name_H-M_alt    "P 1"
_space_group_IT_number       1

loop_
  _space_group_symop_operation_xyz
  'x, y, z'

loop_
  _atom_site_type_symbol
  _atom_site_label
  _atom_site_symmetry_multiplicity
  _atom_site_fract_x
  _atom_site_fract_y
  _atom_site_fract_z
  _atom_site_occupancy
  Li  Li1       1.0  0.003020788303665345  0.6765533290448075  0.3072233680806633  1.0000
  Li  Li2       1.0  0.9969777570031368  0.32344813207591017  0.6927769134720164  1.0000
  B   B1        1.0  0.6145119557871792  0.9425379800995443  0.20418662091607587  1.0000
  B   B2        1.0  0.3854860959914959  0.0574623565484842  0.7958108474069334  1.0000
  H   H1        1.0  0.47642597307641676  0.8082011680188896  0.8521628800593675  1.0000
  H   H2        1.0  0.5235711734888184  0.19179455261736678  0.1478360755881383  1.0000
  H   H3        1.0  0.48982564412325763  0.5756412814328442  0.7155512787330808  1.0000
  H   H4        1.0  0.510175424907743  0.42435556467352603  0.2844497355468718  1.0000
  H   H5        1.0  0.6377340276287526  0.43439169852499754  0.7896379081641172  1.0000
  H   H6        1.0  0.36226476349600745  0.565605159791808  0.21036219703113093  1.0000
  H   H7        1.0  0.7659268566419115  0.5289742767892349  0.0036654073009501215  1.0000
  H   H8        1.0  0.23407129630482612  0.47102372369330664  0.996335785647048  1.0000
  H   H9        1.0  0.7957696211722833  0.38724715099512236  0.4043734135271321  1.0000
  H   H10       1.0  0.20423071334393947  0.6127531811677115  0.5956241165908693  1.0000
  H   H11       1.0  0.6623494420868851  0.49069368829112386  0.5680045511363332  1.0000
  H   H12       1.0  0.33765151128210397  0.5093054708050531  0.43199528038775986  1.0000
  H   H13       1.0  0.39183851421930166  0.3193852662254955  0.6142109093327974  1.0000
  H   H14       1.0  0.6081629471717634  0.6806150405190436  0.3857891935518368  1.0000
  H   H15       1.0  0.2577048248636942  0.04467901967812079  0.4936669022363204  1.0000
  H   H16       1.0  0.7422971493807539  0.9553224424400214  0.5063326247191285  1.0000
  H   H17       1.0  0.9474858558074145  0.20661322774061827  0.9722680114158067  1.0000
  H   H18       1.0  0.0525149625743141  0.7933882134444373  0.02773402651128276  1.0000
  H   H19       1.0  0.7487723564794492  0.12703094646764157  0.021765728055541392  1.0000
  H   H20       1.0  0.2512306096525734  0.8729727723210983  0.9782385780695293  1.0000
  H   H21       1.0  0.7823648407779943  0.2595326319421715  0.9375196776502577  1.0000
  H   H22       1.0  0.21763546958165864  0.740467661594515  0.06248208891630475  1.0000
  H   H23       1.0  0.7886237025962615  0.7695504225886722  0.7100793596163797  1.0000
  H   H24       1.0  0.21137889533226678  0.23044987418804644  0.2899216214554556  1.0000
  H   H25       1.0  0.0062076179485757756  0.8225873258055357  0.756689175382995  1.0000
  H   H26       1.0  0.9937949799799455  0.17741297097118286  0.2433118056888404  1.0000
  H   H27       1.0  0.9402916360343666  0.9522309307406113  0.7087866646726368  1.0000
  H   H28       1.0  0.0597098156940703  0.047769360553473895  0.2912151327914216  1.0000
  C   C1        1.0  0.6116465548685923  0.7981192752539029  0.0035411362892361227  1.0000
  C   C2        1.0  0.3883532571316194  0.20187988608486757  0.9964586643373607  1.0000
  C   C3        1.0  0.540477480745011  0.7465430821193236  0.8835192943490212  1.0000
  C   C4        1.0  0.45952081685162227  0.25345265172479264  0.11647799761655621  1.0000
  C   C5        1.0  0.5494734352416443  0.616037457418372  0.8080264442960328  1.0000
  C   C6        1.0  0.45052586873650574  0.38396055627202935  0.19197308497004434  1.0000
  C   C7        1.0  0.6316121871464802  0.5366435923376187  0.8490995605894868  1.0000
  C   C8        1.0  0.3683876151911107  0.4633555535506986  0.15090193461654172  1.0000
  C   C9        1.0  0.7031849813076291  0.5886162984716847  0.9678525428123378  1.0000
  C   C10       1.0  0.29681482586126867  0.4113828551418592  0.03214810510397113  1.0000
  C   C11       1.0  0.693433125316325  0.7184391228036445  0.046159696604497924  1.0000
  C   C12       1.0  0.30656656135925436  0.2815623360744652  0.9538406158456709  1.0000
  C   C13       1.0  0.7691446034191927  0.7743029286760288  0.17199868141657498  1.0000
  C   C14       1.0  0.2308545800656249  0.22569739027894542  0.8280005123833547  1.0000
  C   C15       1.0  0.6021863914304645  0.15815235540614478  0.3572188366380686  1.0000
  C   C16       1.0  0.3978110318328163  0.8418491388580875  0.6427780248582735  1.0000
  C   C17       1.0  0.6781373677597243  0.3134340133810126  0.4247073423473963  1.0000
  C   C18       1.0  0.3218618253877282  0.6865663210244224  0.575290156873109  1.0000
  C   C19       1.0  0.6020938132234973  0.3700418201273763  0.5160042976622066  1.0000
  C   C20       1.0  0.3979060084393495  0.6299573566618618  0.483993808384973  1.0000
  C   C21       1.0  0.45050253222925823  0.27495058303278336  0.5421812715170589  1.0000
  C   C22       1.0  0.5494977926243365  0.7250497336795904  0.457817953180367  1.0000
  C   C23       1.0  0.37478639515314427  0.12185850329110073  0.4751113139515795  1.0000
  C   C24       1.0  0.6252127979943083  0.8781418311143339  0.5248861852689259  1.0000
  C   C25       1.0  0.4486389809574334  0.062175591823503885  0.3819172170273005  1.0000
  C   C26       1.0  0.5513584326432195  0.9378258869902677  0.6180813390484657  1.0000
  C   C27       1.0  0.3651325925479512  0.9015002385348935  0.3087558476187908  1.0000
  C   C28       1.0  0.63486545439941  0.09850009038790826  0.6912424679939377  1.0000
  C   C29       1.0  0.9007565564698224  0.35495644221065703  0.1148200595806017  1.0000
  C   C30       1.0  0.09924527312472971  0.6450472865459104  0.8851833683572677  1.0000
  C   C31       1.0  0.8416419109437214  0.22980107778283096  0.005566830050618393  1.0000
  C   C32       1.0  0.15836055199753932  0.7702015010827735  0.9944363574242131  1.0000
  C   C33       1.0  0.9367093352430517  0.7649373323128829  0.5745052506016037  1.0000
  C   C34       1.0  0.06329098961055021  0.2350629843994909  0.4254939740958222  1.0000
  C   C35       1.0  0.9161382505699439  0.8309828947708622  0.6946274815859043  1.0000
  C   C36       1.0  0.08386383933650877  0.16901625435747994  0.305373228125397  1.0000
  N   N1        1.0  0.9484175949831766  0.45600371341972573  0.20282209091951836  1.0000
  N   N2        1.0  0.05158474746475862  0.5440011707104446  0.7971807610891659  1.0000
  N   N3        1.0  0.9528419001369882  0.7110335156073119  0.4778052365857022  1.0000
  N   N4        1.0  0.04715956608538366  0.2889667988624681  0.5221940190092127  1.0000
  O   O1        1.0  0.6033123860052855  0.9252277937773741  0.07644340803332035  1.0000
  O   O2        1.0  0.396685143257372  0.07477137204659809  0.9235563307982986  1.0000
  O   O3        1.0  0.733470519062358  0.8829989061527569  0.24412251793144438  1.0000
  O   O4        1.0  0.2665296901292251  0.11700372354942348  0.7558755240101291  1.0000
  O   O5        1.0  0.8658179120368388  0.7267495579429947  0.21091860456176903  1.0000
  O   O6        1.0  0.1341784661944203  0.27324959467311766  0.789082797951778  1.0000
  O   O7        1.0  0.6766703593124035  0.10546031730684288  0.2678466345619768  1.0000
  O   O8        1.0  0.3233270639508774  0.8945411769573894  0.7321502269343654  1.0000
  O   O9        1.0  0.4460973736458414  0.8495796811922035  0.2264526279103337  1.0000
  O   O10       1.0  0.5539040925765306  0.15042063327756947  0.7735466276845884  1.0000
  O   O11       1.0  0.2237682649401621  0.8153342860025675  0.3187093719384536  1.0000
  O   O12       1.0  0.7762315518913637  0.18466488306143694  0.6812895813984382  1.0000
