data_image0
_chemical_formula_structural       Zn2H40C48N4O8
_chemical_formula_sum              "Zn2 H40 C48 N4 O8"
_cell_length_a       8.574825060262054
_cell_length_b       11.449971639761388
_cell_length_c       12.93546214033098
_cell_angle_alpha    114.16671540942227
_cell_angle_beta     99.39826864119712
_cell_angle_gamma    101.29610844774669

_space_group_name_H-M_alt    "P 1"
_space_group_IT_number       1

loop_
  _space_group_symop_operation_xyz
  'x, y, z'

loop_
  _atom_site_type_symbol
  _atom_site_label
  _atom_site_symmetry_multiplicity
  _atom_site_fract_x
  _atom_site_fract_y
  _atom_site_fract_z
  _atom_site_occupancy
  Zn  Zn1       1.0  0.6441804055356715  0.3096559646113377  0.394244670853297  1.0000
  Zn  Zn2       1.0  0.3558192024193617  0.6903433228027681  0.6057554984102822  1.0000
  H   H1        1.0  0.9843870733190488  0.5985611843500039  0.747851696445679  1.0000
  H   H2        1.0  0.015611720438613495  0.4014391049488993  0.25214797108140635  1.0000
  H   H3        1.0  0.030604607686314015  0.3496626326720574  0.7706121059506971  1.0000
  H   H4        1.0  0.9693933608446983  0.6503386585123322  0.22938860476667597  1.0000
  H   H5        1.0  0.15514038181752451  0.733892596675439  0.9149818418843695  1.0000
  H   H6        1.0  0.8448587683962927  0.2661086934683611  0.08501899997715161  1.0000
  H   H7        1.0  0.34438519089989217  0.875438701188848  0.11411153125817451  1.0000
  H   H8        1.0  0.6556147900552176  0.12456158706911682  0.8858874949496709  1.0000
  H   H9        1.0  0.4666734935503029  0.7713884178579208  0.23063689806031112  1.0000
  H   H10       1.0  0.5333276690876048  0.22861186935944744  0.7693622592916896  1.0000
  H   H11       1.0  0.20253791876949387  0.3810490356215369  0.9445341204827429  1.0000
  H   H12       1.0  0.7974596933053634  0.6189512547179703  0.05546541590019421  1.0000
  H   H13       1.0  0.5080114135830274  0.580200421436274  0.24944915833264508  1.0000
  H   H14       1.0  0.49198902511330544  0.419797864092004  0.7505491952772516  1.0000
  H   H15       1.0  0.2740012374473011  0.30689305469138617  0.06112234356539396  1.0000
  H   H16       1.0  0.725998737993166  0.6931072335669202  0.9388774551058391  1.0000
  H   H17       1.0  0.9886317001724052  0.3084657687457835  0.4045575460564238  1.0000
  H   H18       1.0  0.011367444526769138  0.6915355213983575  0.5954440682684989  1.0000
  H   H19       1.0  0.5375856481987497  0.0634774222472743  0.16566052615281282  1.0000
  H   H20       1.0  0.462415514439158  0.9365228649700941  0.8343386311991807  1.0000
  H   H21       1.0  0.6742925537222105  0.9236373723505337  0.022835763464087125  1.0000
  H   H22       1.0  0.3257101580839362  0.0763639146704378  0.9771631544397155  1.0000
  H   H23       1.0  0.14388063394321904  0.1854748698466437  0.269432455926335  1.0000
  H   H24       1.0  0.8561212360923637  0.8145274190608381  0.7305698225579395  1.0000
  H   H25       1.0  0.13822077296629223  0.998610420060224  0.09094712105450502  1.0000
  H   H26       1.0  0.8617814755839959  0.0013928696907826007  0.9090532419106339  1.0000
  H   H27       1.0  0.9507813172336128  0.8664368790170371  0.004521170987629855  1.0000
  H   H28       1.0  0.04922056383124133  0.13356540988976215  0.9954795625698551  1.0000
  H   H29       1.0  0.11445201595635278  0.9533268122324261  0.5687008764889756  1.0000
  H   H30       1.0  0.885547230027889  0.04667147433713841  0.43129889090356244  1.0000
  H   H31       1.0  0.06041135490548302  0.10618783965784225  0.6294584100291658  1.0000
  H   H32       1.0  0.9395894457616337  0.8938114467149777  0.37054034545178655  1.0000
  H   H33       1.0  0.18887902816693722  0.2972985697083956  0.5983639667355405  1.0000
  H   H34       1.0  0.8111186796783513  0.702698717056876  0.40163449517840644  1.0000
  H   H35       1.0  0.27525385069511543  0.9145592348569452  0.4170342584811166  1.0000
  H   H36       1.0  0.7247465824865742  0.08543905067167401  0.5829648675921817  1.0000
  H   H37       1.0  0.4951519853359231  0.029744347846502695  0.3548947388351351  1.0000
  H   H38       1.0  0.5048496295285717  0.9702539366415125  0.6451045183823113  1.0000
  H   H39       1.0  0.4096084740232868  0.39640632838085565  0.5300214685681297  1.0000
  H   H40       1.0  0.5903884141099811  0.6035919602695543  0.4699772640727105  1.0000
  C   C1        1.0  0.8637210530634436  0.39548467436932816  0.6064512181548452  1.0000
  C   C2        1.0  0.13628090171329185  0.604514610964607  0.39355153078722094  1.0000
  C   C3        1.0  0.9721825574747742  0.49389020187560834  0.7249890763083188  1.0000
  C   C4        1.0  0.027815411056231223  0.5061110893087886  0.27501163440906146  1.0000
  C   C5        1.0  0.05199362746473924  0.4571547902560696  0.7997008492778337  1.0000
  C   C6        1.0  0.9480043410662662  0.5428465009283273  0.2002998614395396  1.0000
  C   C7        1.0  0.16403682247775458  0.5462483407168364  0.9164072287160963  1.0000
  C   C8        1.0  0.8359611515678935  0.4537529504672123  0.08359270953788213  1.0000
  C   C9        1.0  0.2061377084533832  0.6871200338457089  0.9653323445563872  1.0000
  C   C10       1.0  0.7938614472750702  0.31288125629774294  0.03466772484173929  1.0000
  C   C11       1.0  0.31376627674079327  0.7668294012043689  0.07721479747961275  1.0000
  C   C12       1.0  0.6862348803824788  0.23317088601334038  0.9227851323357754  1.0000
  C   C13       1.0  0.3824595217320096  0.7088511532951787  0.1425652778543381  1.0000
  C   C14       1.0  0.6175404537084574  0.29114913496313494  0.8574345208168951  1.0000
  C   C15       1.0  0.23396658987289237  0.4898998954654772  0.9830778693400504  1.0000
  C   C16       1.0  0.7660345727650223  0.510100391751891  0.016921288011943106  1.0000
  C   C17       1.0  0.34287230884791603  0.5689323437922129  0.09642261918052247  1.0000
  C   C18       1.0  0.6571276721071941  0.4310679444657526  0.9035764070273233  1.0000
  C   C19       1.0  0.4134450552842636  0.5108042375282337  0.1672515540139869  1.0000
  C   C20       1.0  0.5865549256708462  0.4891960507297314  0.8327474721938586  1.0000
  C   C21       1.0  0.3695092821907267  0.38035015126274635  0.14105355136447886  1.0000
  C   C22       1.0  0.6304903312789492  0.6196491361510185  0.858945845435713  1.0000
  C   C23       1.0  0.4407556560571422  0.32383330912303887  0.21520901108729623  1.0000
  C   C24       1.0  0.5592427702150928  0.676165979331664  0.7847910270321422  1.0000
  C   C25       1.0  0.9238537730009  0.22154001093856127  0.32003110955225367  1.0000
  C   C26       1.0  0.07614619141028807  0.7784602773204342  0.6799702340457685  1.0000
  C   C27       1.0  0.6711245858679362  0.08184631328222032  0.18612132570086712  1.0000
  C   C28       1.0  0.32887575705796473  0.9181549758202933  0.8138781023780267  1.0000
  C   C29       1.0  0.7476614941853655  0.0068151587308947  0.10779773934171294  1.0000
  C   C30       1.0  0.2523415740769365  0.9931871291349667  0.8922023528965255  1.0000
  C   C31       1.0  0.009199268674450393  0.1525310395633923  0.2450856137831465  1.0000
  C   C32       1.0  0.9908022449049767  0.8474702484992066  0.7549154903666847  1.0000
  C   C33       1.0  0.9207568968975224  0.0436797669626614  0.13602210762169878  1.0000
  C   C34       1.0  0.07924616585014385  0.9563225209035411  0.8639787570799414  1.0000
  C   C35       1.0  0.0071296582350797435  0.9754759631891688  0.047678490546204  1.0000
  C   C36       1.0  0.9928737664833776  0.024527325521582106  0.9523227760264775  1.0000
  C   C37       1.0  0.0811421757725057  0.03211685823141861  0.5501896422747663  1.0000
  C   C38       1.0  0.9188570702117432  0.9678814283381385  0.44981012511777146  1.0000
  C   C39       1.0  0.21574311858179848  0.09760499603114431  0.5139320530793583  1.0000
  C   C40       1.0  0.7842561329170864  0.9023932905380723  0.48606694184978505  1.0000
  C   C41       1.0  0.2538414729872045  0.23412524858493108  0.5445493278779595  1.0000
  C   C42       1.0  0.7461577785116803  0.7658730379842852  0.45544966705118395  1.0000
  C   C43       1.0  0.30213835347100126  0.0215309198279883  0.44294798848355293  1.0000
  C   C44       1.0  0.6978605305424566  0.9784663658970276  0.5570513770379364  1.0000
  C   C45       1.0  0.4226907544840799  0.08456253869595541  0.4079183959027333  1.0000
  C   C46       1.0  0.5773081295293709  0.9154347470290606  0.5920809696187562  1.0000
  C   C47       1.0  0.3758186711514569  0.2898221008000236  0.5054521129033916  1.0000
  C   C48       1.0  0.6241805858620709  0.7101761857688517  0.4945461095623572  1.0000
  N   N1        1.0  0.7574392904329487  0.18807149251485814  0.29032082920306834  1.0000
  N   N2        1.0  0.24256068500751843  0.8119287957434481  0.7096789694681718  1.0000
  N   N3        1.0  0.459369169985905  0.21624240503938813  0.4384958843628723  1.0000
  N   N4        1.0  0.5406300815129796  0.783755881529828  0.561503110566271  1.0000
  O   O1        1.0  0.8375528827098507  0.2716247056329877  0.5702778799037276  1.0000
  O   O2        1.0  0.16244508582115466  0.7283765855514022  0.4297228308136455  1.0000
  O   O3        1.0  0.8013104384312444  0.44928151570081115  0.5440441692009728  1.0000
  O   O4        1.0  0.1986883553264178  0.5507187735980993  0.4559554983261123  1.0000
  O   O5        1.0  0.5580782275569973  0.4050952265749358  0.3107107688400533  1.0000
  O   O6        1.0  0.44192020422987355  0.5949040618794257  0.6892884968159835  1.0000
  O   O7        1.0  0.3843906298973891  0.19995784513496065  0.18217077322508862  1.0000
  O   O8        1.0  0.6156066146920339  0.8000414443603391  0.8178291337501947  1.0000
