data_image0
_chemical_formula_structural       Cd2H28C26I4N4
_chemical_formula_sum              "Cd2 H28 C26 I4 N4"
_cell_length_a       4.999935392642068
_cell_length_b       11.715771138786378
_cell_length_c       13.452325176133352
_cell_angle_alpha    90.00037289194185
_cell_angle_beta     89.99964505232042
_cell_angle_gamma    90.62716943513293

_space_group_name_H-M_alt    "P 1"
_space_group_IT_number       1

loop_
  _space_group_symop_operation_xyz
  'x, y, z'

loop_
  _atom_site_type_symbol
  _atom_site_label
  _atom_site_symmetry_multiplicity
  _atom_site_fract_x
  _atom_site_fract_y
  _atom_site_fract_z
  _atom_site_occupancy
  Cd  Cd1       1.0  0.5319031713533491  0.22222201199390676  0.7500012108009029  1.0000
  Cd  Cd2       1.0  0.46808414127917813  0.7777723972502676  0.24999784779938483  1.0000
  H   H1        1.0  0.9499235027330855  0.08238483993235232  0.6193872217400765  1.0000
  H   H2        1.0  0.05009393095456721  0.9176077857914395  0.1193841342465731  1.0000
  H   H3        1.0  0.05008974771970289  0.9176061886789312  0.3806140669182838  1.0000
  H   H4        1.0  0.949919461824976  0.08239092518353171  0.880613437603813  1.0000
  H   H5        1.0  0.24911686690495569  0.10746010605138423  0.4721622563748369  1.0000
  H   H6        1.0  0.7508847979882988  0.892535116513152  0.972166679893803  1.0000
  H   H7        1.0  0.7508785093335036  0.8925377279532685  0.5278330853962245  1.0000
  H   H8        1.0  0.24912259450523785  0.10746358669013031  0.027835352159009098  1.0000
  H   H9        1.0  0.8858785023113782  0.4357202660765864  0.42479591516345744  1.0000
  H   H10       1.0  0.11412200040821573  0.5642780177948978  0.9247798848860781  1.0000
  H   H11       1.0  0.11412496899033901  0.5642826999577722  0.5752157806628659  1.0000
  H   H12       1.0  0.8858754866248403  0.4357257939717769  0.0752109967039871  1.0000
  H   H13       1.0  0.6109373485704238  0.39981333705012645  0.5773102868389657  1.0000
  H   H14       1.0  0.38906678844466563  0.6001798127780803  0.0772964370146099  1.0000
  H   H15       1.0  0.3890679647195441  0.6001810955998651  0.42269992222920644  1.0000
  H   H16       1.0  0.6109286036227317  0.39981887481581424  0.9226966746611109  1.0000
  H   H17       1.0  0.43834219450881323  0.240434762162586  0.34653729101336234  1.0000
  H   H18       1.0  0.561651745484248  0.759571468408353  0.8465369398241336  1.0000
  H   H19       1.0  0.5616473553614298  0.759572453642804  0.6534625109865289  1.0000
  H   H20       1.0  0.4383457731094538  0.2404340505808022  0.1534613754298775  1.0000
  H   H21       1.0  0.3287161856788003  0.3841483417888938  0.3422486040688497  1.0000
  H   H22       1.0  0.6712697925246971  0.6158561394578329  0.8422434672956881  1.0000
  H   H23       1.0  0.671271316657908  0.6158563106361967  0.6577534280238878  1.0000
  H   H24       1.0  0.3287237575240595  0.3841510815341777  0.15775484796774458  1.0000
  H   H25       1.0  0.9148974299329211  0.31926365930480227  0.24999974713654174  1.0000
  H   H26       1.0  0.08509608849441722  0.6807418544922258  0.7499985681220949  1.0000
  H   H27       1.0  0.037169233456396  0.17776816548338567  0.2499981342974991  1.0000
  H   H28       1.0  0.962824316598443  0.8222390555058752  0.7499994376000244  1.0000
  C   C1        1.0  0.942567039667253  0.15965968994404994  0.5742131026367758  1.0000
  C   C2        1.0  0.05743516364612589  0.8403342880055648  0.0742080734509258  1.0000
  C   C3        1.0  0.05743225762324759  0.8403338812927644  0.4257896727768014  1.0000
  C   C4        1.0  0.942568260351095  0.15966611717857404  0.9257880116840055  1.0000
  C   C5        1.0  0.1082097839165641  0.17416699095313254  0.49195175284019393  1.0000
  C   C6        1.0  0.8917955259927693  0.8258266759845937  0.991949524486145  1.0000
  C   C7        1.0  0.8917935609724168  0.8258291462682905  0.5080510225759554  1.0000
  C   C8        1.0  0.1082158825082189  0.17417288599455824  0.0080487907348683  1.0000
  C   C9        1.0  0.0937094312280706  0.2746651857287432  0.4358264411818595  1.0000
  C   C10       1.0  0.9062888593281501  0.7253314699977055  0.9358221229502914  1.0000
  C   C11       1.0  0.9062859449496088  0.7253326483034143  0.5641763342483443  1.0000
  C   C12       1.0  0.09371259619514659  0.2746706397908554  0.06417544892357799  1.0000
  C   C13       1.0  0.9082399908325057  0.3564333657449268  0.4663795537948089  1.0000
  C   C14       1.0  0.0917618636183022  0.6435669355619211  0.9663669981818328  1.0000
  C   C15       1.0  0.0917574486225732  0.6435678852952621  0.5336291685699948  1.0000
  C   C16       1.0  0.908241671072105  0.35643944479641476  0.0336268568721536  1.0000
  C   C17       1.0  0.7530358209099433  0.336848345532708  0.550161477045492  1.0000
  C   C18       1.0  0.24697679196489727  0.6631463210359385  0.0501490570774408  1.0000
  C   C19       1.0  0.24697550844634716  0.66314694850022  0.4498479886522375  1.0000
  C   C20       1.0  0.7530286321337344  0.336854086736011  0.949844797957432  1.0000
  C   C21       1.0  0.26011222251548827  0.2944857903326508  0.3446026694429065  1.0000
  C   C22       1.0  0.7398757014474525  0.70551785733732  0.8446001117140866  1.0000
  C   C23       1.0  0.7398752640165895  0.7055180084921986  0.65539861928152  1.0000
  C   C24       1.0  0.2601178169798857  0.29448765645970815  0.1553982035445429  1.0000
  C   C25       1.0  0.0989283074918887  0.2682540787136318  0.2500005491440618  1.0000
  C   C26       1.0  0.9010651634911682  0.7317488742964144  0.7499992528392027  1.0000
  I   I1        1.0  0.4140579553569026  0.9923744675859969  0.7500005562579801  1.0000
  I   I2        1.0  0.5859273571802887  0.0076199390676095005  0.24999998907644988  1.0000
  I   I3        1.0  0.24259711844784698  0.4216065569574639  0.7500006246242918  1.0000
  I   I4        1.0  0.7574082423593326  0.5783904364465189  0.2499991773282915  1.0000
  N   N1        1.0  0.7690636739727594  0.2399917752797265  0.6034984317069458  1.0000
  N   N2        1.0  0.2309460350236208  0.7600015761005707  0.10349180136910259  1.0000
  N   N3        1.0  0.23094360782152276  0.7600009527520939  0.39650657379272036  1.0000
  N   N4        1.0  0.7690593732278329  0.2399979780903863  0.8965065138588527  1.0000
