data_image0
_chemical_formula_structural       K4Na4H40C16O36
_chemical_formula_sum              "K4 Na4 H40 C16 O36"
_cell_length_a       9.208340361933642
_cell_length_b       9.454419759450731
_cell_length_c       11.838216235004584
_cell_angle_alpha    90.00009129551871
_cell_angle_beta     90.00000657709523
_cell_angle_gamma    111.23035935556841

_space_group_name_H-M_alt    "P 1"
_space_group_IT_number       1

loop_
  _space_group_symop_operation_xyz
  'x, y, z'

loop_
  _atom_site_type_symbol
  _atom_site_label
  _atom_site_symmetry_multiplicity
  _atom_site_fract_x
  _atom_site_fract_y
  _atom_site_fract_z
  _atom_site_occupancy
  K   K1        1.0  0.670325011520589  0.8879030962395192  0.8230063411336844  1.0000
  K   K2        1.0  0.8296792554615064  0.6120937640947872  0.3230026346838244  1.0000
  K   K3        1.0  0.32967397801209586  0.11209510326801822  0.17699212206265  1.0000
  K   K4        1.0  0.17032015968236178  0.3879055701243459  0.6769966732351094  1.0000
  Na  Na1       1.0  0.0245427771802866  0.19295335848597972  0.9852955237478583  1.0000
  Na  Na2       1.0  0.47545648246338595  0.30704347988736913  0.4852937673570993  1.0000
  Na  Na3       1.0  0.9754581480912137  0.8070471065470032  0.0147046288937176  1.0000
  Na  Na4       1.0  0.5245444428076735  0.6929569851446117  0.5147055405626162  1.0000
  H   H1        1.0  0.6708699271148362  0.6399953334111714  0.055978464111092294  1.0000
  H   H2        1.0  0.829129493690935  0.8600031859790318  0.5559779251944263  1.0000
  H   H3        1.0  0.3291294880294728  0.36000400080896366  0.9440216885297019  1.0000
  H   H4        1.0  0.17087119828605074  0.139999552373915  0.4440230721704381  1.0000
  H   H5        1.0  0.9613350011506014  0.04033074269418789  0.6505085430967412  1.0000
  H   H6        1.0  0.5386655913941069  0.45966863051486945  0.1505094772499405  1.0000
  H   H7        1.0  0.03866592412089885  0.9596697223387948  0.3494916095448346  1.0000
  H   H8        1.0  0.46133382375020193  0.5403307037052656  0.8494906753908538  1.0000
  H   H9        1.0  0.4340853359828569  0.9133810573520547  0.6287684691891471  1.0000
  H   H10       1.0  0.0659141847267719  0.586618848057114  0.128768086401486  1.0000
  H   H11       1.0  0.5659145047717614  0.08661941157768639  0.37123083873052554  1.0000
  H   H12       1.0  0.9340856560278465  0.41338162087262725  0.8712312215181868  1.0000
  H   H13       1.0  0.6242949387419187  0.7543811750310353  0.20149961385877901  1.0000
  H   H14       1.0  0.8757020371862225  0.7456165606951047  0.7014989334541539  1.0000
  H   H15       1.0  0.3757049020126999  0.2456192938987058  0.7984996940608937  1.0000
  H   H16       1.0  0.12429780356882963  0.25438390823563145  0.2985012191873793  1.0000
  H   H17       1.0  0.8625203934960481  0.1044868153217564  0.5708377929790487  1.0000
  H   H18       1.0  0.6374779480213704  0.3955123777585996  0.0708394987850909  1.0000
  H   H19       1.0  0.13747836274212943  0.8955136575057453  0.4291615149405814  1.0000
  H   H20       1.0  0.36252080821766697  0.6044880950708985  0.9291614985782529  1.0000
  H   H21       1.0  0.7028952374590246  0.12732676455917158  0.024985294471846897  1.0000
  H   H22       1.0  0.7971041413836487  0.37267231646521265  0.5249847689017031  1.0000
  H   H23       1.0  0.29710417768484376  0.8726725696599616  0.9750140134470869  1.0000
  H   H24       1.0  0.20289678388785154  0.6273281485677701  0.4750153837398727  1.0000
  H   H25       1.0  0.3196563102312524  0.7555277315913927  0.6693673857181253  1.0000
  H   H26       1.0  0.18034476238888425  0.7444734003944545  0.16936721364265853  1.0000
  H   H27       1.0  0.6803446150402477  0.2444727334415902  0.3306327669234506  1.0000
  H   H28       1.0  0.8196550783661676  0.2555270685362814  0.8306329389988747  1.0000
  H   H29       1.0  0.673644500059801  0.03570227963598431  0.1939591715646785  1.0000
  H   H30       1.0  0.8263487788825827  0.4642949500279485  0.6939596098053186  1.0000
  H   H31       1.0  0.3263564252112585  0.9642981853960035  0.806040136355037  1.0000
  H   H32       1.0  0.17365106187246937  0.5357055189027875  0.3060405428362145  1.0000
  H   H33       1.0  0.17784242734510508  0.4123991065464665  0.1441664151542312  1.0000
  H   H34       1.0  0.32215884256724076  0.08760032741521678  0.6441646843744948  1.0000
  H   H35       1.0  0.8221569877992037  0.5876002276736684  0.855833737486556  1.0000
  H   H36       1.0  0.6778409981878111  0.912400141515526  0.3558354682670384  1.0000
  H   H37       1.0  0.0017893003559378952  0.3629509619775888  0.18209523218231993  1.0000
  H   H38       1.0  0.49821134968684067  0.1370497000599684  0.6820952689810724  1.0000
  H   H39       1.0  0.9982094558826659  0.6370495108509076  0.8179049204591636  1.0000
  H   H40       1.0  0.5017884910682112  0.8629507688707675  0.3179048836604538  1.0000
  C   C1        1.0  0.8826016308523704  0.9862548064449471  0.1966924604322102  1.0000
  C   C2        1.0  0.6174000628260358  0.5137497184109491  0.6966923074322651  1.0000
  C   C3        1.0  0.1173977842923648  0.013744527776182697  0.8033085369304374  1.0000
  C   C4        1.0  0.3825997779290161  0.4862507505197868  0.3033078452092681  1.0000
  C   C5        1.0  0.7332803873343678  0.9824611856332198  0.1368675602141778  1.0000
  C   C6        1.0  0.7667158631705107  0.5175375362486676  0.6368665802307163  1.0000
  C   C7        1.0  0.2667205379366919  0.0175392793987683  0.8631317477055448  1.0000
  C   C8        1.0  0.2332839775845414  0.48246293268207563  0.36313357241081695  1.0000
  C   C9        1.0  0.4625864028833746  0.804898855651807  0.0967676442964205  1.0000
  C   C10       1.0  0.0374109158588496  0.6951009820697748  0.5967668703649736  1.0000
  C   C11       1.0  0.5374153736091855  0.19510387880139043  0.9032316636247728  1.0000
  C   C12       1.0  0.9625889248962025  0.3048994868609683  0.4032332822765595  1.0000
  C   C13       1.0  0.6289622555963702  0.8132681360010922  0.1205584031923834  1.0000
  C   C14       1.0  0.8710368060618732  0.6867294010066018  0.6205568027490287  1.0000
  C   C15       1.0  0.3710397541920116  0.18673232513512522  0.8794425941710955  1.0000
  C   C16       1.0  0.12896303469317866  0.3132710679241412  0.37944334989250456  1.0000
  O   O1        1.0  0.4106649660789755  0.7822060537816923  0.9959453237062803  1.0000
  O   O2        1.0  0.08933559142317188  0.7177935791037626  0.4959434203750632  1.0000
  O   O3        1.0  0.5893370437098396  0.21779440735551958  0.004056518379052  1.0000
  O   O4        1.0  0.9106638237211298  0.28220575511637236  0.504056732265731  1.0000
  O   O5        1.0  0.0714208744168374  0.39836266374174306  0.1156316972983831  1.0000
  O   O6        1.0  0.42857928161198794  0.1016367068108366  0.6156299935804483  1.0000
  O   O7        1.0  0.9285796252439125  0.6016366665806316  0.8843684553424538  1.0000
  O   O8        1.0  0.5714205591426307  0.8983637621189047  0.3843693143392244  1.0000
  O   O9        1.0  0.7652692816552004  0.05898840549841821  0.0318165193576192  1.0000
  O   O10       1.0  0.7347275095743767  0.44100956472427544  0.5318160753280523  1.0000
  O   O11       1.0  0.23473098471016832  0.941013198141931  0.9681827885627926  1.0000
  O   O12       1.0  0.2652734156971235  0.5589909003087072  0.4681840773135235  1.0000
  O   O13       1.0  0.010572319656723993  0.03328810038380679  0.1445522046651817  1.0000
  O   O14       1.0  0.48941531852772596  0.4667068385183838  0.6445484364717018  1.0000
  O   O15       1.0  0.9894286056143355  0.966712364648174  0.8554471032545337  1.0000
  O   O16       1.0  0.5105845222268925  0.5332936304113575  0.355450871447978  1.0000
  O   O17       1.0  0.43239415696759653  0.8142740691883005  0.6581790869669463  1.0000
  O   O18       1.0  0.06760539401020081  0.6857259055929603  0.1581779856828263  1.0000
  O   O19       1.0  0.5676052581767052  0.18572526503183437  0.3418210656738481  1.0000
  O   O20       1.0  0.932394021134101  0.3142734286271747  0.841822166957968  1.0000
  O   O21       1.0  0.3896535465946797  0.8300947327616796  0.18131671254406  1.0000
  O   O22       1.0  0.11034668710370707  0.6699041579929315  0.6813201364771189  1.0000
  O   O23       1.0  0.6103491220980927  0.1699045897631848  0.8186817506531484  1.0000
  O   O24       1.0  0.8896531536513449  0.3300963109378047  0.3186800161644143  1.0000
  O   O25       1.0  0.8629831745647464  0.9340981516691186  0.2979365645627183  1.0000
  O   O26       1.0  0.6370125827993292  0.5659020887402519  0.7979305665549177  1.0000
  O   O27       1.0  0.13701558167386443  0.06590232115937768  0.7020635880787722  1.0000
  O   O28       1.0  0.3629872579552896  0.4340983801894964  0.2020687413647551  1.0000
  O   O29       1.0  0.8536241166648537  0.015902331512329202  0.618647303902712  1.0000
  O   O30       1.0  0.6463768686995408  0.4840981012529895  0.11864743372832011  1.0000
  O   O31       1.0  0.1463757240902056  0.9840981374184072  0.381352848738814  1.0000
  O   O32       1.0  0.3536236309612163  0.5159012290693924  0.8813527189125169  1.0000
  O   O33       1.0  0.696328605802293  0.7508508536934856  0.0353926640728517  1.0000
  O   O34       1.0  0.8036697092997827  0.7491476210351138  0.5353902924852676  1.0000
  O   O35       1.0  0.30367080934200885  0.2491484805266495  0.9646074885679354  1.0000
  O   O36       1.0  0.1963305570660197  0.25085398260623754  0.4646098601570046  1.0000
