data_image0
_chemical_formula_structural       Zn4H36C48N8O16
_chemical_formula_sum              "Zn4 H36 C48 N8 O16"
_cell_length_a       10.403877872363253
_cell_length_b       10.403877754675543
_cell_length_c       11.18121975711601
_cell_angle_alpha    96.17955185061875
_cell_angle_beta     96.17962215317435
_cell_angle_gamma    100.60674747540071

_space_group_name_H-M_alt    "P 1"
_space_group_IT_number       1

loop_
  _space_group_symop_operation_xyz
  'x, y, z'

loop_
  _atom_site_type_symbol
  _atom_site_label
  _atom_site_symmetry_multiplicity
  _atom_site_fract_x
  _atom_site_fract_y
  _atom_site_fract_z
  _atom_site_occupancy
  Zn  Zn1       1.0  0.5726732502116577  0.8464986733504957  0.8159408976365866  1.0000
  Zn  Zn2       1.0  0.15350160668497637  0.427327502009369  0.6840595037116088  1.0000
  Zn  Zn3       1.0  0.4273256658628881  0.15350178805954323  0.18405843678421968  1.0000
  Zn  Zn4       1.0  0.8464982752780373  0.5726729525251527  0.31594082068293255  1.0000
  H   H1        1.0  0.5504656543853484  0.09659513012016416  0.6775179419398185  1.0000
  H   H2        1.0  0.9034039213859233  0.44953261989494553  0.8224807168925493  1.0000
  H   H3        1.0  0.44953245026067623  0.9034013849515854  0.3224791294045274  1.0000
  H   H4        1.0  0.09659458777889539  0.550465867151473  0.17751569703757744  1.0000
  H   H5        1.0  0.6773772279407951  0.21843558800268428  0.5306930150132344  1.0000
  H   H6        1.0  0.7815640493715605  0.3226207710951669  0.9693056776866836  1.0000
  H   H7        1.0  0.32262107986122857  0.7815619139522523  0.46930506933833266  1.0000
  H   H8        1.0  0.21843466294925656  0.6773787028344385  0.03069174925067128  1.0000
  H   H9        1.0  0.890653060189209  0.15623398077309494  0.48553141626549495  1.0000
  H   H10       1.0  0.8437658542367787  0.10934440553451444  0.014468861015167506  1.0000
  H   H11       1.0  0.10934778826000979  0.843766467483135  0.5144707925790114  1.0000
  H   H12       1.0  0.1562328592794984  0.89065506958957  0.9855303548746335  1.0000
  H   H13       1.0  0.9590859985009673  0.9630248375157177  0.5784700479410886  1.0000
  H   H14       1.0  0.0369754691432149  0.04091466518877948  0.9215287127109305  1.0000
  H   H15       1.0  0.04091601779725101  0.03697658955370999  0.4215323749319353  1.0000
  H   H16       1.0  0.9630246147803305  0.9590867750344498  0.07847083573839338  1.0000
  H   H17       1.0  0.9132198809823607  0.7840110800868059  0.7098586503825429  1.0000
  H   H18       1.0  0.215990470910242  0.08678106824539354  0.790142127586293  1.0000
  H   H19       1.0  0.08678193395305561  0.21598936189113968  0.2901454429119211  1.0000
  H   H20       1.0  0.7840105789017713  0.9132203651023117  0.20985841083677303  1.0000
  H   H21       1.0  0.7743458165185402  0.6686388548876322  0.9545096912780834  1.0000
  H   H22       1.0  0.3313611759444015  0.22565452591923216  0.5454899668428439  1.0000
  H   H23       1.0  0.22565289819320364  0.33136062143093153  0.04549131356415609  1.0000
  H   H24       1.0  0.6686389085768737  0.7743469149012296  0.45451047608269585  1.0000
  H   H25       1.0  0.87900732136778  0.6390978951236119  0.8416601437999488  1.0000
  H   H26       1.0  0.3609031997090568  0.12099284032457544  0.6583396790563752  1.0000
  H   H27       1.0  0.12099200161648578  0.360904540650047  0.15834211111152996  1.0000
  H   H28       1.0  0.6390968842144887  0.8790085998986541  0.3416598693929416  1.0000
  H   H29       1.0  0.704202500477571  0.5562815489401911  0.6141637568460679  1.0000
  H   H30       1.0  0.4437190699893493  0.2957990291243177  0.8858352080338535  1.0000
  H   H31       1.0  0.29579951462518045  0.4437198769347501  0.3858368770745031  1.0000
  H   H32       1.0  0.5562810145319333  0.7042024116961509  0.11416523489168634  1.0000
  H   H33       1.0  0.6232402384654988  0.48056661935327544  0.9738335962646045  1.0000
  H   H34       1.0  0.5194340846013928  0.37676155877699796  0.5261654007791845  1.0000
  H   H35       1.0  0.3767606087882527  0.519433827708475  0.026166823627455853  1.0000
  H   H36       1.0  0.4805669646128905  0.6232398739734674  0.4738342431676513  1.0000
  C   C1        1.0  0.6406973123429652  0.07009538107572406  0.650906229982496  1.0000
  C   C2        1.0  0.9299052868892728  0.35929983370806434  0.8490925442190118  1.0000
  C   C3        1.0  0.359300232726575  0.9299031146379302  0.3490918774025572  1.0000
  C   C4        1.0  0.07009418756628344  0.6406986458655903  0.15090396520863433  1.0000
  C   C5        1.0  0.7127489991625566  0.13828412430449785  0.5706287397022151  1.0000
  C   C6        1.0  0.8617145836192536  0.2872483271064822  0.9293698592520909  1.0000
  C   C7        1.0  0.28725123981867284  0.8617133633021578  0.4293704301206134  1.0000
  C   C8        1.0  0.138282960852564  0.7127501680099326  0.07062735365674647  1.0000
  C   C9        1.0  0.8297700520041077  0.10137826619676815  0.544012037449491  1.0000
  C   C10       1.0  0.898621641569818  0.17022846555872206  0.9559859934918077  1.0000
  C   C11       1.0  0.17022962740063724  0.8986212020517924  0.45598816841404494  1.0000
  C   C12       1.0  0.10137823919772869  0.8297719877813134  0.044012541950287656  1.0000
  C   C13       1.0  0.869049291452946  0.9965473336920279  0.596438359157112  1.0000
  C   C14       1.0  0.0034521001568279938  0.13094929512702433  0.9035600367883916  1.0000
  C   C15       1.0  0.13095135384026693  0.0034521276810081988  0.403562836680166  1.0000
  C   C16       1.0  0.9965466133594488  0.8690501799970599  0.09643917910140226  1.0000
  C   C17       1.0  0.7906131415824194  0.9326454762647668  0.674395134767792  1.0000
  C   C18       1.0  0.0673550950699848  0.20938435625565424  0.8256068351629294  1.0000
  C   C19       1.0  0.20938653842005553  0.06735399258103308  0.3256059655719667  1.0000
  C   C20       1.0  0.932645549625498  0.7906151045201494  0.17439346619812568  1.0000
  C   C21       1.0  0.8251720875217288  0.8211254995838498  0.7323078256849697  1.0000
  C   C22       1.0  0.1788768692051548  0.1748325411520212  0.7676897517353396  1.0000
  C   C23       1.0  0.17482992758102256  0.17887592629109142  0.2676928082356085  1.0000
  C   C24       1.0  0.8211243819696536  0.8251698772871586  0.232309116266279  1.0000
  C   C25       1.0  0.778688205705258  0.6522216633565133  0.856399531500891  1.0000
  C   C26       1.0  0.34777829220508494  0.22131030076359787  0.6436008422817635  1.0000
  C   C27       1.0  0.22131188060921403  0.3477797792556742  0.1436035948533174  1.0000
  C   C28       1.0  0.6522225544509369  0.7786901457009205  0.35639868313406703  1.0000
  C   C29       1.0  0.6745572366135163  0.5329930321327223  0.8009269273284899  1.0000
  C   C30       1.0  0.4670085020009651  0.3254432096200117  0.6990720171538384  1.0000
  C   C31       1.0  0.3254440151590359  0.46700938690369725  0.19907283514934448  1.0000
  C   C32       1.0  0.5329915825203103  0.674558231200457  0.3009284257717084  1.0000
  C   C33       1.0  0.6469461732695194  0.5009791544057121  0.6747948665610862  1.0000
  C   C34       1.0  0.499021367675283  0.35305471974901775  0.8252031297203075  1.0000
  C   C35       1.0  0.35305391065402597  0.4990222858175171  0.3252046818882377  1.0000
  C   C36       1.0  0.5009756178177867  0.6469457566065414  0.17479601370546047  1.0000
  C   C37       1.0  0.601033052009143  0.4574914866518538  0.8755508437825625  1.0000
  C   C38       1.0  0.5425090842325915  0.3989685640019329  0.6244472280632465  1.0000
  C   C39       1.0  0.3989668299538708  0.5425089678826607  0.12444948061197891  1.0000
  C   C40       1.0  0.45749120284695277  0.60103386310449  0.37555333339329877  1.0000
  C   C41       1.0  0.5596129205217011  0.9884877668203056  0.0442501906524839  1.0000
  C   C42       1.0  0.011512383704314292  0.44038687708426477  0.45574968597315996  1.0000
  C   C43       1.0  0.440386555727045  0.0115107145450608  0.9557490022038309  1.0000
  C   C44       1.0  0.9884884629517005  0.5596135693802464  0.5442498394426777  1.0000
  C   C45       1.0  0.3601718959896801  0.6280623858880856  0.8180078306924585  1.0000
  C   C46       1.0  0.3719412026076867  0.6398321861729028  0.6819959189856701  1.0000
  C   C47       1.0  0.6398293575760617  0.37194003494005284  0.18199461521405166  1.0000
  C   C48       1.0  0.6280584773947879  0.3601672826729042  0.31800518135408845  1.0000
  N   N1        1.0  0.678578339076779  0.9702406742061168  0.7014176211794164  1.0000
  N   N2        1.0  0.029759213084702196  0.32142099268074265  0.7985816948393633  1.0000
  N   N3        1.0  0.32142073205544364  0.02975583458734828  0.2985813346148872  1.0000
  N   N4        1.0  0.970241429817591  0.6785784663033353  0.20141592309302325  1.0000
  N   N5        1.0  0.7496717190482868  0.7675832029592652  0.8041643366225271  1.0000
  N   N6        1.0  0.23241475450111443  0.25032605827671256  0.6958392601884568  1.0000
  N   N7        1.0  0.2503267954961146  0.23241528946230255  0.19584012759361258  1.0000
  N   N8        1.0  0.7675847235408356  0.7496724248803727  0.3041626160965265  1.0000
  O   O1        1.0  0.6462470910682824  0.9356593155015599  0.9972634172824683  1.0000
  O   O2        1.0  0.0643403205350452  0.3537523846319956  0.5027367836795378  1.0000
  O   O3        1.0  0.35375162304572433  0.06434016021976419  0.002736693083555484  1.0000
  O   O4        1.0  0.9356595614279614  0.646248069902519  0.49726354071500367  1.0000
  O   O5        1.0  0.5623586132238643  0.02432370901239979  0.15652367303491127  1.0000
  O   O6        1.0  0.97567749570608  0.43764103300217266  0.3434768460145889  1.0000
  O   O7        1.0  0.43764030344840427  0.9756767529948784  0.8434765558621179  1.0000
  O   O8        1.0  0.024323352145401576  0.5623594146568249  0.6565244683536944  1.0000
  O   O9        1.0  0.4451466432216122  0.7047475928961614  0.8957648907495112  1.0000
  O   O10       1.0  0.2952536961953953  0.5548549868176732  0.6042374955664015  1.0000
  O   O11       1.0  0.5548536450533916  0.2952548354047406  0.10423745965947968  1.0000
  O   O12       1.0  0.7047452210746101  0.4451454757868445  0.3957636278068434  1.0000
  O   O13       1.0  0.2657219237231843  0.5426017019848001  0.8417320482851662  1.0000
  O   O14       1.0  0.45739835283565367  0.7342778692669681  0.6582691275826207  1.0000
  O   O15       1.0  0.7342769935468283  0.4573987606197176  0.15826907508807858  1.0000
  O   O16       1.0  0.5426013265690983  0.2657215989815923  0.34173107828092236  1.0000
