data_image0
_chemical_formula_structural       FeH24C34S2N6
_chemical_formula_sum              "Fe1 H24 C34 S2 N6"
_cell_length_a       7.753096700812847
_cell_length_b       8.946296702177035
_cell_length_c       11.260400484609864
_cell_angle_alpha    98.21544750802303
_cell_angle_beta     105.63420462041768
_cell_angle_gamma    105.05489972462273

_space_group_name_H-M_alt    "P 1"
_space_group_IT_number       1

loop_
  _space_group_symop_operation_xyz
  'x, y, z'

loop_
  _atom_site_type_symbol
  _atom_site_label
  _atom_site_symmetry_multiplicity
  _atom_site_fract_x
  _atom_site_fract_y
  _atom_site_fract_z
  _atom_site_occupancy
  Fe  Fe1       1.0  0.0014437766825067823  0.49992922096507175  0.9995752862110477  1.0000
  H   H1        1.0  0.8320351106166017  0.20057111428585722  0.4747400150556799  1.0000
  H   H2        1.0  0.16796524596275478  0.7995226745145486  0.5252408493226426  1.0000
  H   H3        1.0  0.548856974969368  0.2634813400212437  0.3873093465206237  1.0000
  H   H4        1.0  0.4510930203958452  0.7365598332093412  0.612901451220935  1.0000
  H   H5        1.0  0.48105279525779565  0.25778879944798655  0.5870933765906583  1.0000
  H   H6        1.0  0.518864632577177  0.7421964516736564  0.41310230213802157  1.0000
  H   H7        1.0  0.6334442197673836  0.27060936555976395  0.019272442130016977  1.0000
  H   H8        1.0  0.3657864277975306  0.7295907042380846  0.9805355887724189  1.0000
  H   H9        1.0  0.7868956890908976  0.03177784075987938  0.6256785424153575  1.0000
  H   H10       1.0  0.21308707895344273  0.9682932971669231  0.3743000539105949  1.0000
  H   H11       1.0  0.050123423244990244  0.411104220944864  0.4397778029003303  1.0000
  H   H12       1.0  0.9495913507217467  0.5889819108626496  0.5598169060960102  1.0000
  H   H13       1.0  0.7199807125261158  0.7662242253464342  0.31157729077709456  1.0000
  H   H14       1.0  0.28015301092154493  0.233785092789759  0.6889800726767986  1.0000
  H   H15       1.0  0.07102286157655159  0.0175483568924761  0.1794893253650116  1.0000
  H   H16       1.0  0.9287490119759239  0.982155564985248  0.8205279116152578  1.0000
  H   H17       1.0  0.0728774124634128  0.1863276063799759  0.02355131513486699  1.0000
  H   H18       1.0  0.9277745005785646  0.8132596189842046  0.9764766818538033  1.0000
  H   H19       1.0  0.06967167232942728  0.5686370283367025  0.277025194594458  1.0000
  H   H20       1.0  0.9306744549905018  0.43130535498874406  0.7225136008687513  1.0000
  H   H21       1.0  0.8648845990689935  0.7603530294504922  0.14243384470720596  1.0000
  H   H22       1.0  0.13444333310683731  0.23969913541998977  0.8575716764379917  1.0000
  H   H23       1.0  0.48333724803485006  0.2533343933918529  0.18608587383059214  1.0000
  H   H24       1.0  0.5165775868023204  0.7466096469648562  0.8142553917110644  1.0000
  C   C1        1.0  0.908422037837589  0.11431548622637418  0.48713021780490345  1.0000
  C   C2        1.0  0.09158981372949167  0.8857878584406789  0.5128520450124936  1.0000
  C   C3        1.0  0.5274130458959618  0.36796287896982693  0.43630585147507617  1.0000
  C   C4        1.0  0.47250909312413814  0.6320554631392951  0.5639257129013018  1.0000
  C   C5        1.0  0.024707358015326995  0.09622821740540388  0.41298797699749196  1.0000
  C   C6        1.0  0.9752795423217364  0.9038584259443565  0.5869834384674633  1.0000
  C   C7        1.0  0.4873380975286209  0.3640477134641173  0.5490797604665402  1.0000
  C   C8        1.0  0.5125703745539312  0.6359515755293471  0.4511471068165064  1.0000
  C   C9        1.0  0.2926642299929297  0.8086068703645278  0.17391443538796372  1.0000
  C   C10       1.0  0.7080620479285286  0.1914880369741354  0.8261120795400243  1.0000
  C   C11       1.0  0.5411688720969535  0.5035778621215526  0.38509645283117055  1.0000
  C   C12       1.0  0.45872518244894406  0.49641416462515026  0.6151412095160607  1.0000
  C   C13       1.0  0.648312399770674  0.3778980239732305  0.08567298357667845  1.0000
  C   C14       1.0  0.35086372272391486  0.6222249955060875  0.9142680587130769  1.0000
  C   C15       1.0  0.047290196716353705  0.195948169229851  0.32181942741625136  1.0000
  C   C16       1.0  0.9526520803846024  0.8040425176587714  0.678060663648047  1.0000
  C   C17       1.0  0.5960017776094942  0.5086063896744759  0.2699501844383078  1.0000
  C   C18       1.0  0.40381510035607693  0.49139131416182374  0.7302629921089899  1.0000
  C   C19       1.0  0.8836441291618937  0.0198325724251802  0.5727726414461073  1.0000
  C   C20       1.0  0.1163558419577413  0.980260012806795  0.4272106750330521  1.0000
  C   C21       1.0  0.051540109425865  0.35515744322901094  0.3477573252204634  1.0000
  C   C22       1.0  0.9483765768945388  0.6448521171597291  0.6519082431214756  1.0000
  C   C23       1.0  0.6954881157132107  0.6526632563716885  0.24942707941040954  1.0000
  C   C24       1.0  0.30433234485180793  0.3474287556876233  0.7509223820929165  1.0000
  C   C25       1.0  0.06490145934432688  0.13777619682713288  0.20450114079177684  1.0000
  C   C26       1.0  0.9350597896521647  0.8619944729068434  0.7954385103026024  1.0000
  C   C27       1.0  0.06919152819563117  0.23233687405144102  0.11725324239811385  1.0000
  C   C28       1.0  0.9313012646285586  0.7673759357536551  0.8826889046038247  1.0000
  C   C29       1.0  0.06356292108813473  0.4444121370074185  0.25788322157673343  1.0000
  C   C30       1.0  0.936783035731274  0.5555250308132287  0.7417392933286491  1.0000
  C   C31       1.0  0.7754709151501017  0.6505907265152117  0.15308104423338154  1.0000
  C   C32       1.0  0.22379175852378808  0.3495058737169855  0.8469920060171457  1.0000
  C   C33       1.0  0.5651041928073326  0.36975006974066094  0.18026665326092228  1.0000
  C   C34       1.0  0.4345602025991368  0.6302064924983383  0.8199395464761848  1.0000
  S   S1        1.0  0.4724254361508854  0.9618805498333243  0.255694753835435  1.0000
  S   S2        1.0  0.5277034795123042  0.038428856010860095  0.7447307772973345  1.0000
  N   N1        1.0  0.0627249398629601  0.38296724221103057  0.14051252410149564  1.0000
  N   N2        1.0  0.9383070951192705  0.6169011787303657  0.8592921055877907  1.0000
  N   N3        1.0  0.7600599846983513  0.5153703920804061  0.07517656948118658  1.0000
  N   N4        1.0  0.2382861851494055  0.4848408672772633  0.9245752908311287  1.0000
  N   N5        1.0  0.16257446488864952  0.6950446358036257  0.11311829248881364  1.0000
  N   N6        1.0  0.8386522034062692  0.30484442400697986  0.8865730638005614  1.0000
