data_image0
_chemical_formula_structural       Cu4H20C24Br4N4O8
_chemical_formula_sum              "Cu4 H20 C24 Br4 N4 O8"
_cell_length_a       3.7571997272775026
_cell_length_b       14.010565152987825
_cell_length_c       14.466137334893997
_cell_angle_alpha    106.05469291117056
_cell_angle_beta     90.00111101881294
_cell_angle_gamma    89.99896674406008

_space_group_name_H-M_alt    "P 1"
_space_group_IT_number       1

loop_
  _space_group_symop_operation_xyz
  'x, y, z'

loop_
  _atom_site_type_symbol
  _atom_site_label
  _atom_site_symmetry_multiplicity
  _atom_site_fract_x
  _atom_site_fract_y
  _atom_site_fract_z
  _atom_site_occupancy
  Cu  Cu1       1.0  0.19240411757241555  0.7331774971257871  0.42969484125175217  1.0000
  Cu  Cu2       1.0  0.6924370990429337  0.766824455932742  0.5703032800008997  1.0000
  Cu  Cu3       1.0  0.8075905680186181  0.26681679273053754  0.5703048991824742  1.0000
  Cu  Cu4       1.0  0.30758154014457517  0.23317877555150804  0.4296933661565844  1.0000
  H   H1        1.0  0.41263508912636127  0.9216939475971986  0.39940777568927643  1.0000
  H   H2        1.0  0.9126325411692802  0.5782983289965457  0.6005902942023339  1.0000
  H   H3        1.0  0.5873675811137957  0.07829738602645618  0.6005883943174196  1.0000
  H   H4        1.0  0.08735415964019208  0.4217004171055833  0.39941066018191407  1.0000
  H   H5        1.0  0.3704631141098602  0.006498023258835399  0.2695487532605297  1.0000
  H   H6        1.0  0.8704143158064068  0.4934928691654079  0.7304492726718549  1.0000
  H   H7        1.0  0.6295528640327176  0.9934932920888996  0.7304508681931735  1.0000
  H   H8        1.0  0.1295856925819479  0.5065140466726915  0.26955390735062673  1.0000
  H   H9        1.0  0.8425173414097525  0.7447058394502762  0.09395546973805581  1.0000
  H   H10       1.0  0.3425075441560067  0.7552971234282422  0.9060361419078827  1.0000
  H   H11       1.0  0.15748532876127538  0.25528920404951094  0.9060424021920922  1.0000
  H   H12       1.0  0.6574977870094044  0.2447128033788388  0.09396025432147329  1.0000
  H   H13       1.0  0.9056141672183596  0.6699922455597118  0.23145475582648334  1.0000
  H   H14       1.0  0.40565367440471073  0.830012721234816  0.7685391288641197  1.0000
  H   H15       1.0  0.09434591807723788  0.3300072323416572  0.7685484716757287  1.0000
  H   H16       1.0  0.594343672115123  0.16999054314152312  0.23145130469476521  1.0000
  H   H17       1.0  0.8720205510882407  0.9242371843217325  0.9676686524070062  1.0000
  H   H18       1.0  0.37201104578090133  0.5757730932786415  0.03232718681074692  1.0000
  H   H19       1.0  0.12795284245545696  0.0757437259230613  0.03232951692498179  1.0000
  H   H20       1.0  0.6280022700108743  0.42425089745839256  0.9676820273528859  1.0000
  C   C1        1.0  0.2908970499601367  0.8847514390848586  0.3303803158439749  1.0000
  C   C2        1.0  0.7908860528030245  0.6152420058477471  0.6696160251774612  1.0000
  C   C3        1.0  0.709124251364919  0.11523616637759196  0.6696176036983202  1.0000
  C   C4        1.0  0.2091139554134287  0.3847641964899039  0.33038143024994326  1.0000
  C   C5        1.0  0.26639597905261775  0.9316792412194629  0.2578115632838731  1.0000
  C   C6        1.0  0.7663665729155297  0.5683128098261817  0.742182881656582  1.0000
  C   C7        1.0  0.7336146759051799  0.06831208508925359  0.7421859873076497  1.0000
  C   C8        1.0  0.23363875858387217  0.4316904070784772  0.25781652560434043  1.0000
  C   C9        1.0  0.10362188611455277  0.8819608713267824  0.1709422894257314  1.0000
  C   C10       1.0  0.6035790536995478  0.6180332244789993  0.8290518239249706  1.0000
  C   C11       1.0  0.8964020767619514  0.1180259950763656  0.8290547375111856  1.0000
  C   C12       1.0  0.3964236160996818  0.3819766731277596  0.17095009456543409  1.0000
  C   C13       1.0  0.9734215437342328  0.7856992789617578  0.16010474982613226  1.0000
  C   C14       1.0  0.47339937930965437  0.7143017377608272  0.8398891200561703  1.0000
  C   C15       1.0  0.026591772758720798  0.21429574991729075  0.8398958832616257  1.0000
  C   C16       1.0  0.5266086134681983  0.28570596092563955  0.16010666919517288  1.0000
  C   C17       1.0  0.007642488117511399  0.7440388485487831  0.23623625682101582  1.0000
  C   C18       1.0  0.5076575538378947  0.7559637540231848  0.7637582675941486  1.0000
  C   C19       1.0  0.9923468742968921  0.25595323145369514  0.76375942520022  1.0000
  C   C20       1.0  0.49233713139764024  0.24404094831046308  0.23624154429872135  1.0000
  C   C21       1.0  0.06539755520937969  0.9333009992995683  0.09481467574671851  1.0000
  C   C22       1.0  0.565347507316602  0.5667006768226913  0.9051771462816303  1.0000
  C   C23       1.0  0.9346051149326157  0.066693308796097  0.905181613288647  1.0000
  C   C24       1.0  0.4346658088707754  0.4333084561567516  0.0948287116051318  1.0000
  Br  Br1       1.0  0.1847493234379201  0.8833322973224753  0.5755505354410743  1.0000
  Br  Br2       1.0  0.6847347113200327  0.6166726200872005  0.42445457294436295  1.0000
  Br  Br3       1.0  0.8152746387781348  0.11667242686454667  0.42444513481770924  1.0000
  Br  Br4       1.0  0.3152599746386143  0.383323093119408  0.5755573069633896  1.0000
  N   N1        1.0  0.1625117222523684  0.7924523890592071  0.32076400573320996  1.0000
  N   N2        1.0  0.6625296390969807  0.707545221461565  0.6792306954660104  1.0000
  N   N3        1.0  0.8374723171334891  0.20753819824049907  0.6792326521867196  1.0000
  N   N4        1.0  0.3374623845632883  0.2924602235820045  0.32076931874885867  1.0000
  O   O1        1.0  0.8992836219036561  0.8820112765462511  0.016297209154949102  1.0000
  O   O2        1.0  0.39923536314678637  0.6179944694599656  0.9836940878990672  1.0000
  O   O3        1.0  0.10070574080003068  0.1179711409854747  0.9836972231688816  1.0000
  O   O4        1.0  0.6007912605474032  0.3820295030011421  0.016318577711579994  1.0000
  O   O5        1.0  0.18211999843187945  0.019469588242010602  0.10644596656385368  1.0000
  O   O6        1.0  0.6820726386656658  0.48053159193380396  0.8935565989072455  1.0000
  O   O7        1.0  0.817826779306358  0.98051801734848  0.8935519528099147  1.0000
  O   O8        1.0  0.31790341548141743  0.5194864572244525  0.1064509965480198  1.0000
