data_image0
_chemical_formula_structural       Zn2H12C26N2O8F4
_chemical_formula_sum              "Zn2 H12 C26 N2 O8 F4"
_cell_length_a       9.597359424303889
_cell_length_b       11.008468654516403
_cell_length_c       15.361136347793678
_cell_angle_alpha    90.30748279574294
_cell_angle_beta     90.2133875335311
_cell_angle_gamma    90.02767597688931

_space_group_name_H-M_alt    "P 1"
_space_group_IT_number       1

loop_
  _space_group_symop_operation_xyz
  'x, y, z'

loop_
  _atom_site_type_symbol
  _atom_site_label
  _atom_site_symmetry_multiplicity
  _atom_site_fract_x
  _atom_site_fract_y
  _atom_site_fract_z
  _atom_site_occupancy
  Zn  Zn1       1.0  0.35779404929167674  0.5000186463680124  0.49930897779592  1.0000
  Zn  Zn2       1.0  0.6413808952559349  0.5000287677514947  0.500695038477275  1.0000
  H   H1        1.0  0.8647306973463672  0.3649017963411509  0.40559121217634003  1.0000
  H   H2        1.0  0.28050573036544785  0.1134425800421042  0.47599730038069055  1.0000
  H   H3        1.0  0.7215057626954149  0.11500602395513229  0.5235399153641325  1.0000
  H   H4        1.0  0.2817864774506376  0.8850128682894649  0.4742228266286261  1.0000
  H   H5        1.0  0.1343938812897605  0.6352142533777824  0.5946375219827049  1.0000
  H   H6        1.0  0.8665844313009643  0.6349836773063372  0.5951204575505005  1.0000
  H   H7        1.0  0.1324943490317381  0.36581643285726523  0.4047376719201878  1.0000
  H   H8        1.0  0.30123920630664  0.5957341471843876  0.7791795869742375  1.0000
  H   H9        1.0  0.6968912165730998  0.5932252585377428  0.22320781955176022  1.0000
  H   H10       1.0  0.3023664828194583  0.4034790425909731  0.2200560094026329  1.0000
  H   H11       1.0  0.6956909871587698  0.40628714089160667  0.7773208783959619  1.0000
  H   H12       1.0  0.7212658146021481  0.886657547797135  0.5264387072661663  1.0000
  C   C1        1.0  0.501683607718121  0.736889020904421  0.5009722549017113  1.0000
  C   C2        1.0  0.37663141559834656  0.06278125686068138  0.48631889617047364  1.0000
  C   C3        1.0  0.6256913983885253  0.063633801834456  0.5133616220664622  1.0000
  C   C4        1.0  0.3771165667711358  0.9364746162086632  0.4858557757868526  1.0000
  C   C5        1.0  0.39206352082835133  0.5533379858471505  0.9037745761109051  1.0000
  C   C6        1.0  0.6081478881036446  0.5517787907418565  0.09746544843391552  1.0000
  C   C7        1.0  0.3926380004149053  0.44593209135018697  0.095759976289358  1.0000
  C   C8        1.0  0.607592895270585  0.4476462501779253  0.9028023072023927  1.0000
  C   C9        1.0  0.38791993896533933  0.5539383282626956  0.8136313049317323  1.0000
  C   C10       1.0  0.6109110881011616  0.5514261662710425  0.18766312451899136  1.0000
  C   C11       1.0  0.3889460152585968  0.4452676628119576  0.18588560092076994  1.0000
  C   C12       1.0  0.5009843311574613  0.2630715816081448  0.499156633928081  1.0000
  C   C13       1.0  0.6099135103901432  0.44798045725105595  0.812644281921486  1.0000
  C   C14       1.0  0.4984646313708794  0.5012618880403323  0.767886073909324  1.0000
  C   C15       1.0  0.4995690560377212  0.4981264546080553  0.23205238292961644  1.0000
  C   C16       1.0  0.500278164404179  0.5002216522748595  0.9519765238613048  1.0000
  C   C17       1.0  0.5005738931816167  0.49924734534414467  0.04791786659267672  1.0000
  C   C18       1.0  0.5010351750136053  0.12719901196528133  0.4995964226168894  1.0000
  C   C19       1.0  0.5014984676963009  0.8728488348214113  0.5005657442997561  1.0000
  C   C20       1.0  0.4978744464236797  0.5015906869219435  0.6702655788428376  1.0000
  C   C21       1.0  0.49836613069871305  0.4980197345708461  0.3296909352608992  1.0000
  C   C22       1.0  0.9264457338096435  0.4248796957997811  0.4472938794591813  1.0000
  C   C23       1.0  0.07264165750005701  0.5756517797286592  0.5526716114547697  1.0000
  C   C24       1.0  0.9275357287920656  0.5753267482393056  0.5530819167159464  1.0000
  C   C25       1.0  0.07154154259006869  0.42515954083661  0.4469856488053311  1.0000
  C   C26       1.0  0.6256319296401145  0.9373648577814249  0.5147311788436753  1.0000
  N   N1        1.0  0.1428376903016328  0.5005392822448158  0.4996294605566334  1.0000
  N   N2        1.0  0.8562987799266679  0.49997594081948177  0.5003724993840066  1.0000
  O   O1        1.0  0.3863055993752623  0.6833804163973626  0.48508128806071243  1.0000
  O   O2        1.0  0.6171501275199276  0.31588494613680507  0.48539185920801503  1.0000
  O   O3        1.0  0.38488884874162466  0.316181309292041  0.5126384991609143  1.0000
  O   O4        1.0  0.6171326909308804  0.6839130184976128  0.5170744944851862  1.0000
  O   O5        1.0  0.38269801352267757  0.5249632741436513  0.6323176623371937  1.0000
  O   O6        1.0  0.6131402336241932  0.5213719102155565  0.368259890699406  1.0000
  O   O7        1.0  0.3827433394723627  0.47484577035817205  0.3666167807974291  1.0000
  O   O8        1.0  0.6129879182568132  0.47821587561993073  0.6327285291958944  1.0000
  F   F1        1.0  0.287132415113824  0.6085864309568763  0.948174470231237  1.0000
  F   F2        1.0  0.7135727815351771  0.6076904557640574  0.05434381141721192  1.0000
  F   F3        1.0  0.2874891718497068  0.3906283098463204  0.0510486213973635  1.0000
  F   F4        1.0  0.7132388911465526  0.39188017087990806  0.9462485025968874  1.0000
