data_image0
_chemical_formula_structural       Ca6H78C48N6O48
_chemical_formula_sum              "Ca6 H78 C48 N6 O48"
_cell_length_a       14.202920578000827
_cell_length_b       13.655710937495536
_cell_length_c       13.656445237206432
_cell_angle_alpha    108.64272802371032
_cell_angle_beta     110.2876625959929
_cell_angle_gamma    110.2836645907348

_space_group_name_H-M_alt    "P 1"
_space_group_IT_number       1

loop_
  _space_group_symop_operation_xyz
  'x, y, z'

loop_
  _atom_site_type_symbol
  _atom_site_label
  _atom_site_symmetry_multiplicity
  _atom_site_fract_x
  _atom_site_fract_y
  _atom_site_fract_z
  _atom_site_occupancy
  Ca  Ca1       1.0  0.48998787628392654  0.15312370426552488  0.6898002856180767  1.0000
  Ca  Ca2       1.0  0.33682730337594075  0.5366747448492075  0.8468694653759101  1.0000
  Ca  Ca3       1.0  0.8001503902647116  0.31021644476561505  0.4633239310928658  1.0000
  Ca  Ca4       1.0  0.5100113126394274  0.8468737598753073  0.3101973683143979  1.0000
  Ca  Ca5       1.0  0.6631742888138491  0.4633317337785881  0.15313568101589684  1.0000
  Ca  Ca6       1.0  0.19984681173449542  0.6897810191418399  0.5366796772026277  1.0000
  H   H1        1.0  0.911439504734304  0.35624778663638057  0.7882681323960697  1.0000
  H   H2        1.0  0.5551641167437964  0.43197910875797146  0.6437306823600225  1.0000
  H   H3        1.0  0.1231976184496588  0.21176490876353427  0.5680385946452731  1.0000
  H   H4        1.0  0.08855983555405088  0.6437514804256849  0.21173018101446672  1.0000
  H   H5        1.0  0.44481713392956107  0.5680102424980331  0.35624891129192787  1.0000
  H   H6        1.0  0.8768010752946936  0.7882163289890797  0.43195633487973584  1.0000
  H   H7        1.0  0.8485513481585373  0.25182912406843627  0.0355681690592249  1.0000
  H   H8        1.0  0.5967024625670023  0.7836660454336696  0.748165666047342  1.0000
  H   H9        1.0  0.8130740902271327  0.9645170976192146  0.21635320919285325  1.0000
  H   H10       1.0  0.1514543765127454  0.7481647341805835  0.9644325700399532  1.0000
  H   H11       1.0  0.40329487003620557  0.21632961595511083  0.2518256488572703  1.0000
  H   H12       1.0  0.18695451661932344  0.03550019876049499  0.7836606505383799  1.0000
  H   H13       1.0  0.2017339439001944  0.44252758510698686  0.11130761605457443  1.0000
  H   H14       1.0  0.7592512011771503  0.6688176933649641  0.5574573246787365  1.0000
  H   H15       1.0  0.09045778769228006  0.8886175340715138  0.3311755016034111  1.0000
  H   H16       1.0  0.7982581071465233  0.5574806963550926  0.8886965291603841  1.0000
  H   H17       1.0  0.2407597549070601  0.3311896868339658  0.44254894889985513  1.0000
  H   H18       1.0  0.9095527401805868  0.11137993003705299  0.6688280080529837  1.0000
  H   H19       1.0  0.1545669802708787  0.35716340046039347  0.23155159224094038  1.0000
  H   H20       1.0  0.7973719153056609  0.8744218906455571  0.6428441020376994  1.0000
  H   H21       1.0  0.9230237254991422  0.7684798855738177  0.12561991618890989  1.0000
  H   H22       1.0  0.8454312796176779  0.6428394723385293  0.768450525220274  1.0000
  H   H23       1.0  0.2026279325106373  0.12558098208410934  0.35716072601174176  1.0000
  H   H24       1.0  0.0769780524351518  0.23152028318366993  0.8743728935643986  1.0000
  H   H25       1.0  0.015985466363581183  0.27422186464568193  0.19529044592967174  1.0000
  H   H26       1.0  0.7417725735811658  0.9211017913525407  0.7257944979486409  1.0000
  H   H27       1.0  0.8207388730787103  0.8047046699068545  0.07889502294622029  1.0000
  H   H28       1.0  0.9840197265617548  0.7257801068195846  0.8047106711993308  1.0000
  H   H29       1.0  0.2582203721627536  0.07889927843027779  0.2742074932210982  1.0000
  H   H30       1.0  0.17927589195409874  0.195292794443624  0.9211032581477028  1.0000
  H   H31       1.0  0.5230977594318916  0.4095073842900091  0.7837233380429395  1.0000
  H   H32       1.0  0.11357804613037094  0.374236977618416  0.5905169899023689  1.0000
  H   H33       1.0  0.739337951849663  0.21625418674162938  0.6257808396012335  1.0000
  H   H34       1.0  0.4769052553479439  0.590492784698  0.21626327541383003  1.0000
  H   H35       1.0  0.8864201259876268  0.6257658952554477  0.40948290083766636  1.0000
  H   H36       1.0  0.26065364680960806  0.7837459817012157  0.3742167477272104  1.0000
  H   H37       1.0  0.6381728192947236  0.42063630516273054  0.8785304532192697  1.0000
  H   H38       1.0  0.21750460277114306  0.45789448889630774  0.5793708617002976  1.0000
  H   H39       1.0  0.7595947796411979  0.12142082358270294  0.5420857629547555  1.0000
  H   H40       1.0  0.36183493675789435  0.5793728782458343  0.12146660521855779  1.0000
  H   H41       1.0  0.7824917990897191  0.5421092854060844  0.4206294961853699  1.0000
  H   H42       1.0  0.2404012868596155  0.8785748376005243  0.4579110060059932  1.0000
  H   H43       1.0  0.4000382521089207  0.1758776911146142  0.4676292245413762  1.0000
  H   H44       1.0  0.22418102056279568  0.29175685947924984  0.8241435134672769  1.0000
  H   H45       1.0  0.9324051240833596  0.5323756928167068  0.7082455696127852  1.0000
  H   H46       1.0  0.5999587743491903  0.8241197729427298  0.5323699303117381  1.0000
  H   H47       1.0  0.7758269369145765  0.7082478164527756  0.1758572129249245  1.0000
  H   H48       1.0  0.06758982768005946  0.4676217710822143  0.29175731288216156  1.0000
  H   H49       1.0  0.5408858797985587  0.2569827798239358  0.5356113337477382  1.0000
  H   H50       1.0  0.2839308809239185  0.278638713876191  0.7430581087645365  1.0000
  H   H51       1.0  0.0053025195220896765  0.46440321019478137  0.7213663092174515  1.0000
  H   H52       1.0  0.45911189673815034  0.7430146842362574  0.4643880630388963  1.0000
  H   H53       1.0  0.7160686399862823  0.7213623560821314  0.25694160636446356  1.0000
  H   H54       1.0  0.9946876633773414  0.5355924508657565  0.27863149323675884  1.0000
  H   H55       1.0  0.39442509891432576  0.9012620147856437  0.5550127431984252  1.0000
  H   H56       1.0  0.4931945106755151  0.6537848068714496  0.09875171275503905  1.0000
  H   H57       1.0  0.8394116109156612  0.44497919962531524  0.34625246025072437  1.0000
  H   H58       1.0  0.605572823906634  0.09873544914964327  0.44499036479018633  1.0000
  H   H59       1.0  0.5068093644220184  0.34621626322885385  0.9012457427730708  1.0000
  H   H60       1.0  0.1605835265503543  0.5550218702160022  0.653748772238771  1.0000
  H   H61       1.0  0.5157587704713578  0.9297487857804112  0.5726741034330018  1.0000
  H   H62       1.0  0.5860462531939704  0.6430001589906594  0.07031383626977562  1.0000
  H   H63       1.0  0.9431173434667244  0.4273466968358903  0.35710303750882827  1.0000
  H   H64       1.0  0.484239938473344  0.07024777692335958  0.4273223575532866  1.0000
  H   H65       1.0  0.4139581688498666  0.35700812284455435  0.9296847726897965  1.0000
  H   H66       1.0  0.05687652960444461  0.5726516685443597  0.6428990695844802  1.0000
  H   H67       1.0  0.3320860632625653  0.007223276532719999  0.7554996020524953  1.0000
  H   H68       1.0  0.3248598306076715  0.748315080647174  0.9927380760023541  1.0000
  H   H69       1.0  0.576594760146314  0.24448512460061514  0.25169396928879456  1.0000
  H   H70       1.0  0.6679156994294787  0.9927714830863222  0.24450236287257351  1.0000
  H   H71       1.0  0.6751386960076359  0.2516823834158685  0.007261562717793934  1.0000
  H   H72       1.0  0.423400527019048  0.7555105366047526  0.7483018154980456  1.0000
  H   H73       1.0  0.44036999134209515  0.1261435506611335  0.8799129155689727  1.0000
  H   H74       1.0  0.31432431560812546  0.7538792663926869  0.873872707459526  1.0000
  H   H75       1.0  0.5605013348803566  0.12002261318465907  0.2460581592007927  1.0000
  H   H76       1.0  0.5596397521145774  0.8738521104234207  0.12009266163742885  1.0000
  H   H77       1.0  0.6856723805287857  0.24612180340436385  0.12613049337778648  1.0000
  H   H78       1.0  0.4394990891809911  0.8799775554422239  0.7539378778874662  1.0000
  C   C1        1.0  0.7373288010097311  0.24596779181094053  0.8289041123646043  1.0000
  C   C2        1.0  0.4913560404856483  0.5829166536969836  0.7540241910394911  1.0000
  C   C3        1.0  0.9084219924957682  0.17102353218472638  0.417036951477968  1.0000
  C   C4        1.0  0.26266436700374385  0.7540125443098304  0.17109312636238636  1.0000
  C   C5        1.0  0.5086343624539751  0.41708441632712107  0.24596965192574058  1.0000
  C   C6        1.0  0.09159082213794523  0.8289595081406343  0.5829748681747303  1.0000
  C   C7        1.0  0.8669248868212093  0.29823801559008684  0.9042863832023897  1.0000
  C   C8        1.0  0.5686950193814794  0.6060486261585465  0.7017818752720756  1.0000
  C   C9        1.0  0.9626393425467938  0.09573518857333597  0.3939514405966947  1.0000
  C   C10       1.0  0.13307059673005736  0.7017414192798767  0.09570543462969985  1.0000
  C   C11       1.0  0.4313028050275207  0.39395875431677746  0.29821063631159456  1.0000
  C   C12       1.0  0.03736014065260905  0.9042595710621479  0.6060490562874249  1.0000
  C   C13       1.0  0.9444483778077669  0.35323992857961156  0.8713297897941032  1.0000
  C   C14       1.0  0.5911983603236307  0.5180853240320926  0.6467830769470098  1.0000
  C   C15       1.0  0.0730989839489027  0.12869477838632545  0.4819203999370529  1.0000
  C   C16       1.0  0.05554768869304643  0.6467557326036226  0.12866697916664543  1.0000
  C   C17       1.0  0.408797769771624  0.4819121401473223  0.35321212477061437  1.0000
  C   C18       1.0  0.9269038930006346  0.8713117010744182  0.5180609783222111  1.0000
  C   C19       1.0  0.06504804381275156  0.4054519196725436  0.9464287181615421  1.0000
  C   C20       1.0  0.6595675971290549  0.540960244720324  0.5945262610713726  1.0000
  C   C21       1.0  0.11861966316681112  0.053596509641536685  0.4590225362377609  1.0000
  C   C22       1.0  0.9349498908353555  0.5945563619122253  0.05357439355994854  1.0000
  C   C23       1.0  0.34041287758205396  0.4590336138594893  0.40545387613505574  1.0000
  C   C24       1.0  0.8813849140951291  0.9464045598591962  0.5409927330598593  1.0000
  C   C25       1.0  0.10761617998903714  0.40099201093823195  0.05318314520737736  1.0000
  C   C26       1.0  0.706629583813289  0.6521977781977099  0.59898083496676  1.0000
  C   C27       1.0  0.05445134494142674  0.9467757189698316  0.3478239228069739  1.0000
  C   C28       1.0  0.8923796147461759  0.5989973401220254  0.9468084675853207  1.0000
  C   C29       1.0  0.29337427941520394  0.3478023900658228  0.40102730346150384  1.0000
  C   C30       1.0  0.9455494611665217  0.0532217450767618  0.6521771839541233  1.0000
  C   C31       1.0  0.03023000076230891  0.343695895853365  0.0850002616784451  1.0000
  C   C32       1.0  0.6865283094098801  0.7413022978911245  0.656318566970839  1.0000
  C   C33       1.0  0.9452639551289153  0.9150521027948171  0.2587361332411291  1.0000
  C   C34       1.0  0.9697710821919828  0.6563096813623516  0.91500294952678  1.0000
  C   C35       1.0  0.31347533159095053  0.2587086882217448  0.3436836372671337  1.0000
  C   C36       1.0  0.054736903890173494  0.08496699652576468  0.7412657232261141  1.0000
  C   C37       1.0  0.9099284062091401  0.2935563722512524  0.01043488162693507  1.0000
  C   C38       1.0  0.6163832638074211  0.7168318203587772  0.7064494404778969  1.0000
  C   C39       1.0  0.8995832567656096  0.9896545071755724  0.2831834415439402  1.0000
  C   C40       1.0  0.09007207969720085  0.7064582194400442  0.9895748543035481  1.0000
  C   C41       1.0  0.3836126665706344  0.28316744704166297  0.2935375138330301  1.0000
  C   C42       1.0  0.10042391625366061  0.0103582815451517  0.7168300390313078  1.0000
  C   C43       1.0  0.14993519767511282  0.4608912472190098  0.9107865465761477  1.0000
  C   C44       1.0  0.6890161024176179  0.44986895732314025  0.5390805397533853  1.0000
  C   C45       1.0  0.23918885118560237  0.08922761453324307  0.5501348490753699  1.0000
  C   C46       1.0  0.850059002344061  0.5390990051198796  0.0892099868045691  1.0000
  C   C47       1.0  0.31097711342625434  0.5501312110254657  0.46092050040368093  1.0000
  C   C48       1.0  0.7608222049762148  0.9107770606828322  0.4498881280888795  1.0000
  N   N1        1.0  0.07238198478301429  0.3439722297419151  0.1944403981383758  1.0000
  N   N2        1.0  0.7283837599896688  0.8504746461961898  0.6560522552729466  1.0000
  N   N3        1.0  0.8779742003995635  0.8056189936819533  0.14956185749471004  1.0000
  N   N4        1.0  0.9276172058059868  0.6560324459561071  0.8055633629748159  1.0000
  N   N5        1.0  0.2716139940365849  0.1495318324923218  0.34394945473008687  1.0000
  N   N6        1.0  0.12203525381990227  0.19439109076680686  0.8504485116691641  1.0000
  O   O1        1.0  0.6941121475563463  0.23176900596001088  0.7230074695257757  1.0000
  O   O2        1.0  0.4623488663526416  0.49120911379629445  0.7682280637663438  1.0000
  O   O3        1.0  0.9710943251164679  0.2769071790250805  0.5087418016487745  1.0000
  O   O4        1.0  0.3058976369843192  0.7682374727490423  0.2769988536539002  1.0000
  O   O5        1.0  0.5376593888158823  0.5087874491193461  0.2317663466728703  1.0000
  O   O6        1.0  0.028898292055700343  0.7230848764292045  0.49124896941980717  1.0000
  O   O7        1.0  0.6729547542515704  0.21749508463782513  0.8727557014253904  1.0000
  O   O8        1.0  0.455424486278325  0.6551968750823673  0.7825281434342485  1.0000
  O   O9        1.0  0.8002185206162123  0.12730396791867798  0.34481817450952695  1.0000
  O   O10       1.0  0.3270380952678521  0.7824996748721271  0.12724558701867744  1.0000
  O   O11       1.0  0.544567463463153  0.34480329306069274  0.21747835077895417  1.0000
  O   O12       1.0  0.19980113368117708  0.8726998064719208  0.6551896833151146  1.0000
  O   O13       1.0  0.25856207575521495  0.5015621722147044  0.9792484052929639  1.0000
  O   O14       1.0  0.7569814868652145  0.477724100230361  0.4984432626170303  1.0000
  O   O15       1.0  0.27927198101389183  0.020713778163191397  0.5222597258966246  1.0000
  O   O16       1.0  0.7414346908063436  0.49842988355644013  0.020734910491945917  1.0000
  O   O17       1.0  0.24302803821691293  0.5222733634478158  0.5015723812590664  1.0000
  O   O18       1.0  0.7207194870832864  0.9792782769856171  0.4777394681896822  1.0000
  O   O19       1.0  0.11290313685561422  0.460849909595069  0.8119642136746633  1.0000
  O   O20       1.0  0.652019813542438  0.3510861392924055  0.5391319496130932  1.0000
  O   O21       1.0  0.3009364547383626  0.18804257171263564  0.6489508045810837  1.0000
  O   O22       1.0  0.8870890228064566  0.5391421456065542  0.18803373786435876  1.0000
  O   O23       1.0  0.3479800050170141  0.6489167334622434  0.46087213619595246  1.0000
  O   O24       1.0  0.6990682305752216  0.8119756257104525  0.3510651711750866  1.0000
  O   O25       1.0  0.5586329108868212  0.36187256505898785  0.805003400171735  1.0000
  O   O26       1.0  0.19676090184372444  0.44311976690139687  0.6381401688209536  1.0000
  O   O27       1.0  0.753613068326274  0.1949721311151506  0.5568815361116037  1.0000
  O   O28       1.0  0.4413732246080074  0.6381321111421484  0.1949886777090839  1.0000
  O   O29       1.0  0.8032368780661799  0.5568822044604643  0.3618607556940816  1.0000
  O   O30       1.0  0.2463795128007433  0.8050208255734929  0.4431161238928212  1.0000
  O   O31       1.0  0.474412743353149  0.18717135912054764  0.5249574140003901  1.0000
  O   O32       1.0  0.2872948028150262  0.33778637827887786  0.8128881562976176  1.0000
  O   O33       1.0  0.9494590684708372  0.4750584033929002  0.6622207791015668  1.0000
  O   O34       1.0  0.5255844052131096  0.8128279078830186  0.4750416580903901  1.0000
  O   O35       1.0  0.7127155838124325  0.6622228048134601  0.18711927706591075  1.0000
  O   O36       1.0  0.0505315651503935  0.5249381591296753  0.3377774740584272  1.0000
  O   O37       1.0  0.4789697243921511  0.9638260966483686  0.6119484164150537  1.0000
  O   O38       1.0  0.5151708511647256  0.6481909442882877  0.036199067640033805  1.0000
  O   O39       1.0  0.8670472952874064  0.3880740726190408  0.35190851468229306  1.0000
  O   O40       1.0  0.5210253219301109  0.036170465966229394  0.388049061624848  1.0000
  O   O41       1.0  0.4848313138969118  0.3518083229350565  0.9637957600621903  1.0000
  O   O42       1.0  0.13294402989871654  0.6119224899563489  0.6480884959304305  1.0000
  O   O43       1.0  0.4160304085004256  0.07060456984949329  0.7981890406990217  1.0000
  O   O44       1.0  0.34535907116425324  0.7275377528962603  0.9293325157251927  1.0000
  O   O45       1.0  0.6178703352596244  0.20183013443687506  0.2724114343009418  1.0000
  O   O46       1.0  0.5839691124097752  0.9293965001088292  0.20181067442997142  1.0000
  O   O47       1.0  0.6546375338289039  0.27245880967406316  0.07066693066253295  1.0000
  O   O48       1.0  0.38212949008812547  0.7981718371083982  0.7275850203318652  1.0000
