data_image0
_chemical_formula_structural       Zn2H36C48N8O12
_chemical_formula_sum              "Zn2 H36 C48 N8 O12"
_cell_length_a       9.980750795667818
_cell_length_b       10.324089922228298
_cell_length_c       11.78875273309244
_cell_angle_alpha    76.47623335873521
_cell_angle_beta     72.54851108135222
_cell_angle_gamma    86.98501309864216

_space_group_name_H-M_alt    "P 1"
_space_group_IT_number       1

loop_
  _space_group_symop_operation_xyz
  'x, y, z'

loop_
  _atom_site_type_symbol
  _atom_site_label
  _atom_site_symmetry_multiplicity
  _atom_site_fract_x
  _atom_site_fract_y
  _atom_site_fract_z
  _atom_site_occupancy
  Zn  Zn1       1.0  0.6402259025359456  0.15388891754411566  0.14564836519744515  1.0000
  Zn  Zn2       1.0  0.3597750241936595  0.8461101334524915  0.8543525416970323  1.0000
  H   H1        1.0  0.6801667368848712  0.5141192810902951  0.0008933154976204215  1.0000
  H   H2        1.0  0.3198299791779533  0.4858817439385065  0.9991040404029262  1.0000
  H   H3        1.0  0.4312112856452117  0.28741773312454916  0.06804188480300159  1.0000
  H   H4        1.0  0.5687906914262086  0.7125813235849423  0.9319587482526184  1.0000
  H   H5        1.0  0.4446273288165159  0.15581943485742045  0.013790999322793578  1.0000
  H   H6        1.0  0.5553746556515476  0.844179621032211  0.9862104802674379  1.0000
  H   H7        1.0  0.6660920994939302  0.6570630544859741  0.1217749845118874  1.0000
  H   H8        1.0  0.33390987113227055  0.34293500501145513  0.878226701916489  1.0000
  H   H9        1.0  0.4013802165872137  0.3834848115704333  0.43248222667131836  1.0000
  H   H10       1.0  0.5986185392980516  0.6165102440713072  0.5675183621842307  1.0000
  H   H11       1.0  0.36050872722527316  0.8068725185098912  0.4029461524775399  1.0000
  H   H12       1.0  0.6394890005081065  0.19312252895939963  0.5970572498206933  1.0000
  H   H13       1.0  0.138770490474613  0.5283228796080693  0.765785795849993  1.0000
  H   H14       1.0  0.8612252399133169  0.4716801283929613  0.23421565288616358  1.0000
  H   H15       1.0  0.9191750565074271  0.4983094376355767  0.9414949943949221  1.0000
  H   H16       1.0  0.08081753574547429  0.5016955476509468  0.05850516911227997  1.0000
  H   H17       1.0  0.6728031873761253  0.24251686089878183  0.8661894558149609  1.0000
  H   H18       1.0  0.32719881737899936  0.7574841885951146  0.13381076356436236  1.0000
  H   H19       1.0  0.6844109767186668  0.6991812201077467  0.7011028065431117  1.0000
  H   H20       1.0  0.3155846603672003  0.3008188044556874  0.2988933369652215  1.0000
  H   H21       1.0  0.9059515509774699  0.7297196361360322  0.5244755937352323  1.0000
  H   H22       1.0  0.09404719560829021  0.2702774163894191  0.47552034877097776  1.0000
  H   H23       1.0  0.17651483370977414  0.11809083549779593  0.05905370445832859  1.0000
  H   H24       1.0  0.8234860367009844  0.8819052279619157  0.9409461298813682  1.0000
  H   H25       1.0  0.8705719525041502  0.2901660730470327  0.669815366618664  1.0000
  H   H26       1.0  0.12942803461845642  0.7098409433743386  0.330184159409491  1.0000
  H   H27       1.0  0.15734074111632884  0.18695816923469274  0.8866175839368322  1.0000
  H   H28       1.0  0.8426613190062113  0.813046865828028  0.11338180808990461  1.0000
  H   H29       1.0  0.11895754109053767  0.26573889339065465  0.6825160357860227  1.0000
  H   H30       1.0  0.8810445679542055  0.734269130028821  0.3174835822608841  1.0000
  H   H31       1.0  0.1785461524048628  0.04682377228415651  0.274117802359271  1.0000
  H   H32       1.0  0.8214547466410309  0.9531732859280381  0.7258835182114965  1.0000
  H   H33       1.0  0.7248712141281713  0.06600044406320651  0.3847708724523142  1.0000
  H   H34       1.0  0.2751306705926169  0.9339946311767592  0.6152263552828501  1.0000
  H   H35       1.0  0.9469245592019321  0.018805339705807004  0.4426790638303826  1.0000
  H   H36       1.0  0.0530753171858578  0.9811937055779226  0.5573221169029523  1.0000
  C   C1        1.0  0.5824651968348035  0.6389705301232524  0.20797475116359018  1.0000
  C   C2        1.0  0.41753470818811417  0.3610295099129602  0.7920279158008086  1.0000
  C   C3        1.0  0.5198927565304103  0.7468596367386697  0.25573255967248076  1.0000
  C   C4        1.0  0.48010606307034465  0.25313840562011347  0.7442699482724535  1.0000
  C   C5        1.0  0.6035998603175586  0.39488701766968864  0.21316017487044545  1.0000
  C   C6        1.0  0.3963999809898766  0.6051100356494886  0.7868405730045678  1.0000
  C   C7        1.0  0.5403112529543891  0.5077821966415571  0.27041235949982917  1.0000
  C   C8        1.0  0.4596907038299633  0.4922148664636623  0.729589533766692  1.0000
  C   C9        1.0  0.36533917196938853  0.592597394778892  0.4263408025746358  1.0000
  C   C10       1.0  0.6346575257092368  0.4073996405817866  0.5736616133515469  1.0000
  C   C11       1.0  0.5687276266711762  0.8864057924550935  0.18764847398408332  1.0000
  C   C12       1.0  0.431272243271394  0.11359225561657378  0.8123537601220004  1.0000
  C   C13       1.0  0.43397068109923265  0.4848419354462123  0.38183327900464537  1.0000
  C   C14       1.0  0.5660291528115593  0.5151551186928248  0.6181666223357638  1.0000
  C   C15       1.0  0.4105632946876058  0.7236139794429806  0.3652483415555848  1.0000
  C   C16       1.0  0.5894376191515747  0.27638307712950194  0.6347546720844051  1.0000
  C   C17       1.0  0.0387741666787633  0.5628219987439849  0.7517411454365046  1.0000
  C   C18       1.0  0.9612215563125233  0.4371810100769054  0.24825945676504074  1.0000
  C   C19       1.0  0.9173263401637329  0.5470612165901869  0.8493979685330756  1.0000
  C   C20       1.0  0.08267039808901441  0.4529398059790284  0.15060192697130495  1.0000
  C   C21       1.0  0.9352788665559684  0.17597778243666806  0.9835396082119628  1.0000
  C   C22       1.0  0.064724251305023  0.8240272575190775  0.016460356510535155  1.0000
  C   C23       1.0  0.0339978733060917  0.6259201452907278  0.6335170195620987  1.0000
  C   C24       1.0  0.9660010071558605  0.3740838778808709  0.36648170775013245  1.0000
  C   C25       1.0  0.7886865454476747  0.5920016015687751  0.8296207115765314  1.0000
  C   C26       1.0  0.2113080625348687  0.40799941285411734  0.17037634546711894  1.0000
  C   C27       1.0  0.9488340878503793  0.13219855775820835  0.10856309949787864  1.0000
  C   C28       1.0  0.05116996866618  0.8677995148046947  0.8914363461835748  1.0000
  C   C29       1.0  0.7820630287793265  0.23102274803323308  0.8657888113979337  1.0000
  C   C30       1.0  0.21793901105614566  0.7689802934252157  0.1342118408397113  1.0000
  C   C31       1.0  0.7842853417789328  0.6605817610889276  0.7129022926274756  1.0000
  C   C32       1.0  0.2157103239420763  0.3394192582269824  0.2870953371119284  1.0000
  C   C33       1.0  0.9066178930730969  0.6777416890715956  0.616200744032305  1.0000
  C   C34       1.0  0.0933809523085003  0.3222603421354436  0.38379755042160457  1.0000
  C   C35       1.0  0.0780707521718895  0.10774777605488595  0.1327777960126184  1.0000
  C   C36       1.0  0.9219311759773278  0.8922482922978434  0.8672226110228319  1.0000
  C   C37       1.0  0.8923282333008726  0.25806618250107505  0.7575076368639416  1.0000
  C   C38       1.0  0.1076727137157931  0.7419348620998037  0.24249200981962818  1.0000
  C   C39       1.0  0.0514469927672607  0.20086482718401308  0.8786878216753634  1.0000
  C   C40       1.0  0.9485551024356269  0.7991421998432672  0.12131200320969517  1.0000
  C   C41       1.0  0.0294131390478469  0.2431452842167019  0.7647036503760775  1.0000
  C   C42       1.0  0.970588963551684  0.7568617419907114  0.2352970210435926  1.0000
  C   C43       1.0  0.07887119272569268  0.06611539294073052  0.2537275133561252  1.0000
  C   C44       1.0  0.9211307215816688  0.9338796790197964  0.7462731005174703  1.0000
  C   C45       1.0  0.8274499663049965  0.07645961708178822  0.31587415701058325  1.0000
  C   C46       1.0  0.17255090410576202  0.9235364463779236  0.6841256773291134  1.0000
  C   C47       1.0  0.9516309036624976  0.050273430125344014  0.346869927673282  1.0000
  C   C48       1.0  0.04837108725077139  0.9497266229763498  0.6531304985441935  1.0000
  N   N1        1.0  0.8027668897417399  0.19124961773768226  0.9758175081333534  1.0000
  N   N2        1.0  0.19723512885524033  0.8087524281484237  0.02418250440783245  1.0000
  N   N3        1.0  0.24946462977004563  0.5630361443929176  0.5331536630114684  1.0000
  N   N4        1.0  0.7505320881956408  0.4369628845720329  0.4668474927038133  1.0000
  N   N5        1.0  0.1500678641640576  0.6444672055439399  0.5288738046042383  1.0000
  N   N6        1.0  0.8499298829049524  0.3555308335615379  0.47112643757572653  1.0000
  N   N7        1.0  0.8268044477091223  0.11628706549340252  0.19962786030652072  1.0000
  N   N8        1.0  0.17319748688530717  0.8837100000713964  0.8003714933561807  1.0000
  O   O1        1.0  0.5559481015781174  0.27681866583935033  0.2669831375483723  1.0000
  O   O2        1.0  0.4440507328159242  0.7231793748797132  0.7330210634657846  1.0000
  O   O3        1.0  0.6231477646691276  0.9105047071170703  0.07239226803864786  1.0000
  O   O4        1.0  0.37685210527344276  0.08949334095458991  0.9276099660674363  1.0000
  O   O5        1.0  0.6662862344986991  0.572994527447463  0.9214148356225562  1.0000
  O   O6        1.0  0.33370732409346  0.42700548323063015  0.07858439516731147  1.0000
  O   O7        1.0  0.5541990317820832  0.9740178040719132  0.2509806977363809  1.0000
  O   O8        1.0  0.4458018737090228  0.02598025135235101  0.7490195694616375  1.0000
  O   O9        1.0  0.7001996519414746  0.4200334560931651  0.11117858025031067  1.0000
  O   O10       1.0  0.2998011888827108  0.5799626106459785  0.8888178679509479  1.0000
  O   O11       1.0  0.4792434126556202  0.20115662995443984  0.06648616050304672  1.0000
  O   O12       1.0  0.520760671544643  0.7988434353928684  0.933512871502117  1.0000
