data_image0
_chemical_formula_structural       Zn2H26C28N6O8
_chemical_formula_sum              "Zn2 H26 C28 N6 O8"
_cell_length_a       9.924593217520885
_cell_length_b       11.00402582427045
_cell_length_c       13.908807489713245
_cell_angle_alpha    88.5870640840245
_cell_angle_beta     101.15904793921766
_cell_angle_gamma    95.24537124087188

_space_group_name_H-M_alt    "P 1"
_space_group_IT_number       1

loop_
  _space_group_symop_operation_xyz
  'x, y, z'

loop_
  _atom_site_type_symbol
  _atom_site_label
  _atom_site_symmetry_multiplicity
  _atom_site_fract_x
  _atom_site_fract_y
  _atom_site_fract_z
  _atom_site_occupancy
  Zn  Zn1       1.0  0.36955775156874177  0.4816643378116083  0.49026190787739665  1.0000
  Zn  Zn2       1.0  0.6683255641907947  0.5077952824630856  0.5106638963975669  1.0000
  H   H1        1.0  0.04800216059224739  0.3741930790727892  0.2890995562476277  1.0000
  H   H2        1.0  0.06223612103651988  0.25297684364129225  0.3781178225736709  1.0000
  H   H3        1.0  0.7352038129097165  0.12470928977315758  0.5694334633151428  1.0000
  H   H4        1.0  0.7333102593646783  0.8984949160641023  0.5741022434377568  1.0000
  H   H5        1.0  0.2635292627051484  0.8676237925947134  0.3167856148654521  1.0000
  H   H6        1.0  0.18791712415277567  0.8525830043521552  0.42392844606752783  1.0000
  H   H7        1.0  0.18792933391745237  0.07803087184868929  0.4316016872257577  1.0000
  H   H8        1.0  0.3558026653165313  0.46392336431324577  0.9658311011370273  1.0000
  H   H9        1.0  0.2214770565747699  0.6030353596114679  0.6191931872714208  1.0000
  H   H10       1.0  0.795508992153259  0.4781003220694728  0.2644460805021751  1.0000
  H   H11       1.0  0.6745835058328495  0.34389593918143646  0.14052617492987451  1.0000
  H   H12       1.0  0.6985509988266897  0.21903204688948105  0.22329778553736188  1.0000
  H   H13       1.0  0.841727064034046  0.28865901612439876  0.17559258976218214  1.0000
  H   H14       1.0  0.8198315592944708  0.266811332865629  0.39727828235307777  1.0000
  H   H15       1.0  0.6716763894581418  0.5934132497965408  0.11554122786289867  1.0000
  H   H16       1.0  0.8814562532063873  0.6725732305332173  0.0658861802924164  1.0000
  H   H17       1.0  0.8127557817659721  0.6220853196346852  0.9441202724233051  1.0000
  H   H18       1.0  0.8706323722475202  0.5140022039326694  0.03708627189806889  1.0000
  H   H19       1.0  0.2857267501088927  0.1987813061772172  0.3031843347360379  1.0000
  H   H20       1.0  0.12147133017877107  0.1397306494544708  0.1630845710719413  1.0000
  H   H21       1.0  0.0346254257597636  0.1101438737990037  0.2638003324762792  1.0000
  H   H22       1.0  0.10296220041760049  0.9894002963621843  0.21103701752200268  1.0000
  H   H23       1.0  0.0829737039003433  0.6776574364115503  0.6919947447912449  1.0000
  H   H24       1.0  0.9121427794173226  0.7363234663281586  0.7583710200941239  1.0000
  H   H25       1.0  0.8419229221138239  0.580661258663376  0.7402198079405551  1.0000
  H   H26       1.0  0.7862833167367497  0.6945824391302721  0.6520949548787555  1.0000
  C   C1        1.0  0.5240988301958609  0.26227187344781555  0.4952238763355083  1.0000
  C   C2        1.0  0.4574020591614597  0.5096746319421612  0.20718109994545839  1.0000
  C   C3        1.0  0.4098813999544646  0.05073934081803339  0.45109611430237345  1.0000
  C   C4        1.0  0.5245422434940464  0.1269105729184048  0.49349747408187733  1.0000
  C   C5        1.0  0.6423771998718592  0.0682912945846823  0.5364898237937297  1.0000
  C   C6        1.0  0.6412305784064358  0.9412810065290959  0.5391598462380429  1.0000
  C   C7        1.0  0.5234179072983308  0.8648520720462826  0.4976669974343011  1.0000
  C   C8        1.0  0.4095390713320127  0.9241227319300338  0.4517932305739905  1.0000
  C   C9        1.0  0.2660781755895982  0.9049257666094163  0.3897595191792789  1.0000
  C   C10       1.0  0.2647286664433394  0.049134973230842094  0.39015168512933934  1.0000
  C   C11       1.0  0.9223494379103983  0.4453476142202177  0.44996090368683633  1.0000
  C   C12       1.0  0.46908005572827677  0.5068986307235193  0.3116160809906674  1.0000
  C   C13       1.0  0.996143224008186  0.5722083698014233  0.5797288985087902  1.0000
  C   C14       1.0  0.1347309284089491  0.5578434515931362  0.568395646415702  1.0000
  C   C15       1.0  0.05628495505793299  0.433321047365382  0.4406609364149361  1.0000
  C   C16       1.0  0.022966747709730798  0.3424804184973382  0.35961131588782536  1.0000
  C   C17       1.0  0.8642029119190723  0.3521542828242872  0.3682005028119804  1.0000
  C   C18       1.0  0.5217468925557895  0.7295226724411492  0.5031770126920208  1.0000
  C   C19       1.0  0.5445509047947182  0.488201644549612  0.691574804311301  1.0000
  C   C20       1.0  0.5610833935235603  0.5015174170891967  0.7966897345756934  1.0000
  C   C21       1.0  0.5666327663352461  0.5352195225722056  0.9841463657383328  1.0000
  C   C22       1.0  0.4465499624546538  0.498348596377042  0.01833587288690099  1.0000
  C   C23       1.0  0.44467043580028337  0.503398976560092  0.11785098332114069  1.0000
  C   C24       1.0  0.5690604849689436  0.5188235039427127  0.8839232773876587  1.0000
  C   C25       1.0  0.7467438878817417  0.3069655434130567  0.20181914495002218  1.0000
  C   C26       1.0  0.8186257257560855  0.598900543698825  0.021944716186318693  1.0000
  C   C27       1.0  0.1223077070459055  0.0864675873533969  0.23097370675901624  1.0000
  C   C28       1.0  0.8751979990459585  0.6646691810597929  0.7037593997422603  1.0000
  N   N1        1.0  0.8847483012072387  0.5136896691364967  0.5185840224408054  1.0000
  N   N2        1.0  0.16600640570661074  0.48854283806062426  0.5005660416023757  1.0000
  N   N3        1.0  0.769669632112631  0.3904833276720225  0.2840540104069262  1.0000
  N   N4        1.0  0.6814645106477498  0.5876749641330933  0.044309038449483765  1.0000
  N   N5        1.0  0.2569239933584199  0.10750347894143174  0.2947333631234059  1.0000
  N   N6        1.0  0.9885535584989568  0.6467814624890879  0.6544944937704926  1.0000
  O   O1        1.0  0.41046742975189676  0.30311198048123333  0.5026194214401869  1.0000
  O   O2        1.0  0.6367506161655851  0.3250408593141572  0.48969537647473516  1.0000
  O   O3        1.0  0.3599668223499036  0.4667110195569536  0.3431135585456175  1.0000
  O   O4        1.0  0.5852345627662386  0.5441160603906569  0.3636414701767805  1.0000
  O   O5        1.0  0.40509437122980063  0.6688341309881949  0.4801146442555718  1.0000
  O   O6        1.0  0.6373827957950907  0.6844422344081379  0.5318660898222021  1.0000
  O   O7        1.0  0.4244289632810946  0.502422062337139  0.6431165690974439  1.0000
  O   O8        1.0  0.6497984263607036  0.4659084403325195  0.6578848771991231  1.0000
