data_image0
_chemical_formula_structural       CoH24C26S2N14
_chemical_formula_sum              "Co1 H24 C26 S2 N14"
_cell_length_a       8.457535575854584
_cell_length_b       8.788480728866741
_cell_length_c       9.58785979324156
_cell_angle_alpha    96.44109498835937
_cell_angle_beta     98.5888677477631
_cell_angle_gamma    96.9486503025715

_space_group_name_H-M_alt    "P 1"
_space_group_IT_number       1

loop_
  _space_group_symop_operation_xyz
  'x, y, z'

loop_
  _atom_site_type_symbol
  _atom_site_label
  _atom_site_symmetry_multiplicity
  _atom_site_fract_x
  _atom_site_fract_y
  _atom_site_fract_z
  _atom_site_occupancy
  Co  Co1       1.0  0.9999992637956154  0.4999981515398489  0.99999949649974  1.0000
  H   H1        1.0  0.6420777486769254  0.06225934767961409  0.23791680392047004  1.0000
  H   H2        1.0  0.357927176347019  0.9377424784145062  0.7620882018862787  1.0000
  H   H3        1.0  0.8385956153221202  0.25813701837759606  0.40688558723998375  1.0000
  H   H4        1.0  0.16140878958985638  0.7418613594076717  0.5931158475389608  1.0000
  H   H5        1.0  0.9459217417963258  0.19284353816418326  0.6473228958723496  1.0000
  H   H6        1.0  0.054086392420948926  0.8071560448913644  0.3526780671553881  1.0000
  H   H7        1.0  0.8478050086514343  0.9437233787513295  0.7199370549954056  1.0000
  H   H8        1.0  0.1522031808158388  0.056276183427677  0.280067041651023  1.0000
  H   H9        1.0  0.5399525084665059  0.7362306681270069  0.6470525937340241  1.0000
  H   H10       1.0  0.4600478624414635  0.26377344270437664  0.3529479562067763  1.0000
  H   H11       1.0  0.5591906829736217  0.6267779283406866  0.4855568786433865  1.0000
  H   H12       1.0  0.4408073111723638  0.3732261475876513  0.5144444311801024  1.0000
  H   H13       1.0  0.42254736474595944  0.7135145824615065  0.31633287634989665  1.0000
  H   H14       1.0  0.5774528696246789  0.2864883650158916  0.6836685723274415  1.0000
  H   H15       1.0  0.4628007980398863  0.838041097979108  0.18941938551051152  1.0000
  H   H16       1.0  0.5372020232967285  0.1619630199199236  0.8105845827058573  1.0000
  H   H17       1.0  0.035255743368587396  0.43938699512266055  0.6598213961343191  1.0000
  H   H18       1.0  0.9647426367634323  0.5606113267198224  0.3401772379233067  1.0000
  H   H19       1.0  0.7240434895668884  0.689562352661902  0.868054169383072  1.0000
  H   H20       1.0  0.2759559700337917  0.31043481283984425  0.1319465502790891  1.0000
  H   H21       1.0  0.6603950981759042  0.31864909796172464  0.1104200391244561  1.0000
  H   H22       1.0  0.3395979138254575  0.6813537796007907  0.8895784665031173  1.0000
  H   H23       1.0  0.8013349829843364  0.798188299409091  0.1373044883159693  1.0000
  H   H24       1.0  0.19866384359298908  0.20181349857763564  0.8626935386111968  1.0000
  C   C1        1.0  0.6888426706798185  0.8607417471957818  0.5213443014349154  1.0000
  C   C2        1.0  0.3111594571741633  0.1392577729581319  0.4786549054110623  1.0000
  C   C3        1.0  0.6318398092779133  0.8942551722076145  0.38430944634865943  1.0000
  C   C4        1.0  0.36816291997536865  0.10574898048566439  0.6156892991698868  1.0000
  C   C5        1.0  0.6858238937179878  0.038104536296088995  0.34512077200024294  1.0000
  C   C6        1.0  0.31418109417661816  0.9618984809874077  0.6548791569117186  1.0000
  C   C7        1.0  0.7972222833010604  0.1468365623050261  0.43883420952159474  1.0000
  C   C8        1.0  0.2027811602629086  0.8531641421338064  0.5611631963767252  1.0000
  C   C9        1.0  0.8569630283028075  0.11102851392062968  0.5730941509734606  1.0000
  C   C10       1.0  0.1430429653938035  0.8889733748575422  0.42690368538477236  1.0000
  C   C11       1.0  0.8023795104476007  0.9693879350700385  0.6139487921343445  1.0000
  C   C12       1.0  0.19762381499570839  0.0306115990559661  0.3860505570400648  1.0000
  C   C13       1.0  0.6243633953840588  0.7128638520860308  0.5731713568004437  1.0000
  C   C14       1.0  0.37563851464527426  0.28713332048336326  0.4268327811372928  1.0000
  C   C15       1.0  0.5197660869345526  0.7780585258388585  0.2741397827308916  1.0000
  C   C16       1.0  0.4802344941773953  0.22194672051110592  0.7258640466316352  1.0000
  C   C17       1.0  0.9403553104622163  0.5064518406105589  0.6811619604451806  1.0000
  C   C18       1.0  0.05963965027248014  0.49354758875190907  0.31883743696973005  1.0000
  C   C19       1.0  0.7847677022662367  0.6336359830364631  0.7896121259304537  1.0000
  C   C20       1.0  0.21522932532246133  0.366361168438786  0.21038621999570492  1.0000
  C   C21       1.0  0.6645119422000576  0.44306560155012414  0.13406316772691443  1.0000
  C   C22       1.0  0.335484526031955  0.5569361545746999  0.8659366636225059  1.0000
  C   C23       1.0  0.739641767302288  0.6847809903259687  0.1467266404669374  1.0000
  C   C24       1.0  0.2603581387436975  0.31521965132002094  0.853273472064764  1.0000
  C   C25       1.0  0.8327894682925177  0.17071741219562847  0.9598901978560336  1.0000
  C   C26       1.0  0.16720009547631073  0.8292680776324205  0.04011015655584771  1.0000
  S   S1        1.0  0.7182103301319884  0.011086122946714703  0.9683483812388829  1.0000
  S   S2        1.0  0.2817861957614128  0.9889075732608464  0.031647438199044635  1.0000
  N   N1        1.0  0.7497170836815954  0.6392327943996604  0.649339613080848  1.0000
  N   N2        1.0  0.2502828591977249  0.3607678333286302  0.3506625885299783  1.0000
  N   N3        1.0  0.8478698310509429  0.5591358755142651  0.5780989920624293  1.0000
  N   N4        1.0  0.15212752486240794  0.4408635817923923  0.421900690009359  1.0000
  N   N5        1.0  0.904810020578573  0.5488879848626952  0.8137010906407767  1.0000
  N   N6        1.0  0.09518478520214302  0.45111028810463694  0.1862981609710985  1.0000
  N   N7        1.0  0.6077595823174491  0.6615381962073386  0.2094445034536889  1.0000
  N   N8        1.0  0.3922394360471984  0.3384647442568181  0.7905557583556373  1.0000
  N   N9        1.0  0.5586808475090875  0.5073180409790226  0.20323714702590218  1.0000
  N   N10       1.0  0.4413145596709214  0.4926848645276891  0.7967616432585487  1.0000
  N   N11       1.0  0.7780850604042514  0.5480071769657825  0.09698238876116963  1.0000
  N   N12       1.0  0.22191227709242867  0.4519922872997313  0.9030162487710527  1.0000
  N   N13       1.0  0.9091260957602074  0.29129343139010194  0.952992956693329  1.0000
  N   N14       1.0  0.09087786791572942  0.7087107213575835  0.0470080202327878  1.0000
