data_image0
_chemical_formula_structural       Ag4P4H68C72Br4N8
_chemical_formula_sum              "Ag4 P4 H68 C72 Br4 N8"
_cell_length_a       8.426353125865283
_cell_length_b       14.023114918124495
_cell_length_c       19.053357919145753
_cell_angle_alpha    89.99980997878941
_cell_angle_beta     90.00044445866476
_cell_angle_gamma    105.31525006679871

_space_group_name_H-M_alt    "P 1"
_space_group_IT_number       1

loop_
  _space_group_symop_operation_xyz
  'x, y, z'

loop_
  _atom_site_type_symbol
  _atom_site_label
  _atom_site_symmetry_multiplicity
  _atom_site_fract_x
  _atom_site_fract_y
  _atom_site_fract_z
  _atom_site_occupancy
  Ag  Ag1       1.0  0.7836637653660148  0.42329947941938434  0.005795087246156101  1.0000
  Ag  Ag2       1.0  0.7163363758330094  0.5766998757777061  0.5057943127671367  1.0000
  Ag  Ag3       1.0  0.21633492899495368  0.5767013583232838  0.9942055210947771  1.0000
  Ag  Ag4       1.0  0.2836589707296043  0.4232987435102872  0.4942057707288684  1.0000
  P   P1        1.0  0.6474892726568271  0.30201168859638744  0.925250252664938  1.0000
  P   P2        1.0  0.8525146071800621  0.6979876310217678  0.425249541415134  1.0000
  P   P3        1.0  0.3525121200780816  0.6979898888708931  0.07475035567973982  1.0000
  P   P4        1.0  0.14748667354671596  0.3020109891640956  0.5747510669329827  1.0000
  H   H1        1.0  0.9294042984777847  0.581965507377305  0.7687693170815493  1.0000
  H   H2        1.0  0.5705910453615601  0.4180341002375628  0.2687714686370057  1.0000
  H   H3        1.0  0.07059018594981135  0.41803385109773933  0.231229191886456  1.0000
  H   H4        1.0  0.4294047379104812  0.5819682156980833  0.7312275651714799  1.0000
  H   H5        1.0  0.7680796261581763  0.48556449518216027  0.8555045243915346  1.0000
  H   H6        1.0  0.7319205076404175  0.5144371707570344  0.3555054216797728  1.0000
  H   H7        1.0  0.23192046772355476  0.5144341248254847  0.1444945094289238  1.0000
  H   H8        1.0  0.26807851142184796  0.48556440635186954  0.6444941369770731  1.0000
  H   H9        1.0  0.9642166856686527  0.6243070926403576  0.6421008392682666  1.0000
  H   H10       1.0  0.5357789256747624  0.3756927491913232  0.1421029745361011  1.0000
  H   H11       1.0  0.035776074515055725  0.3756937442058828  0.3578976696949497  1.0000
  H   H12       1.0  0.46421988068561143  0.6243110458337213  0.857896584117661  1.0000
  H   H13       1.0  0.5739585639570066  0.3880129062778012  0.5871363908643517  1.0000
  H   H14       1.0  0.9260417428864118  0.6119862985673878  0.0871340448585585  1.0000
  H   H15       1.0  0.426045303135588  0.6119834963512645  0.41286421749094165  1.0000
  H   H16       1.0  0.0739579255915288  0.3880167572725455  0.9128649889557251  1.0000
  H   H17       1.0  0.5175034969250589  0.3362003662843095  0.709611356409745  1.0000
  H   H18       1.0  0.9824937743181931  0.6637978723610445  0.2096096029827308  1.0000
  H   H19       1.0  0.4824961602428885  0.6637945570761589  0.2903882022563593  1.0000
  H   H20       1.0  0.017506431576030896  0.3362037049275343  0.7903899556761617  1.0000
  H   H21       1.0  0.5005034370157945  0.306582171720578  0.8135006625115581  1.0000
  H   H22       1.0  0.9994998835671893  0.6934203116721421  0.3135004696425909  1.0000
  H   H23       1.0  0.4995002173705459  0.6934164488251185  0.18649942099878564  1.0000
  H   H24       1.0  0.0004996729157156142  0.30657978688491744  0.6865001387007368  1.0000
  H   H25       1.0  0.4666134115913109  0.39256905886742294  0.8757903062681506  1.0000
  H   H26       1.0  0.033387151734878384  0.6074320022095138  0.37579029046297313  1.0000
  H   H27       1.0  0.5333866822904199  0.6074295611402221  0.12420872755230761  1.0000
  H   H28       1.0  0.9666108932016825  0.3925673568030915  0.6242097930367835  1.0000
  H   H29       1.0  0.6213100532689778  0.205626911304627  0.7832753514258999  1.0000
  H   H30       1.0  0.8786868305865525  0.7943756269923342  0.2832750189722688  1.0000
  H   H31       1.0  0.37869338841110084  0.7943739271576932  0.2167242072394799  1.0000
  H   H32       1.0  0.12131186377441594  0.20562521075032697  0.7167255893686645  1.0000
  H   H33       1.0  0.7750441805117917  0.09756221885951531  0.7291236146963059  1.0000
  H   H34       1.0  0.7249440325391349  0.9024389396039967  0.2291240612883456  1.0000
  H   H35       1.0  0.2249580743363282  0.9024386194231369  0.2708759439670275  1.0000
  H   H36       1.0  0.2750447304610972  0.09755820005315029  0.7708781215655948  1.0000
  H   H37       1.0  0.9997770571919842  0.052757396908894805  0.7948363588473414  1.0000
  H   H38       1.0  0.5002183953718884  0.9472414232142867  0.29483959402888626  1.0000
  H   H39       1.0  0.00022336140413158035  0.9472419624635363  0.2051631998146348  1.0000
  H   H40       1.0  0.49977565238555144  0.05275423860873471  0.7051646882034676  1.0000
  H   H41       1.0  0.08024546081878009  0.12505405624489901  0.9134893592147151  1.0000
  H   H42       1.0  0.41975766631554734  0.8749432389410218  0.4134926447790974  1.0000
  H   H43       1.0  0.9197537709497324  0.8749453029473814  0.0865107242870877  1.0000
  H   H44       1.0  0.580239941942132  0.12505242342053444  0.5865121623012685  1.0000
  H   H45       1.0  0.9272056284319417  0.23434372810015702  0.9682999229215952  1.0000
  H   H46       1.0  0.5728057635136493  0.7656547737488991  0.4683022793135336  1.0000
  H   H47       1.0  0.07279781325249977  0.7656571103616802  0.03170016058565751  1.0000
  H   H48       1.0  0.4271984283107813  0.23434236824301286  0.5317009532507626  1.0000
  H   H49       1.0  0.5144961127079596  0.08046140183217432  0.9186771752879396  1.0000
  H   H50       1.0  0.9855071204409924  0.9195394084703138  0.4186784789968954  1.0000
  H   H51       1.0  0.4855064668283689  0.9195401758181704  0.0813197591657016  1.0000
  H   H52       1.0  0.014493510861385107  0.0804577329854865  0.5813216045100376  1.0000
  H   H53       1.0  0.28129788640288933  0.967248288778265  0.98119274982637  1.0000
  H   H54       1.0  0.2187044294981177  0.032752577701515406  0.4811942578868766  1.0000
  H   H55       1.0  0.7187038310114957  0.032754028057681205  0.0188041846248765  1.0000
  H   H56       1.0  0.7812944775516544  0.9672460421264618  0.5188047759315282  1.0000
  H   H57       1.0  0.1025319589278482  0.035279366827921904  0.0598431284963681  1.0000
  H   H58       1.0  0.3974724089834894  0.9647185823457178  0.559844126862302  1.0000
  H   H59       1.0  0.8974691090621364  0.9647214712779617  0.9401532811137017  1.0000
  H   H60       1.0  0.6025271474819647  0.0352815162132813  0.44015438211354047  1.0000
  H   H61       1.0  0.1549565426752793  0.21888757574694043  0.0737518282107459  1.0000
  H   H62       1.0  0.34505194170886017  0.7811110876522636  0.5737530959479287  1.0000
  H   H63       1.0  0.845044200617771  0.7811125229922169  0.926246155925277  1.0000
  H   H64       1.0  0.6549494510304115  0.2188904898145267  0.42624803723862204  1.0000
  H   H65       1.0  0.3884634766372698  0.3310402699866728  0.0139306172138802  1.0000
  H   H66       1.0  0.11154433777183938  0.6689592432226662  0.5139297797316332  1.0000
  H   H67       1.0  0.6115370539713396  0.6689620466666925  0.9860694662865371  1.0000
  H   H68       1.0  0.8884589919132039  0.3310386379567873  0.48607135346279057  1.0000
  C   C1        1.0  0.8472956083134661  0.5374477615624258  0.7298999659571024  1.0000
  C   C2        1.0  0.6527093453042099  0.4625563552643187  0.2299007171461298  1.0000
  C   C3        1.0  0.15270643381094123  0.4625552946387899  0.2700969684937959  1.0000
  C   C4        1.0  0.34728827422419783  0.5374474395810581  0.770098841505579  1.0000
  C   C5        1.0  0.8665398865185238  0.5608367873760045  0.6594541201632751  1.0000
  C   C6        1.0  0.6334505046049017  0.4391585856874374  0.1594559119751011  1.0000
  C   C7        1.0  0.13345146284315493  0.4391581347248277  0.3405475378559757  1.0000
  C   C8        1.0  0.3665467902178463  0.5608444697921868  0.8405441715188289  1.0000
  C   C9        1.0  0.6501079135547982  0.4292242647106833  0.6291002034269868  1.0000
  C   C10       1.0  0.8498811107191743  0.5707719035807771  0.12909927023759593  1.0000
  C   C11       1.0  0.34988613418518355  0.5707713971142852  0.3709019794378889  1.0000
  C   C12       1.0  0.1501158593935515  0.4292304125335706  0.8709008132566751  1.0000
  C   C13       1.0  0.6196705182255683  0.400104585010638  0.6982585998292237  1.0000
  C   C14       1.0  0.8803401681277663  0.5999003304990468  0.1982566505982462  1.0000
  C   C15       1.0  0.38033864489496955  0.5998984722681229  0.30173885947583307  1.0000
  C   C16       1.0  0.11966089988839464  0.4001005076039307  0.8017429080630407  1.0000
  C   C17       1.0  0.7174662464648448  0.45603751486284244  0.7519006881362316  1.0000
  C   C18       1.0  0.7825201730364029  0.5439532507942816  0.2519016876485126  1.0000
  C   C19       1.0  0.28252196779600786  0.5439529708676575  0.2480999201993086  1.0000
  C   C20       1.0  0.21747819660581771  0.4560468475840835  0.7480978710090228  1.0000
  C   C21       1.0  0.561831578096708  0.36142132102578023  0.8525100979079951  1.0000
  C   C22       1.0  0.938167856487155  0.6385788717118289  0.3525103527434652  1.0000
  C   C23       1.0  0.43816970263007704  0.6385772991600832  0.14749051044012162  1.0000
  C   C24       1.0  0.06183051316815379  0.3614212266650796  0.6474907804396821  1.0000
  C   C25       1.0  0.7607269235323811  0.22557175742819166  0.8805140704399576  1.0000
  C   C26       1.0  0.7392738388008482  0.7744276444228648  0.3805138306881447  1.0000
  C   C27       1.0  0.23927565603885642  0.7744298202182736  0.11948706274863952  1.0000
  C   C28       1.0  0.26072593038831127  0.22557023621757116  0.6194873025001402  1.0000
  C   C29       1.0  0.7206723400573977  0.18791090801580174  0.8126530434053337  1.0000
  C   C30       1.0  0.7793289174823882  0.8120923159472468  0.31265337434610535  1.0000
  C   C31       1.0  0.2793284032487407  0.8120891907218991  0.1873465152562943  1.0000
  C   C32       1.0  0.2206701016016908  0.1879092611592341  0.6873488085200847  1.0000
  C   C33       1.0  0.8070658425941204  0.12646318811916762  0.7818964845340658  1.0000
  C   C34       1.0  0.6929306936306502  0.8735386133575248  0.28189689152129205  1.0000
  C   C35       1.0  0.192939972754246  0.8735376507020121  0.2181035989772795  1.0000
  C   C36       1.0  0.30707112450804885  0.12645852827746756  0.7181037168295603  1.0000
  C   C37       1.0  0.9345086509290467  0.10217151570553543  0.8185810815365215  1.0000
  C   C38       1.0  0.5654851474866333  0.897827999586326  0.3185836134174025  1.0000
  C   C39       1.0  0.06548788245680738  0.897827103763092  0.18141795227779772  1.0000
  C   C40       1.0  0.43450351483728156  0.10217431526644564  0.6814206687975003  1.0000
  C   C41       1.0  0.9782780120785617  0.14161911631879318  0.885257544688706  1.0000
  C   C42       1.0  0.5217260649432022  0.8583795379450552  0.3852610719812546  1.0000
  C   C43       1.0  0.021725967026526405  0.8583802435912062  0.1147435885050285  1.0000
  C   C44       1.0  0.4782754285203837  0.14161686432078824  0.6147437351049092  1.0000
  C   C45       1.0  0.8915148421123008  0.20266015605238863  0.9163783436786304  1.0000
  C   C46       1.0  0.6084924507213925  0.7973391804823391  0.41637969583381124  1.0000
  C   C47       1.0  0.10848601318451066  0.7973428999686691  0.0836191156120876  1.0000
  C   C48       1.0  0.3915064563632882  0.2026594393417583  0.583623536719557  1.0000
  C   C49       1.0  0.4677799690578509  0.2135385834993073  0.9618483243785434  1.0000
  C   C50       1.0  0.032224398857494126  0.7864623190541807  0.4618494400492281  1.0000
  C   C51       1.0  0.5322232599203361  0.7864644728791603  0.0381512342837524  1.0000
  C   C52       1.0  0.9677801176595082  0.21353556230494766  0.5381516931472419  1.0000
  C   C53       1.0  0.43545898673625766  0.11084343016817401  0.9524253836006268  1.0000
  C   C54       1.0  0.06454878500409943  0.8891574903202797  0.45242740864875225  1.0000
  C   C55       1.0  0.5645406817373201  0.8891596256722425  0.04757312537178391  1.0000
  C   C56       1.0  0.9354557315172655  0.11084039103835859  0.5475742493895908  1.0000
  C   C57       1.0  0.30419951158130226  0.0470486396871195  0.9877843569887546  1.0000
  C   C58       1.0  0.19580291392298935  0.9529522146228546  0.48778615365723976  1.0000
  C   C59       1.0  0.6958072778578597  0.9529544172342387  0.0122110029447242  1.0000
  C   C60       1.0  0.804192757340921  0.0470471440313744  0.512212880154678  1.0000
  C   C61       1.0  0.20393085035780698  0.08522076033989381  0.0320292473002368  1.0000
  C   C62       1.0  0.29607424191712556  0.9147772403635985  0.5320305431001202  1.0000
  C   C63       1.0  0.7960662204486868  0.9147763805768891  0.967970836200557  1.0000
  C   C64       1.0  0.7039298491917235  0.08522507682830142  0.4679700652483092  1.0000
  C   C65       1.0  0.23355437291804293  0.1874512156686522  0.0404995960000605  1.0000
  C   C66       1.0  0.2664515096131624  0.8125482481276337  0.540500515437877  1.0000
  C   C67       1.0  0.7664488560383236  0.8125518407122387  0.9594973384528842  1.0000
  C   C68       1.0  0.733551282655597  0.18745111160317418  0.45950009291193794  1.0000
  C   C69       1.0  0.3651302025054973  0.25132589945123124  0.0059315597578546  1.0000
  C   C70       1.0  0.1348769415095177  0.7486751070746607  0.5059332315126568  1.0000
  C   C71       1.0  0.6348673050147796  0.7486749381127354  0.9940679988972861  1.0000
  C   C72       1.0  0.865127362318681  0.25132499219915166  0.4940694762063345  1.0000
  Br  Br1       1.0  0.0761086017466752  0.39752990841173386  0.0642633818119407  1.0000
  Br  Br2       1.0  0.4238941154085225  0.6024695109733924  0.5642632603166291  1.0000
  Br  Br3       1.0  0.9238906300131189  0.6024694507815125  0.9357356520061231  1.0000
  Br  Br4       1.0  0.5761051163556346  0.3975298482193638  0.4357362983433006  1.0000
  N   N1        1.0  0.769204795829367  0.508949462709495  0.6083323183502642  1.0000
  N   N2        1.0  0.7307983491366555  0.49105266064210445  0.1083322194232608  1.0000
  N   N3        1.0  0.2307977837244124  0.49105211493890977  0.39166671547084775  1.0000
  N   N4        1.0  0.2692007819293707  0.5089518737486997  0.8916668143882802  1.0000
  N   N5        1.0  0.6942315035694762  0.4362897569820561  0.8214170276290105  1.0000
  N   N6        1.0  0.8057759458396204  0.5637164089828203  0.3214149098525709  1.0000
  N   N7        1.0  0.3057728002281764  0.5637103422951455  0.1785820061968906  1.0000
  N   N8        1.0  0.1942249094833741  0.43628664703533104  0.6785856984893712  1.0000
