data_image0
_chemical_formula_structural       Cd3H34C48N8O18
_chemical_formula_sum              "Cd3 H34 C48 N8 O18"
_cell_length_a       8.917199578289493
_cell_length_b       10.047282421107257
_cell_length_c       14.393459942311805
_cell_angle_alpha    75.7612625512118
_cell_angle_beta     92.00661809382939
_cell_angle_gamma    70.7742513918961

_space_group_name_H-M_alt    "P 1"
_space_group_IT_number       1

loop_
  _space_group_symop_operation_xyz
  'x, y, z'

loop_
  _atom_site_type_symbol
  _atom_site_label
  _atom_site_symmetry_multiplicity
  _atom_site_fract_x
  _atom_site_fract_y
  _atom_site_fract_z
  _atom_site_occupancy
  Cd  Cd1       1.0  0.9999899579370537  0.9999990433524603  0.9999968925532983  1.0000
  Cd  Cd2       1.0  0.38142891015130687  0.43800686544192763  0.0951272869027875  1.0000
  Cd  Cd3       1.0  0.6185617866612885  0.5619786764439924  0.9048747869328082  1.0000
  H   H1        1.0  0.9915622495928036  0.1692886159513805  0.7501430752810662  1.0000
  H   H2        1.0  0.00843649855310951  0.8307141303981  0.24984422742564763  1.0000
  H   H3        1.0  0.6954031944469747  0.35092265421516095  0.1354433906279056  1.0000
  H   H4        1.0  0.30459026366241204  0.6490714642057468  0.8645613716219884  1.0000
  H   H5        1.0  0.6900905721567341  0.19831460748305574  0.12273053707213681  1.0000
  H   H6        1.0  0.30990074147327124  0.8016817722762254  0.8772682569505079  1.0000
  H   H7        1.0  0.08495153934607912  0.036341400796438016  0.21873948177593408  1.0000
  H   H8        1.0  0.9150452680335879  0.9636603224063551  0.7812465977550573  1.0000
  H   H9        1.0  0.02147847866992688  0.4934696967392683  0.10372198171094736  1.0000
  H   H10       1.0  0.9785144330880441  0.5065352955864101  0.8962787922684541  1.0000
  H   H11       1.0  0.8397654524945751  0.555468156094321  0.22601402168194798  1.0000
  H   H12       1.0  0.16023302674676643  0.444531227169648  0.7739933265747823  1.0000
  H   H13       1.0  0.6365348635481994  0.47876622149085074  0.3149654290705541  1.0000
  H   H14       1.0  0.36348629345631867  0.5212097836771362  0.6850426689128922  1.0000
  H   H15       1.0  0.7845024334527362  0.3933550589373668  0.41827686278332976  1.0000
  H   H16       1.0  0.2154981956536375  0.6066172450053672  0.5817192455058375  1.0000
  H   H17       1.0  0.6785846375573072  0.2908227895944791  0.3778086634718391  1.0000
  H   H18       1.0  0.3214237886014786  0.7091720741000245  0.6221842461557471  1.0000
  H   H19       1.0  0.9050883219947181  0.09805438730974461  0.3404527322034951  1.0000
  H   H20       1.0  0.09492231289699767  0.9019252017060067  0.6595477248183456  1.0000
  H   H21       1.0  0.48084204512132794  0.8218883521824126  0.7413175819822868  1.0000
  H   H22       1.0  0.5191769379143096  0.17810395309791724  0.2586925194494611  1.0000
  H   H23       1.0  0.7965825985033135  0.813561713548964  0.5179036366341521  1.0000
  H   H24       1.0  0.20343445246963648  0.18644907115128007  0.48210530901685905  1.0000
  H   H25       1.0  0.7292284500511454  0.08201925770193702  0.4867549372873867  1.0000
  H   H26       1.0  0.27076883653186457  0.9179942003674099  0.5132596741873527  1.0000
  H   H27       1.0  0.41300049085663904  0.0880475197305088  0.707909139818959  1.0000
  H   H28       1.0  0.5870156884835396  0.9119437485946097  0.2921059903951857  1.0000
  H   H29       1.0  0.5123945204120091  0.29184212440727464  0.6494759750206781  1.0000
  H   H30       1.0  0.48759393895478087  0.7081552891999439  0.35054416530321214  1.0000
  H   H31       1.0  0.4139473757375711  0.3288637885928766  0.5323302520660603  1.0000
  H   H32       1.0  0.5860353017725046  0.671152272336407  0.46767825460566576  1.0000
  H   H33       1.0  0.621756913521402  0.30182185160606423  0.54668823302287  1.0000
  H   H34       1.0  0.37824379606558983  0.6981882587399469  0.453326984501942  1.0000
  C   C1        1.0  0.27684508573421596  0.12031825019678881  0.9728043586858773  1.0000
  C   C2        1.0  0.7231423845563539  0.8796815470617502  0.027184084704757187  1.0000
  C   C3        1.0  0.3248205172634683  0.2447514564762089  0.9710275459589681  1.0000
  C   C4        1.0  0.6751723875054483  0.7552362524623889  0.02896443306389073  1.0000
  C   C5        1.0  0.03125606194875988  0.14955618926625652  0.22105948071311587  1.0000
  C   C6        1.0  0.9687477797517163  0.8504442773625203  0.7789233868452854  1.0000
  C   C7        1.0  0.06330508772266805  0.260889305458285  0.15229098813905037  1.0000
  C   C8        1.0  0.9366962140434154  0.7391068297622284  0.8477030453364306  1.0000
  C   C9        1.0  0.9977357091576949  0.4075260894797027  0.15705632654504598  1.0000
  C   C10       1.0  0.0022720165663870297  0.5924612008905258  0.8429379020102203  1.0000
  C   C11       1.0  0.896505567273252  0.4417918487515848  0.2249874313652569  1.0000
  C   C12       1.0  0.10350875189239865  0.558196320639695  0.775010854195898  1.0000
  C   C13       1.0  0.8569598227275678  0.33232676813869944  0.2905067335602425  1.0000
  C   C14       1.0  0.14303181471142778  0.6676663071995464  0.709499589680206  1.0000
  C   C15       1.0  0.7315823990290866  0.37571269330599943  0.3538973230243343  1.0000
  C   C16       1.0  0.2684109608393328  0.6242759712902668  0.6461139514229969  1.0000
  C   C17       1.0  0.425299674389187  0.31588440292751596  0.9088629027953486  1.0000
  C   C18       1.0  0.5746937983438797  0.6841184338671128  0.09113338637183688  1.0000
  C   C19       1.0  0.3248837687041828  0.004576145027101604  0.921435181206185  1.0000
  C   C20       1.0  0.6751023071715635  0.9954117551799797  0.0785560272792338  1.0000
  C   C21       1.0  0.7041562971732063  0.6416870839893108  0.6599316826054532  1.0000
  C   C22       1.0  0.29585570684945134  0.3583054374794727  0.3400741680810242  1.0000
  C   C23       1.0  0.846428264698787  0.4224964808499577  0.6581944445121904  1.0000
  C   C24       1.0  0.1535845590778066  0.5775210357385634  0.3417952292058857  1.0000
  C   C25       1.0  0.7938882842792124  0.41999760216160825  0.7528805292066635  1.0000
  C   C26       1.0  0.20609506310713507  0.5800120032859652  0.24711729477870392  1.0000
  C   C27       1.0  0.841842105947478  0.3024063577831769  0.8460218652191216  1.0000
  C   C28       1.0  0.15815452602850383  0.6975964257411678  0.1539688928634675  1.0000
  C   C29       1.0  0.9513153709124258  0.30293964548481966  0.6196128106325531  1.0000
  C   C30       1.0  0.04869040563418281  0.6970726284835181  0.38037982057926467  1.0000
  C   C31       1.0  0.6442871714009469  0.7983211725073931  0.6323591235908025  1.0000
  C   C32       1.0  0.3557192227396797  0.20168449760286936  0.3676478700150483  1.0000
  C   C33       1.0  0.931872010867572  0.18505759329402593  0.2897107695753575  1.0000
  C   C34       1.0  0.06814697980268392  0.8149261469729511  0.7102820638171323  1.0000
  C   C35       1.0  0.5347392362543886  0.878695201221447  0.6855003561816488  1.0000
  C   C36       1.0  0.4652654766754409  0.12131915466148514  0.31451136429929955  1.0000
  C   C37       1.0  0.7085923509220818  0.8757471361404331  0.5565322810923021  1.0000
  C   C38       1.0  0.291418421472585  0.12427143807254036  0.44347109488576547  1.0000
  C   C39       1.0  0.5649622860394672  0.10510094018750492  0.593863878844779  1.0000
  C   C40       1.0  0.4350354203445406  0.8948984143159465  0.40615180949476576  1.0000
  C   C41       1.0  0.6718163936797056  0.025093867494270203  0.540411869422563  1.0000
  C   C42       1.0  0.32818219724624925  0.974931502578514  0.45959788883268965  1.0000
  C   C43       1.0  0.49496241029756055  0.028052788607844496  0.6656997394584253  1.0000
  C   C44       1.0  0.5050334664703441  0.9719574957677612  0.3343084679868156  1.0000
  C   C45       1.0  0.5286085354817374  0.26483551351622486  0.5801057349675671  1.0000
  C   C46       1.0  0.47138955001909727  0.7351594961806215  0.4199100198719279  1.0000
  C   C47       1.0  0.15883353674401945  0.22782477330846979  0.07733037246044458  1.0000
  C   C48       1.0  0.8411510762577451  0.7721772465599415  0.9226618348688902  1.0000
  N   N1        1.0  0.17311377064538652  0.11423306067052151  0.0386368148109426  1.0000
  N   N2        1.0  0.8268809528372786  0.8857849476926417  0.9613533562930456  1.0000
  N   N3        1.0  0.24766097088202335  0.30986060976606933  0.035524277426233694  1.0000
  N   N4        1.0  0.7523278876109174  0.690116359425403  0.9644702481200723  1.0000
  N   N5        1.0  0.7014298213100645  0.5565301397186958  0.7510956719353528  1.0000
  N   N6        1.0  0.2985484868916616  0.4434610441530539  0.248925494249022  1.0000
  N   N7        1.0  0.7901330840746679  0.5608559829309955  0.602709952728361  1.0000
  N   N8        1.0  0.20990325261933412  0.4391544273235652  0.3972734628722989  1.0000
  O   O1        1.0  0.4605764536240429  0.2854658526518747  0.8320778759624543  1.0000
  O   O2        1.0  0.5394400204390518  0.7145417771471544  0.16791771765937105  1.0000
  O   O3        1.0  0.45768842356213213  0.41439828126598144  0.9414683841172788  1.0000
  O   O4        1.0  0.5422915844375354  0.5856114073558489  0.05853079470328028  1.0000
  O   O5        1.0  0.9664523375339653  0.32316415804363885  0.5334650295531063  1.0000
  O   O6        1.0  0.033561788871061475  0.6768630513687982  0.46652851850705446  1.0000
  O   O7        1.0  0.029733213649151918  0.17350364733515994  0.6831093959717549  1.0000
  O   O8        1.0  0.9702588214938145  0.8265122737192173  0.31687973327991864  1.0000
  O   O9        1.0  0.9199288199369848  0.17159177571445383  0.8429723157596953  1.0000
  O   O10       1.0  0.08006686720698755  0.8284164777299594  0.1570140058341707  1.0000
  O   O11       1.0  0.8115501634080786  0.3352008439543895  0.9243351118955585  1.0000
  O   O12       1.0  0.18845553372685225  0.6648016911906327  0.07565574551485099  1.0000
  O   O13       1.0  0.22672405519556083  0.9357975874191528  0.9159336286763206  1.0000
  O   O14       1.0  0.7732615497769686  0.06419245336699221  0.08406415274601639  1.0000
  O   O15       1.0  0.45914647489016847  0.9745131523727014  0.8916785836773541  1.0000
  O   O16       1.0  0.5408420945578313  0.025468146673389903  0.10831796349370389  1.0000
  O   O17       1.0  0.6369020578292394  0.28337623025579006  0.1514026039071652  1.0000
  O   O18       1.0  0.36309443297263044  0.7166146052337014  0.8485937158524449  1.0000
