data_image0
_chemical_formula_structural       Cd2H44C56N8O8
_chemical_formula_sum              "Cd2 H44 C56 N8 O8"
_cell_length_a       9.610274043755785
_cell_length_b       12.976521891316148
_cell_length_c       13.673022314687724
_cell_angle_alpha    117.2861560993789
_cell_angle_beta     94.60002504407095
_cell_angle_gamma    102.90495880864547

_space_group_name_H-M_alt    "P 1"
_space_group_IT_number       1

loop_
  _space_group_symop_operation_xyz
  'x, y, z'

loop_
  _atom_site_type_symbol
  _atom_site_label
  _atom_site_symmetry_multiplicity
  _atom_site_fract_x
  _atom_site_fract_y
  _atom_site_fract_z
  _atom_site_occupancy
  Cd  Cd1       1.0  0.4977556394986848  0.8499702714195718  0.47654378221062643  1.0000
  Cd  Cd2       1.0  0.502241860254543  0.1500296761908615  0.5234565359932335  1.0000
  H   H1        1.0  0.4379052987628569  0.23824269205407234  0.3444988693469357  1.0000
  H   H2        1.0  0.5620960494269127  0.7617563373329546  0.6555019960471145  1.0000
  H   H3        1.0  0.7417254310997878  0.5830257202889585  0.4363807885752779  1.0000
  H   H4        1.0  0.2582738477489102  0.4169733421381636  0.5636170468180597  1.0000
  H   H5        1.0  0.8559325897135326  0.5854534677619228  0.6106813988472198  1.0000
  H   H6        1.0  0.14406837141740433  0.4145474000956638  0.3893180620628841  1.0000
  H   H7        1.0  0.7490454884712463  0.41036899271755095  0.6411892861062685  1.0000
  H   H8        1.0  0.25095433670121287  0.5896345744295743  0.3588134958044977  1.0000
  H   H9        1.0  0.547958584197616  0.4924921568093055  0.27157409478962796  1.0000
  H   H10       1.0  0.4520410906593213  0.5075050828358059  0.72842368974019  1.0000
  H   H11       1.0  0.3714252724513045  0.423967955763949  0.127374771978026  1.0000
  H   H12       1.0  0.6285722183525239  0.5760319761579353  0.8726270015733137  1.0000
  H   H13       1.0  0.21344323999989007  0.309170840909708  0.10830475438655901  1.0000
  H   H14       1.0  0.7865536121416385  0.6908272847502133  0.8916954533008978  1.0000
  H   H15       1.0  0.508456787859487  0.1810327292932641  0.0778646486109551  1.0000
  H   H16       1.0  0.4915424730904123  0.818966301756767  0.9221360974773349  1.0000
  H   H17       1.0  0.5634780400725461  0.04611731810825151  0.8942608571349456  1.0000
  H   H18       1.0  0.4365211330135212  0.9538844192440977  0.10574254193315369  1.0000
  H   H19       1.0  0.2828627946083416  0.15524664470392932  0.7246004882669796  1.0000
  H   H20       1.0  0.7171337359646871  0.8447505739028786  0.27539930032540383  1.0000
  H   H21       1.0  0.2243118303308763  0.28811038271075523  0.9066934103329347  1.0000
  H   H22       1.0  0.7756853433791521  0.7118886500022867  0.09330721644958832  1.0000
  H   H23       1.0  0.21577260060760045  0.9756669731189617  0.3346951769235389  1.0000
  H   H24       1.0  0.7842256956368062  0.024329336771721395  0.6653043118795383  1.0000
  H   H25       1.0  0.9456574777118052  0.9491731359390342  0.29778928665433574  1.0000
  H   H26       1.0  0.054341061186661904  0.05082680299562272  0.7022118188761441  1.0000
  H   H27       1.0  0.8434417995025004  0.09829801869791772  0.44226386656342964  1.0000
  H   H28       1.0  0.15655811353379792  0.9017028421468963  0.5577362623675272  1.0000
  H   H29       1.0  0.2845519357578752  0.2866166614379111  0.6407220530068971  1.0000
  H   H30       1.0  0.7154487692948949  0.7133805538428819  0.3592779741970064  1.0000
  H   H31       1.0  0.8921554353303308  0.2816741480270011  0.640241429010807  1.0000
  H   H32       1.0  0.10784518633330015  0.7183257814003741  0.35976052349916915  1.0000
  H   H33       1.0  0.06037212459029462  0.5753151654315047  0.7647982039892159  1.0000
  H   H34       1.0  0.9396271676825023  0.4246839205284445  0.23519744838290532  1.0000
  H   H35       1.0  0.9307155137286147  0.4680715101322336  0.7841783444657512  1.0000
  H   H36       1.0  0.06928504691938296  0.531931172663093  0.21582189498161608  1.0000
  H   H37       1.0  0.9898339242068562  0.6614138651717525  0.9774729521502866  1.0000
  H   H38       1.0  0.010176615616622111  0.3385933854585019  0.022526221626805027  1.0000
  H   H39       1.0  0.12355928325091989  0.7487893716736168  0.17468308187956455  1.0000
  H   H40       1.0  0.8764488388147882  0.2512169578779861  0.8253170088441666  1.0000
  H   H41       1.0  0.42913993307394804  0.5479896559060649  0.05554985579100705  1.0000
  H   H42       1.0  0.5708590896965902  0.45200575394427034  0.944448545896137  1.0000
  H   H43       1.0  0.29615788240672464  0.4594974089856194  0.8568898020797068  1.0000
  H   H44       1.0  0.7038431531639447  0.5405007290368431  0.14310918887179724  1.0000
  C   C1        1.0  0.5289937481168607  0.3172426484008994  0.4023364821715633  1.0000
  C   C2        1.0  0.47100583440153804  0.6827572897022521  0.5976646830118001  1.0000
  C   C3        1.0  0.5782679747472131  0.4123902675054438  0.37927792356627793  1.0000
  C   C4        1.0  0.42173338239195624  0.5876087775701323  0.6207214864802996  1.0000
  C   C5        1.0  0.6990072904514265  0.5097754874223027  0.4542517065606477  1.0000
  C   C6        1.0  0.3009944671706819  0.4902217427155405  0.5457469249486665  1.0000
  C   C7        1.0  0.7633518718112953  0.5103155563565879  0.5495354976689841  1.0000
  C   C8        1.0  0.23664876775114155  0.48968440444788547  0.4504635441460466  1.0000
  C   C9        1.0  0.7052443074082149  0.4132995914836712  0.5668615366542726  1.0000
  C   C10       1.0  0.29475422701554527  0.5867003396067078  0.4331402965499438  1.0000
  C   C11       1.0  0.5049020405845327  0.41143374786931036  0.2803248349908572  1.0000
  C   C12       1.0  0.4950993165546436  0.5885652972062658  0.71967457505572  1.0000
  C   C13       1.0  0.33282780285439634  0.330861957051944  0.11486437256465366  1.0000
  C   C14       1.0  0.6671683272357  0.6691370764925963  0.8851361945649929  1.0000
  C   C15       1.0  0.3625615761859963  0.24311706617580606  0.004492045165200444  1.0000
  C   C16       1.0  0.6374376103241631  0.756884694709356  0.9955091708816826  1.0000
  C   C17       1.0  0.45792878754142663  0.17453140686207294  0.00020145171203010863  1.0000
  C   C18       1.0  0.5420731338203026  0.8254721743105974  0.9997999941570231  1.0000
  C   C19       1.0  0.4886536681503983  0.09913172834873049  0.8979266020655107  1.0000
  C   C20       1.0  0.5113482487366384  0.9008718449796689  0.10207557147727905  1.0000
  C   C21       1.0  0.42528973321137903  0.091199785217789  0.7977574885462178  1.0000
  C   C22       1.0  0.574711540538651  0.9088019740043695  0.20224384680643245  1.0000
  C   C23       1.0  0.3292469056531644  0.15946813596122672  0.8020651005727831  1.0000
  C   C24       1.0  0.6707543725715726  0.8405336311052026  0.19793550710613067  1.0000
  C   C25       1.0  0.2975425638795387  0.23390934387933981  0.9040400232713569  1.0000
  C   C26       1.0  0.7024576662505595  0.7660924161743239  0.0959612524284097  1.0000
  C   C27       1.0  0.4626272169825043  0.011966093340262792  0.6896044817880668  1.0000
  C   C28       1.0  0.5373689875473249  0.9880302103691536  0.3103956153829801  1.0000
  C   C29       1.0  0.1660296329640261  0.0387499484612164  0.3942860965967015  1.0000
  C   C30       1.0  0.8339689848488732  0.9612472684825872  0.605713811301442  1.0000
  C   C31       1.0  0.017040183604031305  0.025370555582370006  0.37490958097271243  1.0000
  C   C32       1.0  0.9829604514837059  0.974629397377832  0.6250901885160547  1.0000
  C   C33       1.0  0.9609067078219553  0.10987467822421594  0.4545989231468683  1.0000
  C   C34       1.0  0.039092166069110694  0.890126191296375  0.5454004184574689  1.0000
  C   C35       1.0  0.0578274814669584  0.2085399599892952  0.5510146886469303  1.0000
  C   C36       1.0  0.9421738101818775  0.7914618306099538  0.4489837360107672  1.0000
  C   C37       1.0  0.20589098274597725  0.21420389191041528  0.5650265856829224  1.0000
  C   C38       1.0  0.794107248008082  0.7857951635039413  0.4349719177312681  1.0000
  C   C39       1.0  0.008779485467812312  0.3047098327980464  0.6364549700185196  1.0000
  C   C40       1.0  0.9912204275684859  0.6952910280467678  0.36354515891243744  1.0000
  C   C41       1.0  0.047935117585687755  0.5012898729376332  0.7856452170886573  1.0000
  C   C42       1.0  0.9520661695884414  0.4987119098173451  0.21435393524277663  1.0000
  C   C43       1.0  0.13397682818065706  0.5541694811972917  0.9041429142073558  1.0000
  C   C44       1.0  0.8660279203711809  0.44583322180484697  0.09585538083032225  1.0000
  C   C45       1.0  0.08665447386153605  0.6364320211838931  0.9943290633160448  1.0000
  C   C46       1.0  0.9133557443934424  0.36357432239324794  0.005669691365973508  1.0000
  C   C47       1.0  0.16030697152120882  0.6848691254112255  0.1046011191103561  1.0000
  C   C48       1.0  0.8397001024498678  0.3151371971276049  0.8953996396342351  1.0000
  C   C49       1.0  0.2834646454683068  0.6518518610061791  0.12747171591500728  1.0000
  C   C50       1.0  0.716540816185571  0.34814991842278425  0.8725276750279536  1.0000
  C   C51       1.0  0.33169029050363014  0.5710842873494145  0.037280271214299936  1.0000
  C   C52       1.0  0.6683113882040389  0.428915664779275  0.9627195579273508  1.0000
  C   C53       1.0  0.257815248359556  0.5224445168087044  0.9266155446970361  1.0000
  C   C54       1.0  0.7421874739680518  0.4775554344884867  0.07338434409749081  1.0000
  C   C55       1.0  0.36388622418758143  0.7034304084458753  0.2459097550443731  1.0000
  C   C56       1.0  0.6361151240021952  0.29656862094115166  0.7540911103496842  1.0000
  N   N1        1.0  0.5913129106249357  0.3178935665075358  0.4938833338375802  1.0000
  N   N2        1.0  0.40868594984203105  0.682107279480242  0.506118190787973  1.0000
  N   N3        1.0  0.396156445391803  0.3222934633781804  0.20961712079296296  1.0000
  N   N4        1.0  0.6038390460359865  0.6777037639043969  0.7903818804728007  1.0000
  N   N5        1.0  0.2581310979469293  0.131367382104429  0.4889308485274101  1.0000
  N   N6        1.0  0.7418675243406767  0.868629842683646  0.5110683316969971  1.0000
  N   N7        1.0  0.10021837606259965  0.40901855786177077  0.7024785012942875  1.0000
  N   N8        1.0  0.8997812198798986  0.590981403774208  0.2975204808678599  1.0000
  O   O1        1.0  0.39840614647797423  0.0015051560511309973  0.5964805170401563  1.0000
  O   O2        1.0  0.6015917448087935  0.9984929609330209  0.4035204779739205  1.0000
  O   O3        1.0  0.5530303924972345  0.9551467851787548  0.6903123785244818  1.0000
  O   O4        1.0  0.44696202461168627  0.0448476833861164  0.309688884518991  1.0000
  O   O5        1.0  0.4717914176850402  0.6701330087003043  0.26584709019715563  1.0000
  O   O6        1.0  0.5282068561858679  0.32986326196900967  0.7341560369745965  1.0000
  O   O7        1.0  0.3174882373711014  0.7824742642272324  0.3245545495456811  1.0000
  O   O8        1.0  0.6825127371839343  0.21752662716317422  0.6754427283432067  1.0000
