data_image0
_chemical_formula_structural       CaH28C26N4O12
_chemical_formula_sum              "Ca1 H28 C26 N4 O12"
_cell_length_a       9.532808103274995
_cell_length_b       9.651984944542805
_cell_length_c       10.81902403315451
_cell_angle_alpha    89.74348839938231
_cell_angle_beta     121.67319929606137
_cell_angle_gamma    77.04595158955284

_space_group_name_H-M_alt    "P 1"
_space_group_IT_number       1

loop_
  _space_group_symop_operation_xyz
  'x, y, z'

loop_
  _atom_site_type_symbol
  _atom_site_label
  _atom_site_symmetry_multiplicity
  _atom_site_fract_x
  _atom_site_fract_y
  _atom_site_fract_z
  _atom_site_occupancy
  Ca  Ca1       1.0  3.0807792085601236e-06  0.5000057760696494  0.5000089905314695  1.0000
  H   H1        1.0  0.30700989595109  0.1225802709071644  0.18869122374271535  1.0000
  H   H2        1.0  0.6929838634334401  0.8774240481837053  0.8113153919272732  1.0000
  H   H3        1.0  0.355491379868063  0.49854627249823846  0.4039634351062986  1.0000
  H   H4        1.0  0.6445040030281249  0.5014580963134706  0.5960334648907235  1.0000
  H   H5        1.0  0.5840221639975738  0.5205009787248472  0.36065576447832365  1.0000
  H   H6        1.0  0.4159713803678855  0.47950368729550513  0.639337682425605  1.0000
  H   H7        1.0  0.8663618086237153  0.10442314947956528  0.48793728291209254  1.0000
  H   H8        1.0  0.1336253327365853  0.8955792505305381  0.5120511063938551  1.0000
  H   H9        1.0  0.9886726961407033  0.9947394795791169  0.6628341818520906  1.0000
  H   H10       1.0  0.011316327859951496  0.005254406305304801  0.3371520724509125  1.0000
  H   H11       1.0  0.7717886359023679  0.0855942616208694  0.5906707672789365  1.0000
  H   H12       1.0  0.22820107926746405  0.9144066375634453  0.40932414066163864  1.0000
  H   H13       1.0  0.9665310941516694  0.16352472790796926  0.9788890032977946  1.0000
  H   H14       1.0  0.03349823164504071  0.8364576796807697  0.021119866033494403  1.0000
  H   H15       1.0  0.7671627841471178  0.1771712262099641  0.8126720853861045  1.0000
  H   H16       1.0  0.23286437761560555  0.8228049602411006  0.18734537981251975  1.0000
  H   H17       1.0  0.9521905625220342  0.037073722784768365  0.8568094802932366  1.0000
  H   H18       1.0  0.04783136519456828  0.9629107625889405  0.14319210675003546  1.0000
  H   H19       1.0  0.12786869774774345  0.31748593237119843  0.9816847843620803  1.0000
  H   H20       1.0  0.8721218837525624  0.6825130006429703  0.01830107840029172  1.0000
  H   H21       1.0  0.05282286136471729  0.4214469124485518  0.8114885804962525  1.0000
  H   H22       1.0  0.9471652106982942  0.5785523325788732  0.18849639856561834  1.0000
  H   H23       1.0  0.9162553033844673  0.4326508330523567  0.8806868611280476  1.0000
  H   H24       1.0  0.08373337454543872  0.5673441623145336  0.1192983351286401  1.0000
  H   H25       1.0  0.6488212706893319  0.13603617756096043  0.1266063262853193  1.0000
  H   H26       1.0  0.3511839749471903  0.863968594701113  0.8734127493177792  1.0000
  H   H27       1.0  0.9536616831625935  0.24809471831456162  0.22872142987667846  1.0000
  H   H28       1.0  0.0463331142817438  0.7519136002955378  0.7712874179439666  1.0000
  C   C1        1.0  0.7258053477612663  0.3495743751355321  0.24642951607295063  1.0000
  C   C2        1.0  0.2741949886649593  0.6504397907270346  0.7535700539358884  1.0000
  C   C3        1.0  0.5781491890805197  0.33314243466303856  0.25578229869763885  1.0000
  C   C4        1.0  0.4218358750353985  0.6668685265400852  0.7442072218636469  1.0000
  C   C5        1.0  0.4968510836919294  0.2205416978289776  0.2041123335776263  1.0000
  C   C6        1.0  0.5031351694355166  0.7794594488431414  0.7958888369428365  1.0000
  C   C7        1.0  0.3691219069219471  0.20844573883475453  0.22896493453661992  1.0000
  C   C8        1.0  0.6308738645148537  0.7915531121738226  0.771042394477142  1.0000
  C   C9        1.0  0.32117747855303247  0.3071825115576842  0.302757722115409  1.0000
  C   C10       1.0  0.6788339774292639  0.6928061092523022  0.6972523322481762  1.0000
  C   C11       1.0  0.3978344450146025  0.42028488286389626  0.35045818959704883  1.0000
  C   C12       1.0  0.6021662157324386  0.579717626041429  0.6495471164827079  1.0000
  C   C13       1.0  0.5235869073922571  0.43267170572991637  0.3256688251512683  1.0000
  C   C14       1.0  0.4764139917635646  0.5673371951243241  0.6743300126034837  1.0000
  C   C15       1.0  0.1800373043186028  0.3008924944460674  0.3240939678875563  1.0000
  C   C16       1.0  0.8199691316643367  0.6991133106219108  0.6759199146316703  1.0000
  C   C17       1.0  0.45603217834086957  0.03647109260354141  0.03871205770795431  1.0000
  C   C18       1.0  0.5439806830069147  0.9635182140828745  0.9613059723378257  1.0000
  C   C19       1.0  0.9466768834173607  0.22204511405142568  0.6678526481200819  1.0000
  C   C20       1.0  0.05331653168862261  0.7779491779588952  0.33213889242541933  1.0000
  C   C21       1.0  0.8885756814569774  0.09446791467634344  0.5978741025732004  1.0000
  C   C22       1.0  0.11141386116364063  0.9055289231167906  0.40211700757174634  1.0000
  C   C23       1.0  0.9064803488566895  0.1497633276732415  0.8630869721275969  1.0000
  C   C24       1.0  0.09353742549591705  0.8502217198550214  0.13691128186969337  1.0000
  C   C25       1.0  0.016231522410365073  0.3612593202887098  0.8708053711014258  1.0000
  C   C26       1.0  0.9837626938339882  0.6387360986621929  0.12917896886498437  1.0000
  N   N1        1.0  0.5426747955726087  0.12638168529669258  0.1262422736834452  1.0000
  N   N2        1.0  0.4573329823759095  0.8736167621954182  0.8737674120389085  1.0000
  N   N3        1.0  0.9544930928255299  0.24372378503029787  0.7938394779215016  1.0000
  N   N4        1.0  0.0455087162553838  0.7562621811016612  0.2061540900688286  1.0000
  O   O1        1.0  0.7741409779893758  0.4627475726409785  0.2793135845668642  1.0000
  O   O2        1.0  0.2258538420247831  0.5372693891457061  0.7206831056959473  1.0000
  O   O3        1.0  0.7991879787513413  0.2435082554708927  0.21003797327168874  1.0000
  O   O4        1.0  0.20081064952838545  0.7565000213788693  0.7899544544458479  1.0000
  O   O5        1.0  0.3236084060138609  0.012055157301489318  0.01783440884979371  1.0000
  O   O6        1.0  0.6764020343259958  0.9879454351324954  0.9821603138170119  1.0000
  O   O7        1.0  0.1705245602514438  0.3571639460741665  0.423829680516114  1.0000
  O   O8        1.0  0.8294720543362573  0.6428536074542706  0.5761769929241111  1.0000
  O   O9        1.0  0.06952780453352149  0.2371898285032543  0.22758961405280329  1.0000
  O   O10       1.0  0.9304785866723503  0.7628187698133077  0.7724382780839817  1.0000
  O   O11       1.0  0.9886840853237331  0.3037204323407252  0.6092443335763561  1.0000
  O   O12       1.0  0.011295117434130532  0.6962778740375055  0.3907356536359359  1.0000
