data_image0
_chemical_formula_structural       Al6H80C105O28
_chemical_formula_sum              "Al6 H80 C105 O28"
_cell_length_a       12.848222106338929
_cell_length_b       13.139558840982064
_cell_length_c       27.59220184107219
_cell_angle_alpha    89.75383701574738
_cell_angle_beta     90.49027083541422
_cell_angle_gamma    121.01282411965722

_space_group_name_H-M_alt    "P 1"
_space_group_IT_number       1

loop_
  _space_group_symop_operation_xyz
  'x, y, z'

loop_
  _atom_site_type_symbol
  _atom_site_label
  _atom_site_symmetry_multiplicity
  _atom_site_fract_x
  _atom_site_fract_y
  _atom_site_fract_z
  _atom_site_occupancy
  Al  Al1       1.0  0.15173279498816333  0.5664105496155756  0.5026389917688547  1.0000
  Al  Al2       1.0  0.41102977741767427  0.5871467957382492  0.504586419307067  1.0000
  Al  Al3       1.0  0.4057549710761847  0.8127999089776735  0.5023273050928481  1.0000
  Al  Al4       1.0  0.17924273679199132  0.09127833530291701  0.0131579185422055  1.0000
  Al  Al5       1.0  0.919732281770763  0.07124428242314453  0.0193482486784617  1.0000
  Al  Al6       1.0  0.9232697327203854  0.8449015545566638  0.016951580363525  1.0000
  H   H1        1.0  0.5800020066954232  0.9326112022277115  0.8150705963336194  1.0000
  H   H2        1.0  0.7293293672655566  0.7084832348140467  0.7958565503297237  1.0000
  H   H3        1.0  0.24735120072120506  0.02607309606217001  0.7862644306263816  1.0000
  H   H4        1.0  0.9556918141357542  0.2568862539339847  0.7855018618802347  1.0000
  H   H5        1.0  0.664394971188017  0.9721371760179098  0.1340610139264129  1.0000
  H   H6        1.0  0.986961767249518  0.6772533275266142  0.131187897403791  1.0000
  H   H7        1.0  0.2998028780981272  0.2737664734865035  0.1396907985042191  1.0000
  H   H8        1.0  0.5184807375223599  0.9098842063146788  0.3722754430711674  1.0000
  H   H9        1.0  0.06441526212165642  0.6001689757762066  0.3693393997890553  1.0000
  H   H10       1.0  0.39828274599070573  0.4272012611187251  0.3774778704824087  1.0000
  H   H11       1.0  0.5620546403689843  0.006832151277244203  0.20333754972663337  1.0000
  H   H12       1.0  0.042356119105967614  0.6464821476632849  0.8032548010136723  1.0000
  H   H13       1.0  0.9320723273083759  0.5436956039392129  0.20323079611163308  1.0000
  H   H14       1.0  0.4383467051710923  0.3443615401968074  0.21171143157130248  1.0000
  H   H15       1.0  0.5112628845310211  0.9858609033285004  0.2901787435005119  1.0000
  H   H16       1.0  0.958099804752962  0.516396763584325  0.2904597811373435  1.0000
  H   H17       1.0  0.4734778260399111  0.3969107933932037  0.2988749535042174  1.0000
  H   H18       1.0  0.8358772334531255  0.7673829733303922  0.1551589638697166  1.0000
  H   H19       1.0  0.27042061854801597  0.043260320304220605  0.1416638707853437  1.0000
  H   H20       1.0  0.933115684727433  0.19565984152917082  0.151946982442773  1.0000
  H   H21       1.0  0.850621377610601  0.6985324836492809  0.23807029660684978  1.0000
  H   H22       1.0  0.3732483346911408  0.1277587109209861  0.2210808673718603  1.0000
  H   H23       1.0  0.3311204047897077  0.3871700312276757  0.819053552222229  1.0000
  H   H24       1.0  0.8531927820756806  0.21212536626399006  0.232281316199078  1.0000
  H   H25       1.0  0.7979174941704913  0.6756880578553536  0.3247266133339863  1.0000
  H   H26       1.0  0.397144068747764  0.10165661779322478  0.3084092039877859  1.0000
  H   H27       1.0  0.8893419544618625  0.267756818079576  0.3190962359494947  1.0000
  H   H28       1.0  0.6864023759698767  0.7019405571482125  0.3932475996293475  1.0000
  H   H29       1.0  0.34542200711886323  0.9670893197823677  0.38028609806410424  1.0000
  H   H30       1.0  0.03224202772178591  0.35165718401611906  0.3896899053694511  1.0000
  H   H31       1.0  0.8296631616627723  0.874116841283922  0.7158415127109733  1.0000
  H   H32       1.0  0.08980184556529032  0.9434890919909122  0.7007123884318602  1.0000
  H   H33       1.0  0.03692739462953652  0.15551958440269692  0.7088464559492849  1.0000
  H   H34       1.0  0.46551954510341875  0.8023197672207656  0.7289994541345094  1.0000
  H   H35       1.0  0.8081449352618508  0.995335199114699  0.7085225167314135  1.0000
  H   H36       1.0  0.9771585858631796  0.7931753115073407  0.6920781596642911  1.0000
  H   H37       1.0  0.18382263166684956  0.17628098463927702  0.7093926806903283  1.0000
  H   H38       1.0  0.8029487290369132  0.0211744364549205  0.7928474953241107  1.0000
  H   H39       1.0  0.9385801341667559  0.7606531688234528  0.7758334647727168  1.0000
  H   H40       1.0  0.19116635186689732  0.1731368926174142  0.7948175388140085  1.0000
  H   H41       1.0  0.8695818658936503  0.932785295008813  0.7976831970496576  1.0000
  H   H42       1.0  0.019083602901325394  0.9172157371786651  0.7806494498465213  1.0000
  H   H43       1.0  0.03270692581536851  0.1128102448108876  0.7919849781300171  1.0000
  H   H44       1.0  0.5078768166295049  0.6424726402342175  0.7349242131145672  1.0000
  H   H45       1.0  0.19528564215070085  0.6855156504331107  0.7222962859816136  1.0000
  H   H46       1.0  0.34345572193969803  0.8954398209245583  0.7305659623785558  1.0000
  H   H47       1.0  0.13159516815719033  0.4718473544866058  0.7279704607647091  1.0000
  H   H48       1.0  0.6476870540387125  0.6613992494547318  0.7165003584702774  1.0000
  H   H49       1.0  0.3141111600800245  0.004828951152426001  0.7093886604316637  1.0000
  H   H50       1.0  0.009416910632168759  0.33640353704733184  0.7064882136464447  1.0000
  H   H51       1.0  0.5767740711191109  0.6435072612817477  0.8141149936806257  1.0000
  H   H52       1.0  0.3216273693171631  0.9537193441551537  0.8084577928869976  1.0000
  H   H53       1.0  0.04816476449903457  0.40499300697906887  0.805286822694903  1.0000
  H   H54       1.0  0.5110458985236903  0.13894976476156273  0.6937562697662187  1.0000
  H   H55       1.0  0.6649835767190455  0.20432354164692162  0.676416842786864  1.0000
  H   H56       1.0  0.33349818999093384  0.5093150497452186  0.7321453018877407  1.0000
  H   H57       1.0  0.5482606365099657  0.14145085344659236  0.6317531926245225  1.0000
  H   H58       1.0  0.6259670976489461  0.0046339341243993035  0.6501805939805081  1.0000
  H   H59       1.0  0.4719845106429971  0.9386252494164821  0.6644007929156928  1.0000
  H   H60       1.0  0.5356341652594667  0.012299050900153903  0.7519136436451389  1.0000
  H   H61       1.0  0.6847903726440805  0.0558392438227315  0.7370360622812271  1.0000
  H   H62       1.0  0.8675129985356024  0.3660522885329698  0.6785746628588143  1.0000
  H   H63       1.0  0.7975355418895943  0.4434955867129347  0.656801577344055  1.0000
  H   H64       1.0  0.8761724624958304  0.40231506014728063  0.6161757818477795  1.0000
  H   H65       1.0  0.0016373875603790283  0.6192046907739694  0.6364126988993988  1.0000
  H   H66       1.0  0.07372750977042841  0.5436344054675499  0.6554942138198073  1.0000
  H   H67       1.0  0.48347836023985025  0.7769753528565956  0.8111270163751527  1.0000
  H   H68       1.0  0.9822945720418447  0.5226672886125101  0.7395021029066484  1.0000
  H   H69       1.0  0.92717924604613  0.6134969334532626  0.7207021992291232  1.0000
  H   H70       1.0  0.6425667090712822  0.48501128184061326  0.7056802679625562  1.0000
  H   H71       1.0  0.5621785175518995  0.3316545432227898  0.6915268169296168  1.0000
  H   H72       1.0  0.6122180168649862  0.43800927520738503  0.6441812277371638  1.0000
  H   H73       1.0  0.3896701094702166  0.3496509511017933  0.6571190394167487  1.0000
  H   H74       1.0  0.46867085895040367  0.5016069715974893  0.6699960122719305  1.0000
  H   H75       1.0  0.4755491659978547  0.44552205511021015  0.759888742239724  1.0000
  H   H76       1.0  0.37092773475627894  0.29825204743498546  0.744208273176305  1.0000
  H   H77       1.0  0.20268879147581503  0.724968215515432  0.8044179171672567  1.0000
  H   H78       1.0  0.27912558377827423  0.48747873798951263  0.8128142362522937  1.0000
  H   H79       1.0  0.9528319887116085  0.4708918644110014  0.5321180018142471  1.0000
  H   H80       1.0  0.3813397735376753  0.1485496512956672  0.029936574116966597  1.0000
  C   C1        1.0  0.2362641664800407  0.7891196539970764  0.5668334215190143  1.0000
  C   C2        1.0  0.6978453598383041  0.8478021591640755  0.862267629825972  1.0000
  C   C3        1.0  0.0014451958226546157  0.5961653174267456  0.7145767151300789  1.0000
  C   C4        1.0  0.9947526184395983  0.5529394539126004  0.6626017596580098  1.0000
  C   C5        1.0  0.8777702548571117  0.43499168198749066  0.6529184646462413  1.0000
  C   C6        1.0  0.40169171610163806  0.3908054669809431  0.7339724399411622  1.0000
  C   C7        1.0  0.4547103934729436  0.4159685909173022  0.6828433188761451  1.0000
  C   C8        1.0  0.5743143050109084  0.4177824100755316  0.6808950105960818  1.0000
  C   C9        1.0  0.10750183660724846  0.8456376588670694  0.8501428127840001  1.0000
  C   C10       1.0  0.11616933339431776  0.27937701893633726  0.8585625597407471  1.0000
  C   C11       1.0  0.6192801076004031  0.8088217829115507  0.6642639738998568  1.0000
  C   C12       1.0  0.18334488299189644  0.8220163560555848  0.6551689503341152  1.0000
  C   C13       1.0  0.19757238522729645  0.36484414705238793  0.6628139609493147  1.0000
  C   C14       1.0  0.59701054467795  0.7913213375269379  0.6211099177708235  1.0000
  C   C15       1.0  0.20915292431609336  0.8195987735348921  0.6130707128273444  1.0000
  C   C16       1.0  0.20981026831709226  0.39441716633970714  0.6204969809935861  1.0000
  C   C17       1.0  0.0940836186912293  0.19659333639805252  0.0895992131868368  1.0000
  C   C18       1.0  0.23268549766101643  0.4507911940346858  0.573871218091007  1.0000
  C   C19       1.0  0.7905121345829612  0.8875239807164377  0.08841502496415642  1.0000
  C   C20       1.0  0.10551351836964785  0.8842278602966189  0.0812779982641416  1.0000
  C   C21       1.0  0.08612371409124361  0.21275143071227376  0.950166187000697  1.0000
  C   C22       1.0  0.7724003373350145  0.8860874753001016  0.9533216261463977  1.0000
  C   C23       1.0  0.0816633531728925  0.8848254791811173  0.9421079916813966  1.0000
  C   C24       1.0  0.5696083748375144  0.8722867293026793  0.3572894922455205  1.0000
  C   C25       1.0  0.11785009097372523  0.6863321526964938  0.3517768810763968  1.0000
  C   C26       1.0  0.30958218189849174  0.39446876247823326  0.3606219699355933  1.0000
  C   C27       1.0  0.5993038543901434  0.8864696322589866  0.3079832893647847  1.0000
  C   C28       1.0  0.10022992656362822  0.7003181127877056  0.30263929054755323  1.0000
  C   C29       1.0  0.5474855282616319  0.7651771768058924  0.5727831102460428  1.0000
  C   C30       1.0  0.29027346076316013  0.3599942501885778  0.3118376637274665  1.0000
  C   C31       1.0  0.6584982336823871  0.9108121370712183  0.2075488595996404  1.0000
  C   C32       1.0  0.07109738818676443  0.7314697337804359  0.2022168908594395  1.0000
  C   C33       1.0  0.24989194242429846  0.2986542425571557  0.21170203055564943  1.0000
  C   C34       1.0  0.22946796545593898  0.758012390736461  0.4296858191794755  1.0000
  C   C35       1.0  0.24325169693600662  0.44363306261305274  0.4373679708041323  1.0000
  C   C36       1.0  0.5528970031293737  0.7804462167889809  0.437677794714645  1.0000
  C   C37       1.0  0.5916416812805213  0.9605234301468858  0.2275676488964606  1.0000
  C   C38       1.0  0.9987587580429891  0.6181286310169015  0.2252371471563634  1.0000
  C   C39       1.0  0.3654885447493755  0.3374353155635106  0.23424052174123489  1.0000
  C   C40       1.0  0.6474087931612048  0.7143168051865062  0.7916853344749555  1.0000
  C   C41       1.0  0.5635791450141454  0.9490406258495838  0.2756485345544135  1.0000
  C   C42       1.0  0.012670254149036114  0.6031746990286565  0.2733726162403656  1.0000
  C   C43       1.0  0.3848158993357061  0.3664402684108766  0.2822350956810951  1.0000
  C   C44       1.0  0.6892938438501163  0.9223083676902489  0.15836780995605443  1.0000
  C   C45       1.0  0.0562433988704996  0.7496888301869475  0.1531670720871574  1.0000
  C   C46       1.0  0.2285626525586935  0.26921556662061613  0.1624583227918208  1.0000
  C   C47       1.0  0.7513365039323291  0.8693758027002404  0.1398407525542851  1.0000
  C   C48       1.0  0.1286614245933819  0.8613600023071512  0.131921615141593  1.0000
  C   C49       1.0  0.11534448683595144  0.23358148340989265  0.1413904203489409  1.0000
  C   C50       1.0  0.6643839335767935  0.7543409132092407  0.36914934983929026  1.0000
  C   C51       1.0  0.25051753023771545  0.9442945152818325  0.7832701746037715  1.0000
  C   C52       1.0  0.27710301243668317  0.8941968456937914  0.3581780462221715  1.0000
  C   C53       1.0  0.1019612822216303  0.3516328652838965  0.36741589488026705  1.0000
  C   C54       1.0  0.6999481749313504  0.7702553858290172  0.3204207756011286  1.0000
  C   C55       1.0  0.2612779828186832  0.9127025869302019  0.3092242761518306  1.0000
  C   C56       1.0  0.0782456323540828  0.3149196000696222  0.3189320097281296  1.0000
  C   C57       1.0  0.6652628547892905  0.8351705103077337  0.2890650270788909  1.0000
  C   C58       1.0  0.17345773131896894  0.814423421317116  0.2807318904273473  1.0000
  C   C59       1.0  0.17374546082428574  0.3208099831591795  0.2903962809762888  1.0000
  C   C60       1.0  0.7685948997011351  0.7222633294070419  0.3005388989364519  1.0000
  C   C61       1.0  0.3322099499141444  0.026380171481079608  0.2863098859971771  1.0000
  C   C62       1.0  0.04827770158351547  0.3346886619691106  0.7839236180630849  1.0000
  C   C63       1.0  0.9619700465528637  0.27404466786104115  0.2966212423208603  1.0000
  C   C64       1.0  0.7977165202381471  0.734785129459425  0.252540263715666  1.0000
  C   C65       1.0  0.31920147247750214  0.0408821464515512  0.2380569943284954  1.0000
  C   C66       1.0  0.9422992476503893  0.24374319893293264  0.2487260905268514  1.0000
  C   C67       1.0  0.7603788333597733  0.7957660144317626  0.22003372442166844  1.0000
  C   C68       1.0  0.23315915242671542  0.9435131465790931  0.2085660845936559  1.0000
  C   C69       1.0  0.037463539523614066  0.25233918962609897  0.2188637179242292  1.0000
  C   C70       1.0  0.5594948878934431  0.8650437744195615  0.7409971652219198  1.0000
  C   C71       1.0  0.12283453589165555  0.7036126189379529  0.7312735103452254  1.0000
  C   C72       1.0  0.30019715181131795  0.4170280442005846  0.7434466849649651  1.0000
  C   C73       1.0  0.6065934801428483  0.7011088417364775  0.7382902228298747  1.0000
  C   C74       1.0  0.6948398568055794  0.8474510888194119  0.2390123794040306  1.0000
  C   C75       1.0  0.159428184079701  0.829669881048119  0.2305934736888204  1.0000
  C   C76       1.0  0.15355928534932423  0.2901908914374332  0.2404688640537316  1.0000
  C   C77       1.0  0.7859983653343081  0.8061723785311444  0.1703321942899478  1.0000
  C   C78       1.0  0.21712066965967128  0.9570131460194489  0.1591912605395081  1.0000
  C   C79       1.0  0.020727538420970915  0.2252228794957105  0.1692568766438498  1.0000
  C   C80       1.0  0.6001627932302044  0.8052419605270983  0.3874044435972834  1.0000
  C   C81       1.0  0.20671528428255934  0.7818003822612027  0.3790643198945816  1.0000
  C   C82       1.0  0.2168825886087618  0.39205419264206404  0.3878382788051695  1.0000
  C   C83       1.0  0.7758515712582084  0.9120243271591593  0.7285086811506573  1.0000
  C   C84       1.0  0.27638707268651064  0.9233517414740219  0.7310982603668917  1.0000
  C   C85       1.0  0.05732927015490938  0.8530476969545335  0.7140155393403163  1.0000
  C   C86       1.0  0.12723478281648684  0.206929140623032  0.7258685485360203  1.0000
  C   C87       1.0  0.7900156693691754  0.9340151360039854  0.7837832781503734  1.0000
  C   C88       1.0  0.02620086574341222  0.8416828955015844  0.7684660531160148  1.0000
  C   C89       1.0  0.12032668536854632  0.18955437655363033  0.7814273755945749  1.0000
  C   C90       1.0  0.7204466327655653  0.8586974797189555  0.9054883908610164  1.0000
  C   C91       1.0  0.09604621830941092  0.8571823743229885  0.8930872793780154  1.0000
  C   C92       1.0  0.10159136262794283  0.258642998256029  0.9017221931200083  1.0000
  C   C93       1.0  0.6406434227594743  0.823331058952462  0.7162515005155754  1.0000
  C   C94       1.0  0.1588094658395461  0.8246360754929822  0.706168160052158  1.0000
  C   C95       1.0  0.08752649876389998  0.37499129008714494  0.7313980499900268  1.0000
  C   C96       1.0  0.17964754417828743  0.3397237950949473  0.7142805339111149  1.0000
  C   C97       1.0  0.5675683020665335  0.8528079799006962  0.7968523693729352  1.0000
  C   C98       1.0  0.12367360317089286  0.721632643996976  0.7869843375269597  1.0000
  C   C99       1.0  0.2688422731767233  0.4049683080816208  0.7982387611762078  1.0000
  C   C100      1.0  0.6753110085632557  0.8366364691303049  0.8104212455918827  1.0000
  C   C101      1.0  0.1263427065692539  0.8379866881803367  0.7988874701636631  1.0000
  C   C102      1.0  0.1371066905397669  0.3021353532615692  0.8071259446604699  1.0000
  C   C103      1.0  0.5894163973934283  0.990845767211681  0.7275540088498786  1.0000
  C   C104      1.0  0.5633949134401136  0.010592244934258603  0.6752338685995625  1.0000
  C   C105      1.0  0.5724794338181313  0.1302818101383991  0.6688403833811378  1.0000
  O   O1        1.0  0.1603453343579133  0.4839386350875756  0.5603991439523099  1.0000
  O   O2        1.0  0.1635923387715152  0.4562771320925094  0.4582423846703492  1.0000
  O   O3        1.0  0.5349749054159716  0.6857299041504561  0.45848658237226664  1.0000
  O   O4        1.0  0.3228902825715069  0.8408896236783292  0.4523894330520406  1.0000
  O   O5        1.0  0.1575460766951124  0.6557600827813914  0.4463932242794755  1.0000
  O   O6        1.0  0.3501861113009781  0.4777870464962676  0.4550623878342179  1.0000
  O   O7        1.0  0.5259659411880194  0.8533905872936174  0.4563494573989714  1.0000
  O   O8        1.0  0.3251205053872681  0.6567921246741832  0.5036959583917877  1.0000
  O   O9        1.0  0.18040996309390772  0.9828311314036922  0.0623876837612585  1.0000
  O   O10       1.0  0.9936430805013784  0.1774264678622117  0.0700273650982624  1.0000
  O   O11       1.0  0.8189242311906709  0.8157069872878041  0.0702197323960263  1.0000
  O   O12       1.0  0.5250860571045947  0.6661142280433765  0.554429923738887  1.0000
  O   O13       1.0  0.17258374330448595  0.18215203466430552  0.068774985272043  1.0000
  O   O14       1.0  0.7998496232240271  0.9775209462050326  0.0660427296064725  1.0000
  O   O15       1.0  0.006348381361320254  0.8036355369590921  0.060705111036988106  1.0000
  O   O16       1.0  0.0053718406131935  0.0012736373258519999  0.0163858462145754  1.0000
  O   O17       1.0  0.16672467105328076  0.1928212553399007  0.9654978178756508  1.0000
  O   O18       1.0  0.800673585546555  0.987507652931811  0.9705016936854065  1.0000
  O   O19       1.0  0.9860525083931577  0.805542912049866  0.9646729875920386  1.0000
  O   O20       1.0  0.3408028442091934  0.8646508460246662  0.5484392739929262  1.0000
  O   O21       1.0  0.16106410032589485  0.9851615521735583  0.9582894359161999  1.0000
  O   O22       1.0  0.9895328414501848  0.1909153386928111  0.9730449585456711  1.0000
  O   O23       1.0  0.7928606617142934  0.810744216465039  0.974084613134437  1.0000
  O   O24       1.0  0.15963744650905923  0.6896557656289347  0.5489943804645137  1.0000
  O   O25       1.0  0.3267630836860961  0.4671168091238158  0.5507060930404393  1.0000
  O   O26       1.0  0.5236501639199674  0.8385697360962325  0.5527296519401261  1.0000
  O   O27       1.0  0.9921896364623138  0.48513287847890746  0.5010574983544558  1.0000
  O   O28       1.0  0.3380622669690254  0.17454790032407172  0.0094944022730488  1.0000
