data_image0
_chemical_formula_structural       Gd3H15C18N6O21
_chemical_formula_sum              "Gd3 H15 C18 N6 O21"
_cell_length_a       9.725242674403988
_cell_length_b       9.725239480585994
_cell_length_c       9.725240011720546
_cell_angle_alpha    79.52584407554762
_cell_angle_beta     79.52578580441262
_cell_angle_gamma    79.52582392238521

_space_group_name_H-M_alt    "P 1"
_space_group_IT_number       1

loop_
  _space_group_symop_operation_xyz
  'x, y, z'

loop_
  _atom_site_type_symbol
  _atom_site_label
  _atom_site_symmetry_multiplicity
  _atom_site_fract_x
  _atom_site_fract_y
  _atom_site_fract_z
  _atom_site_occupancy
  Gd  Gd1       1.0  0.5000035757218056  0.0095741142406567  0.9904307997243365  1.0000
  Gd  Gd2       1.0  0.9904317314902685  0.5000021574417843  0.009575494536015484  1.0000
  Gd  Gd3       1.0  0.009576452295561977  0.9904293934598196  0.5000030125491151  1.0000
  H   H1        1.0  0.41227916431726197  0.5877276780273347  0.9999985068202191  1.0000
  H   H2        1.0  0.9999988747874228  0.4122763319578056  0.5877297878207769  1.0000
  H   H3        1.0  0.5877298420670839  5.570531484999867e-07  0.4122775411847854  1.0000
  H   H4        1.0  0.7661894463572096  0.8550502464158638  0.0748144901035418  1.0000
  H   H5        1.0  0.07481420236752709  0.7661892684487838  0.8550520632985297  1.0000
  H   H6        1.0  0.8550532811225154  0.07481188111855629  0.7661901198416174  1.0000
  H   H7        1.0  0.9251905082956853  0.14495411770612068  0.23381737477400572  1.0000
  H   H8        1.0  0.14495592426998632  0.2338153470558026  0.9251922229094871  1.0000
  H   H9        1.0  0.23381701980576963  0.9251904695748436  0.14495599792357444  1.0000
  H   H10       1.0  0.7676148151737223  0.023964744078377  0.06252689060020343  1.0000
  H   H11       1.0  0.06252744613983198  0.7676140986211806  0.023966303438989225  1.0000
  H   H12       1.0  0.02396621634431991  0.06252651475204368  0.7676150082361062  1.0000
  H   H13       1.0  0.9374771112674978  0.9760406760518663  0.23239381568571818  1.0000
  H   H14       1.0  0.9760422329970738  0.23239143530401654  0.9374769131473283  1.0000
  H   H15       1.0  0.23239328019869987  0.937475978045221  0.9760417936357726  1.0000
  C   C1        1.0  0.6688301806070456  0.6656930294782056  0.0017917201883860528  1.0000
  C   C2        1.0  0.0017918098065762993  0.6688286579185673  0.6656949722049105  1.0000
  C   C3        1.0  0.6656950214670871  0.0017904178541670005  0.6688292398221093  1.0000
  C   C4        1.0  0.9982100553496097  0.33431133859220097  0.3311767973453782  1.0000
  C   C5        1.0  0.3343129276856942  0.33117593738382567  0.9982096007531424  1.0000
  C   C6        1.0  0.3311775754482724  0.9982098318223007  0.3343126089654831  1.0000
  C   C7        1.0  0.6380173576917585  0.519491296815218  0.9995065219736432  1.0000
  C   C8        1.0  0.9995076044063539  0.6380164364859412  0.5194921209116002  1.0000
  C   C9        1.0  0.5194924689873944  0.9995065304038135  0.6380185282965839  1.0000
  C   C10       1.0  0.0004958406892470283  0.48051218853852606  0.3619891077082613  1.0000
  C   C11       1.0  0.48051492143164876  0.3619869053459794  0.0004960559526309636  1.0000
  C   C12       1.0  0.3619893772950107  0.0004958555982525999  0.48051466089108164  1.0000
  C   C13       1.0  0.49965159514020024  0.5003558882638615  3.9663762412986555e-07  1.0000
  C   C14       1.0  4.717486347892193e-07  0.499649080595681  0.5003577998482029  1.0000
  C   C15       1.0  0.5003575929326658  5.720347217999941e-07  0.4996507836976463  1.0000
  C   C16       1.0  0.7212253520807936  0.27877878348986224  2.944599891943734e-06  1.0000
  C   C17       1.0  2.6625081161805084e-06  0.7212219145369971  0.2787817947356501  1.0000
  C   C18       1.0  0.2787810880412138  1.6679239110000034e-06  0.7212238913481741  1.0000
  N   N1        1.0  0.7473552204747663  0.4136104799575975  0.0013095542250525101  1.0000
  N   N2        1.0  0.0013096229355938106  0.7473529556693492  0.41361244115524437  1.0000
  N   N3        1.0  0.4136120275607524  0.0013088927640935997  0.7473550397498697  1.0000
  N   N4        1.0  0.9986970527988819  0.5863907000032639  0.25265079611730806  1.0000
  N   N5        1.0  0.5863933475236677  0.2526494802611551  0.9986963496223848  1.0000
  N   N6        1.0  0.2526515077919668  0.9986956463866505  0.5863938157557413  1.0000
  O   O1        1.0  0.573976516110612  0.7684319792053814  0.9729167328468902  1.0000
  O   O2        1.0  0.9729163504676138  0.5739760398260785  0.7684340880752955  1.0000
  O   O3        1.0  0.7684328298662493  0.9729155378869193  0.5739768504767042  1.0000
  O   O4        1.0  0.027087100806092196  0.23157151254875438  0.42602859167155316  1.0000
  O   O5        1.0  0.23157408378119734  0.42602840738577896  0.027086947288694308  1.0000
  O   O6        1.0  0.42602843521802214  0.027086794423034608  0.23157297466625681  1.0000
  O   O7        1.0  0.7877037871919655  0.6742966201101127  0.035335409356527236  1.0000
  O   O8        1.0  0.03533636708268519  0.7877022673577301  0.6742981290823806  1.0000
  O   O9        1.0  0.6742988807070631  0.035334225464716  0.7877037732743588  1.0000
  O   O10       1.0  0.9646688750191714  0.32570667518470486  0.21230194554234322  1.0000
  O   O11       1.0  0.32570859513015904  0.21230020731707094  0.9646694590374169  1.0000
  O   O12       1.0  0.21230227388601725  0.9646681595385401  0.32570825210538606  1.0000
  O   O13       1.0  0.8236650832260041  0.17633855330545595  4.009332371879136e-06  1.0000
  O   O14       1.0  3.4718710822151664e-06  0.8236621273156712  0.17634139494430207  1.0000
  O   O15       1.0  0.1763417561858134  6.272532501999845e-07  0.8236652555260519  1.0000
  O   O16       1.0  0.7083021810274347  0.9461318334171692  0.09366641470690948  1.0000
  O   O17       1.0  0.09366571721170659  0.7083005671902143  0.9461341333348088  1.0000
  O   O18       1.0  0.9461345273899726  0.09366549466072631  0.7083013382251976  1.0000
  O   O19       1.0  0.9063395449921214  0.05387148565882429  0.2917058881552633  1.0000
  O   O20       1.0  0.05387364406529123  0.2917040605294616  0.9063392116878505  1.0000
  O   O21       1.0  0.29170581306247095  0.9063378887825169  0.05387303610291378  1.0000
