data_image0
_chemical_formula_structural       Zn4H30C61N16O2
_chemical_formula_sum              "Zn4 H30 C61 N16 O2"
_cell_length_a       19.260286378488924
_cell_length_b       20.273637599613018
_cell_length_c       20.23412395425741
_cell_angle_alpha    107.65565699385904
_cell_angle_beta     111.11731999339703
_cell_angle_gamma    108.09779070227765

_space_group_name_H-M_alt    "P 1"
_space_group_IT_number       1

loop_
  _space_group_symop_operation_xyz
  'x, y, z'

loop_
  _atom_site_type_symbol
  _atom_site_label
  _atom_site_symmetry_multiplicity
  _atom_site_fract_x
  _atom_site_fract_y
  _atom_site_fract_z
  _atom_site_occupancy
  Zn  Zn1       1.0  0.10685835437557503  0.49232040834298363  0.11099191223843978  1.0000
  Zn  Zn2       1.0  0.8732589846443661  0.4835738090580223  0.8849637001517795  1.0000
  Zn  Zn3       1.0  0.8908621251468671  0.3852470454274409  0.0008307240528467806  1.0000
  Zn  Zn4       1.0  0.0942568534418132  0.5892060209347464  0.9940397094833746  1.0000
  H   H1        1.0  0.1211281047756714  0.3491141325122554  0.0017356805700928317  1.0000
  H   H2        1.0  0.1277376870765536  0.6784012413808111  0.5254637520103389  1.0000
  H   H3        1.0  0.1260188915012393  0.6779250980787949  0.6471459826176729  1.0000
  H   H4        1.0  0.5322291169143584  0.8467343190884122  0.49268997140121973  1.0000
  H   H5        1.0  0.6593396773452653  0.9669567509654796  0.6100497912535234  1.0000
  H   H6        1.0  0.634723432338923  0.0944504684562516  0.47430585602567993  1.0000
  H   H7        1.0  0.5076719539011166  0.9742204380590919  0.3568981704559208  1.0000
  H   H8        1.0  0.14656500266113448  0.0901814008382616  0.9585683597992872  1.0000
  H   H9        1.0  0.1415835752539822  0.9642849733323969  0.9514269899190926  1.0000
  H   H10       1.0  0.8701521133024314  0.8475794328181577  0.8065149284578158  1.0000
  H   H11       1.0  0.8752129245588167  0.9735685424017788  0.8138549328149768  1.0000
  H   H12       1.0  0.799574562334911  0.575187701932265  0.9719986798229248  1.0000
  H   H13       1.0  0.8619897988796055  0.23339638386302383  0.8567842785585286  1.0000
  H   H14       1.0  0.19739653862329493  0.5323361393050375  0.9238670605034972  1.0000
  H   H15       1.0  0.7573360580972235  0.3272807552699035  0.7038088722323368  1.0000
  H   H16       1.0  0.2971167474906622  0.5011996318689286  0.13516943337739215  1.0000
  H   H17       1.0  0.8822928683238729  0.20344596875900567  0.9727438201657465  1.0000
  H   H18       1.0  0.22011248122741742  0.6481833788888594  0.2759162002237334  1.0000
  H   H19       1.0  0.17628867224811276  0.6093643356231127  0.36282098726110973  1.0000
  H   H20       1.0  0.12773409879962122  0.5126167985059453  0.34815490167368085  1.0000
  H   H21       1.0  0.18713468753237816  0.5335599949292983  0.3005397752580878  1.0000
  H   H22       1.0  0.8388481774896306  0.46944851892936856  0.6638871685427292  1.0000
  H   H23       1.0  0.8787283488797756  0.5086526692792007  0.13728424766243574  1.0000
  H   H24       1.0  0.14701262524906875  0.6695788370887498  0.8366389880180738  1.0000
  H   H25       1.0  0.10272097201875849  0.7500049667226776  0.034899244577069104  1.0000
  H   H26       1.0  0.8441900913013997  0.6227657739783865  0.8381177698393647  1.0000
  H   H27       1.0  0.2678512806167532  0.7584611732687705  0.13311908993658525  1.0000
  H   H28       1.0  0.7133956704924458  0.37716224788073294  0.016718943763500246  1.0000
  H   H29       1.0  0.85382498437005  0.5668924595816022  0.5175439429854409  1.0000
  H   H30       1.0  0.8556109317799212  0.5666141652213523  0.3955629942537585  1.0000
  C   C1        1.0  0.0615636698290345  0.32516917847951277  0.0004668317927994035  1.0000
  C   C2        1.0  0.06561305023704027  0.5283081112964966  0.24740077019851023  1.0000
  C   C3        1.0  0.24291108200958428  0.721082577287575  0.15635220783659087  1.0000
  C   C4        1.0  0.931442076080657  0.5022726625059307  0.7649359722802278  1.0000
  C   C5        1.0  0.7433494055155592  0.42100273701362306  0.0019478056130424676  1.0000
  C   C6        1.0  0.2792080982526032  0.729495240005768  0.23454421338875173  1.0000
  C   C7        1.0  0.7308171735624285  0.48601441965278264  0.0014555472470550181  1.0000
  C   C8        1.0  0.9983568950402457  0.5434768049868453  0.2465152414130643  1.0000
  C   C9        1.0  0.9795452295568479  0.7149062125643223  0.9288549817389865  1.0000
  C   C10       1.0  0.35224523785505113  0.5256593672805892  0.023152196079067384  1.0000
  C   C11       1.0  0.4182179898694045  0.5301406135555949  0.02506333496545219  1.0000
  C   C12       1.0  0.9948998721949706  0.5601363356066996  0.7638455599005173  1.0000
  C   C13       1.0  0.4883424638487243  0.5308722297756604  0.026048475345895456  1.0000
  C   C14       1.0  0.5513292146383507  0.5276553395206846  0.025788552618571783  1.0000
  C   C15       1.0  0.6159193113301527  0.5184544753481647  0.021955486563072762  1.0000
  C   C16       1.0  0.8413353179049493  0.2685354045048313  0.8317252309224019  1.0000
  C   C17       1.0  0.6718945401729853  0.505783013104633  0.014612277645071059  1.0000
  C   C18       1.0  0.9147282242188696  0.591029421492202  0.4507930619782886  1.0000
  C   C19       1.0  0.99160109008168  0.6184443675679319  0.45051952640805865  1.0000
  C   C20       1.0  0.06779122436488913  0.6537853683151766  0.5238435013600269  1.0000
  C   C21       1.0  0.06685798879242823  0.6535727772538067  0.5919446155520804  1.0000
  C   C22       1.0  0.9895584922742275  0.6182849556322054  0.5896937921873973  1.0000
  C   C23       1.0  0.7945865714880115  0.24832060177673995  0.7502287507053186  1.0000
  C   C24       1.0  0.9137450838448584  0.5910128822455647  0.518997573267754  1.0000
  C   C25       1.0  0.9926389981033241  0.6027644274007855  0.3778880870490372  1.0000
  C   C26       1.0  0.9885162676478102  0.604429007754369  0.6537473933207354  1.0000
  C   C27       1.0  0.9901355809658765  0.583418204032334  0.7048418452006973  1.0000
  C   C28       1.0  0.20921495613595203  0.5233192395484494  0.9762546560408867  1.0000
  C   C29       1.0  0.9925811805291289  0.5777254583638723  0.31470155018440255  1.0000
  C   C30       1.0  0.6260176441920962  0.9682913162259081  0.5544387978788808  1.0000
  C   C31       1.0  0.6538320132560855  0.04006576124334063  0.5515451978059503  1.0000
  C   C32       1.0  0.6120977932894719  0.03998998612394893  0.4779464571055741  1.0000
  C   C33       1.0  0.5411496424901119  0.9729389273425824  0.4125113188464059  1.0000
  C   C34       1.0  0.2794276764061223  0.5193075282604908  0.026641692138660786  1.0000
  C   C35       1.0  0.5088799951312026  0.9029537227796354  0.4176748390986094  1.0000
  C   C36       1.0  0.5548369043954438  0.9011422754396532  0.48891933647455255  1.0000
  C   C37       1.0  0.7149955921770114  0.11211541505658565  0.6215797716376275  1.0000
  C   C38       1.0  0.43017583494361145  0.8388014245146138  0.35414182053537524  1.0000
  C   C39       1.0  0.3591204569423708  0.7879826411257298  0.3000002949441695  1.0000
  C   C40       1.0  0.7867225785799903  0.31572382725437365  0.7527558741068748  1.0000
  C   C41       1.0  0.7564160768678434  0.17565077872170326  0.6820234258571818  1.0000
  C   C42       1.0  0.08330905034267042  0.9664593462927299  0.9212384562089116  1.0000
  C   C43       1.0  0.005112096845543768  0.8981389558044057  0.8826838916890343  1.0000
  C   C44       1.0  0.9305675845691468  0.9009009068694522  0.8397863377405133  1.0000
  C   C45       1.0  0.218232149155952  0.664196094966094  0.2290159742277071  1.0000
  C   C46       1.0  0.933426455133187  0.9712958345163684  0.8439848091752967  1.0000
  C   C47       1.0  0.010894340242849434  0.04170626669949213  0.8910270568727798  1.0000
  C   C48       1.0  0.08615091206546324  0.036877665070896626  0.9252601603762687  1.0000
  C   C49       1.0  0.9998861792682663  0.8313465435902215  0.8933882305588131  1.0000
  C   C50       1.0  0.011594080917106321  0.11529127078987479  0.9113668244119212  1.0000
  C   C51       1.0  0.0108525302424383  0.17755851907486414  0.9389231439887313  1.0000
  C   C52       1.0  0.26051621778823625  0.50793645000725  0.08489158692171377  1.0000
  C   C53       1.0  0.9915704375730742  0.7777488847316077  0.9107909375468852  1.0000
  C   C54       1.0  0.06612077175945781  0.5895244679121131  0.8391409934676236  1.0000
  C   C55       1.0  0.9395758829922087  0.250811481215493  0.9862169127780622  1.0000
  C   C56       1.0  0.7878838545361688  0.5228315221769718  0.9796661927760443  1.0000
  C   C57       1.0  0.005192424734005491  0.24615446842006602  0.9724730662186406  1.0000
  C   C58       1.0  0.1436142989547164  0.5471628521986247  0.31815794282339044  1.0000
  C   C59       1.0  0.9397071206628879  0.5105742261706254  0.16448941044675552  1.0000
  C   C60       1.0  0.0376063499030864  0.7073954580950925  0.9891790193051624  1.0000
  C   C61       1.0  0.905303520733895  0.6426794628430059  0.8885682800846841  1.0000
  N   N1        1.0  0.03171078315948252  0.3722697468566523  0.028427672526888253  1.0000
  N   N2        1.0  0.8585545461063829  0.34132805386575865  0.8788878254497663  1.0000
  N   N3        1.0  0.15387105650415123  0.515592932883571  0.002944152773764703  1.0000
  N   N4        1.0  0.8238999729485172  0.3696680069700803  0.8293680575217908  1.0000
  N   N5        1.0  0.18618392921624155  0.5061276374381194  0.06973877753866035  1.0000
  N   N6        1.0  0.04653034341553303  0.551960986782859  0.8788480966822976  1.0000
  N   N7        1.0  0.9561512978586606  0.32616090380882656  0.019658269457338014  1.0000
  N   N8        1.0  0.15189678116981045  0.6198292265368508  0.1535821257619575  1.0000
  N   N9        1.0  0.8294833518126766  0.48235910803007437  0.9672974182983157  1.0000
  N   N10       1.0  0.9685929819893813  0.47747686289203967  0.11959778998377167  1.0000
  N   N11       1.0  0.0016343409641592522  0.6360275636576772  0.9841330814910736  1.0000
  N   N12       1.0  0.9197773513858398  0.5970346312787458  0.9222405382043567  1.0000
  N   N13       1.0  0.04635127828921531  0.488614785203353  0.17126126795377436  1.0000
  N   N14       1.0  0.16784577995433386  0.6558337496415163  0.10960528777965826  1.0000
  N   N15       1.0  0.8016941640832937  0.41951386730885754  0.9810504183566311  1.0000
  N   N16       1.0  0.9609653344470035  0.49661926984413174  0.8324384133332717  1.0000
  O   O1        1.0  0.8480879255398647  0.4575500405929984  0.7086260110244711  1.0000
  O   O2        1.0  0.14556284134921085  0.6475423074707578  0.8731452517458894  1.0000
