data_image0
_chemical_formula_structural       Zn2H34C36N4O10
_chemical_formula_sum              "Zn2 H34 C36 N4 O10"
_cell_length_a       8.477893708399336
_cell_length_b       9.771874244126044
_cell_length_c       11.498196926965923
_cell_angle_alpha    69.23872682350571
_cell_angle_beta     69.61959001969382
_cell_angle_gamma    65.48881114704909

_space_group_name_H-M_alt    "P 1"
_space_group_IT_number       1

loop_
  _space_group_symop_operation_xyz
  'x, y, z'

loop_
  _atom_site_type_symbol
  _atom_site_label
  _atom_site_symmetry_multiplicity
  _atom_site_fract_x
  _atom_site_fract_y
  _atom_site_fract_z
  _atom_site_occupancy
  Zn  Zn1       1.0  0.6611443262996917  0.09149079082006752  0.5600574334315951  1.0000
  Zn  Zn2       1.0  0.33885798587576943  0.9085065215751483  0.4399417550291388  1.0000
  H   H1        1.0  0.8741029326357153  0.6325111522912864  0.7762203069754178  1.0000
  H   H2        1.0  0.12588962732445455  0.3674919915921961  0.22377959597045557  1.0000
  H   H3        1.0  0.7586351032455454  0.42240283591911526  0.8038361361188179  1.0000
  H   H4        1.0  0.24135790202589644  0.5775991458493551  0.19616313414307027  1.0000
  H   H5        1.0  0.938994954474538  0.21833301096373245  0.6855419427804108  1.0000
  H   H6        1.0  0.061000180414289736  0.7816666467779851  0.31445835740895944  1.0000
  H   H7        1.0  0.3503379479073131  0.42899832086460776  0.514648404136267  1.0000
  H   H8        1.0  0.6496622328467724  0.5709978528443856  0.48535775487506055  1.0000
  H   H9        1.0  0.5834100905638806  0.36853498209335095  0.6621838241757414  1.0000
  H   H10       1.0  0.41659385129714366  0.6314646447232876  0.33781599431868153  1.0000
  H   H11       1.0  0.14665738192871197  0.261677890306629  0.0854690246626078  1.0000
  H   H12       1.0  0.8533415475283946  0.73832174931713  0.9145285805502537  1.0000
  H   H13       1.0  0.24075834061914486  0.9667752554856435  0.1315406532324842  1.0000
  H   H14       1.0  0.7592426021611657  0.033229014480213  0.8684567877398238  1.0000
  H   H15       1.0  0.27553311554707716  0.8299497171141892  0.05028272889749979  1.0000
  H   H16       1.0  0.7244683060058534  0.17004991951105097  0.9497177249312116  1.0000
  H   H17       1.0  0.5502352218066379  0.808767259244206  0.7225836996490427  1.0000
  H   H18       1.0  0.4497682817961817  0.19123352798492016  0.2774158805418309  1.0000
  H   H19       1.0  0.3224036526668641  0.8368324805838084  0.7928463745327503  1.0000
  H   H20       1.0  0.6776011657105555  0.16316482540784696  0.20715392056875706  1.0000
  H   H21       1.0  0.4782563188170315  0.7387856470323301  0.8917871994396264  1.0000
  H   H22       1.0  0.5217501433520796  0.2612139699756995  0.10821198372050125  1.0000
  H   H23       1.0  0.22090360646658513  0.5063192765763277  0.00595355164857377  1.0000
  H   H24       1.0  0.7790923644242229  0.49368153326852826  0.9940444505950339  1.0000
  H   H25       1.0  0.4375693147524089  0.556971826731768  0.8000211670481292  1.0000
  H   H26       1.0  0.5624262037740668  0.44303014693061726  0.19997833886699812  1.0000
  H   H27       1.0  0.9534996867138404  0.9610134243621431  0.14726554133375197  1.0000
  H   H28       1.0  0.0465012895278107  0.03898737437810949  0.8527355451789518  1.0000
  H   H29       1.0  0.9686148748298539  0.1414949619943542  0.04593322750620375  1.0000
  H   H30       1.0  0.03138484831082168  0.858505839947682  0.9540673056861095  1.0000
  H   H31       1.0  0.9595630747728807  0.9262537670630024  0.6685865529847561  1.0000
  H   H32       1.0  0.04044051166277279  0.07374353702286379  0.3314105758337575  1.0000
  H   H33       1.0  0.9821256675245211  0.08203596023113137  0.5804511396712826  1.0000
  H   H34       1.0  0.017880856318221602  0.917960178741204  0.4195482050790957  1.0000
  C   C1        1.0  0.17636357964777727  0.6776947243602294  0.6260563857151951  1.0000
  C   C2        1.0  0.8236370270623682  0.32230375505430686  0.3739437530966683  1.0000
  C   C3        1.0  0.11762758194536377  0.5447507782045587  0.6436288762056392  1.0000
  C   C4        1.0  0.8823696138341433  0.4552500352486105  0.356373163308497  1.0000
  C   C5        1.0  0.9524248439334428  0.5405665225561479  0.7263032563274622  1.0000
  C   C6        1.0  0.04757192769400123  0.45943544790446106  0.27369680290805587  1.0000
  C   C7        1.0  0.8889823073406617  0.4233710079260717  0.7412761360695512  1.0000
  C   C8        1.0  0.11101319707967153  0.5766309691413625  0.2587251118206524  1.0000
  C   C9        1.0  0.9906682901788813  0.30829612738058626  0.6745665664762085  1.0000
  C   C10       1.0  0.009326008707958477  0.6917023782579861  0.3254360316589242  1.0000
  C   C11       1.0  0.15860102661263653  0.30860137303440627  0.5938504067797511  1.0000
  C   C12       1.0  0.8413970315771384  0.691397122998829  0.40615385131655285  1.0000
  C   C13       1.0  0.22036831128200876  0.4283338351974492  0.5778389007507698  1.0000
  C   C14       1.0  0.7796301851659635  0.5716635004232913  0.4221655956490836  1.0000
  C   C15       1.0  0.2750962653538381  0.18371434073718254  0.5242678313920166  1.0000
  C   C16       1.0  0.724903896045042  0.8162853007923586  0.475732940103839  1.0000
  C   C17       1.0  0.49181178193586556  0.34477201808045516  0.75460091941396  1.0000
  C   C18       1.0  0.5081900849283301  0.655226456429773  0.24539890173075918  1.0000
  C   C19       1.0  0.44774228333078975  0.20928502469104865  0.7978206811458081  1.0000
  C   C20       1.0  0.5522582758118729  0.7907169293541257  0.2021775541007358  1.0000
  C   C21       1.0  0.24378123449665878  0.2835080111179096  0.9953943916906809  1.0000
  C   C22       1.0  0.7562159894951321  0.7164927955251627  0.0046041638733100255  1.0000
  C   C23       1.0  0.42521536248226977  0.9832093139705262  0.8256669802065557  1.0000
  C   C24       1.0  0.5747885793787474  0.016790312846104903  0.1743328382878673  1.0000
  C   C25       1.0  0.32894116796055084  0.17890736456764955  0.9177344021746591  1.0000
  C   C26       1.0  0.6710573161852835  0.8210934371711216  0.08226383572218775  1.0000
  C   C27       1.0  0.21893960235414767  0.9540545070194851  0.04783523966339929  1.0000
  C   C28       1.0  0.781062648147696  0.045946283411417696  0.952163787207084  1.0000
  C   C29       1.0  0.4454012143092072  0.8335463101954517  0.8078384265539783  1.0000
  C   C30       1.0  0.5546035494476625  0.1664544721293737  0.19216083596974431  1.0000
  C   C31       1.0  0.2866739772567826  0.41948303123727726  0.9500575377217473  1.0000
  C   C32       1.0  0.7133228084768036  0.580518935818283  0.04994077953870141  1.0000
  C   C33       1.0  0.41015253436035704  0.4482511518544782  0.8328295028701689  1.0000
  C   C34       1.0  0.5898459497854844  0.5517496498842859  0.16716873502668506  1.0000
  C   C35       1.0  0.0204636198002817  0.016012045470859  0.052339603905920684  1.0000
  C   C36       1.0  0.9795373564413766  0.9839887532693935  0.947661482606783  1.0000
  N   N1        1.0  0.5036473859543946  0.08594255756163698  0.7422153162412215  1.0000
  N   N2        1.0  0.49635485044130695  0.9140582362743074  0.2577854526043382  1.0000
  N   N3        1.0  0.3202881686150861  0.034518550641408303  0.9332518553770939  1.0000
  N   N4        1.0  0.6797111374265936  0.9654834066055499  0.06674582654906665  1.0000
  O   O1        1.0  0.09986587005246152  0.7583636590424803  0.7076939355469775  1.0000
  O   O2        1.0  0.9001368733281295  0.241632494642765  0.2923063622048403  1.0000
  O   O3        1.0  0.29946342307527385  0.7024106980804914  0.5255448908740376  1.0000
  O   O4        1.0  0.7005342391747149  0.29758894815009274  0.4744539029935028  1.0000
  O   O5        1.0  0.43809326587004466  0.16813670510887851  0.4771400689553004  1.0000
  O   O6        1.0  0.5619059432326736  0.8318687386863883  0.5228618063182894  1.0000
  O   O7        1.0  0.201194984819253  0.09820756211576759  0.5126387786490695  1.0000
  O   O8        1.0  0.7988102718163718  0.9017885834634  0.4873617547559873  1.0000
  O   O9        1.0  0.8873930061906848  0.03754126243206459  0.6367925188743583  1.0000
  O   O10       1.0  0.11261184745207956  0.9624560350469689  0.3632034212894766  1.0000
