data_image0
_chemical_formula_structural       Co2H18C24N6O8
_chemical_formula_sum              "Co2 H18 C24 N6 O8"
_cell_length_a       9.396207963187527
_cell_length_b       8.677050487695357
_cell_length_c       10.027095972762966
_cell_angle_alpha    63.087193315092414
_cell_angle_beta     73.85921452794871
_cell_angle_gamma    82.53218769072002

_space_group_name_H-M_alt    "P 1"
_space_group_IT_number       1

loop_
  _space_group_symop_operation_xyz
  'x, y, z'

loop_
  _atom_site_type_symbol
  _atom_site_label
  _atom_site_symmetry_multiplicity
  _atom_site_fract_x
  _atom_site_fract_y
  _atom_site_fract_z
  _atom_site_occupancy
  Co  Co1       1.0  0.3518505253782677  0.08178139916041259  0.1319866785122343  1.0000
  Co  Co2       1.0  0.6481489221873532  0.9182178338257999  0.8680137572208511  1.0000
  H   H1        1.0  0.15163491637041907  0.3253311640328889  0.15083869669077649  1.0000
  H   H2        1.0  0.8483678898255392  0.6746680169274059  0.84915792434132  1.0000
  H   H3        1.0  0.6083578494181763  0.6576159697107259  0.71645885106026  1.0000
  H   H4        1.0  0.3916371394902782  0.34238459357256096  0.2835441655100794  1.0000
  H   H5        1.0  0.9404083663400085  0.16560872645655417  0.9770606580423121  1.0000
  H   H6        1.0  0.05959775945304101  0.8343878806194384  0.022937159150281203  1.0000
  H   H7        1.0  0.6208850687052703  0.9164310258624798  0.40855290512076436  1.0000
  H   H8        1.0  0.3791154638405629  0.083575959656784  0.5914441491487634  1.0000
  H   H9        1.0  0.9882699322711163  0.18364963522208913  0.38737848277258286  1.0000
  H   H10       1.0  0.0117317236343055  0.8163560405952598  0.6126178172548578  1.0000
  H   H11       1.0  0.0895682164558451  0.4774080766544629  0.8847510753201533  1.0000
  H   H12       1.0  0.910429050354793  0.5225911124388106  0.11524693328234996  1.0000
  H   H13       1.0  0.152175549118148  0.2793303452581527  0.8760627648866333  1.0000
  H   H14       1.0  0.8478228255695585  0.720668842208525  0.12393496620179434  1.0000
  H   H15       1.0  0.34403310712364993  0.6928461926973171  0.6883254632875762  1.0000
  H   H16       1.0  0.655964105171215  0.30715178261289827  0.3116780329044175  1.0000
  H   H17       1.0  0.6553940038044317  0.3501772880179814  0.9163000111770144  1.0000
  H   H18       1.0  0.3446009927363107  0.6498206905454325  0.08370404004315195  1.0000
  C   C1        1.0  0.98650907899966  0.1809685607356002  0.17231768505605058  1.0000
  C   C2        1.0  0.0134948388894998  0.8190293262381516  0.8276791757868767  1.0000
  C   C3        1.0  0.9044894992632848  0.13283713728712604  0.0996870235853891  1.0000
  C   C4        1.0  0.09551439910924839  0.8671594887574372  0.9003123426882809  1.0000
  C   C5        1.0  0.7717928708030611  0.041471483406510905  0.1850158370730028  1.0000
  C   C6        1.0  0.22820991587627049  0.9585264366245954  0.8149832893898362  1.0000
  C   C7        1.0  0.7234323945250906  0.9890381832282814  0.34437420022843684  1.0000
  C   C8        1.0  0.27656926519647124  0.010966200229127301  0.6556226171239173  1.0000
  C   C9        1.0  0.8038680020960669  0.039716132365136  0.41613698214970896  1.0000
  C   C10       1.0  0.1961336497752555  0.9602869744477047  0.5838613465804768  1.0000
  C   C11       1.0  0.9313187910181923  0.1396270706891158  0.3298663149846064  1.0000
  C   C12       1.0  0.0686828918181774  0.8603734199730867  0.6701310602895774  1.0000
  C   C13       1.0  0.16290068674479133  0.36503042101642796  0.92656011608927  1.0000
  C   C14       1.0  0.8370965605492273  0.6349675071476567  0.07344039794398342  1.0000
  C   C15       1.0  0.319106882951651  0.4230088035391333  0.8786278280137906  1.0000
  C   C16       1.0  0.6808892564652993  0.5769891262515545  0.12137296353353828  1.0000
  C   C17       1.0  0.38672407530754066  0.575792277166535  0.7681788583445552  1.0000
  C   C18       1.0  0.6132731295730025  0.42421214422801506  0.2318210571699595  1.0000
  C   C19       1.0  0.5509833919319646  0.39879682034611363  0.8860895882642125  1.0000
  C   C20       1.0  0.4490138165467599  0.6012024473240417  0.1139133906028746  1.0000
  C   C21       1.0  0.6764460367570349  0.007268494489814301  0.10410417410500375  1.0000
  C   C22       1.0  0.3235533836596716  0.9927320622870965  0.8958977324090043  1.0000
  C   C23       1.0  0.7518819015232906  0.9970954475795466  0.5834491251133757  1.0000
  C   C24       1.0  0.24811752292752232  0.0029076782018648997  0.41655075269788705  1.0000
  N   N1        1.0  0.1227815628113973  0.2659578168219738  0.09470805547784523  1.0000
  N   N2        1.0  0.8772201238411127  0.7340413814802889  0.9052898371212522  1.0000
  N   N3        1.0  0.42302199958391634  0.31317909942495  0.9519964488204948  1.0000
  N   N4        1.0  0.5769763555871634  0.686818827112539  0.04800378769867571  1.0000
  N   N5        1.0  0.5328618004542562  0.5573696470271868  0.7739311925765904  1.0000
  N   N6        1.0  0.46713539635808127  0.44262963635834757  0.2260727803434079  1.0000
  O   O1        1.0  0.54185519841797  0.9664076598899244  0.17656645704875742  1.0000
  O   O2        1.0  0.4581452910605108  0.03359423476646129  0.8234376367850017  1.0000
  O   O3        1.0  0.7357080718297767  0.0231376949219211  0.9673490882833632  1.0000
  O   O4        1.0  0.26428805210465356  0.9768615429440858  0.032652179991970495  1.0000
  O   O5        1.0  0.6959043070525439  0.8459767241443074  0.6807317044162462  1.0000
  O   O6        1.0  0.30409291734461863  0.1540289581794241  0.3192657056675259  1.0000
  O   O7        1.0  0.7633995355483948  0.10566057589065281  0.630968326369171  1.0000
  O   O8        1.0  0.23660320871746174  0.8943438373709114  0.36903020157493677  1.0000
