data_image0
_chemical_formula_structural       Ag4H32C32S8N8Cl12O24
_chemical_formula_sum              "Ag4 H32 C32 S8 N8 Cl12 O24"
_cell_length_a       9.697648320637278
_cell_length_b       13.286620814295029
_cell_length_c       13.740274006809422
_cell_angle_alpha    103.52618602310073
_cell_angle_beta     109.45539572461206
_cell_angle_gamma    95.88776890580282

_space_group_name_H-M_alt    "P 1"
_space_group_IT_number       1

loop_
  _space_group_symop_operation_xyz
  'x, y, z'

loop_
  _atom_site_type_symbol
  _atom_site_label
  _atom_site_symmetry_multiplicity
  _atom_site_fract_x
  _atom_site_fract_y
  _atom_site_fract_z
  _atom_site_occupancy
  Ag  Ag1       1.0  0.9855855572951742  0.4248190482866078  0.2301004992039636  1.0000
  Ag  Ag2       1.0  0.014417257507879769  0.5751815585615674  0.7699014456160284  1.0000
  Ag  Ag3       1.0  6.0651196094009e-08  0.5000001037075562  9.623112333599812e-07  1.0000
  Ag  Ag4       1.0  6.235040572250805e-07  0.5000003256348575  0.500001217903012  1.0000
  H   H1        1.0  0.03640119642945191  0.187856921144359  0.11957223006077558  1.0000
  H   H2        1.0  0.9636018343614836  0.8121444752574262  0.8804299422132684  1.0000
  H   H3        1.0  0.3023344063287112  0.4508006603423381  0.9936099140226913  1.0000
  H   H4        1.0  0.6976671012987127  0.5491991502471123  0.006390088324380403  1.0000
  H   H5        1.0  0.47659840373779633  0.41147770080588936  0.05170800404262367  1.0000
  H   H6        1.0  0.5234028863251652  0.5885213222765344  0.9482924987263316  1.0000
  H   H7        1.0  0.39123537555844484  0.48363930265620075  0.1357005671511757  1.0000
  H   H8        1.0  0.6087650393046574  0.5163605032747043  0.8642984480529703  1.0000
  H   H9        1.0  0.08914289162701997  0.7725289995793005  0.14865480335657105  1.0000
  H   H10       1.0  0.9108564273185923  0.2274708057862256  0.8513446804565062  1.0000
  H   H11       1.0  0.7263750729969303  0.5330073250659308  0.1930632507683682  1.0000
  H   H12       1.0  0.27362467477128405  0.46699406349997474  0.8069381437046842  1.0000
  H   H13       1.0  0.6055818643593014  0.6240127856637302  0.2093800151516447  1.0000
  H   H14       1.0  0.39441766899761194  0.3759878113019894  0.7906204239914131  1.0000
  H   H15       1.0  0.7491003816149302  0.6086163592016262  0.3255578794809182  1.0000
  H   H16       1.0  0.25089915174199007  0.39138423776409315  0.6744425596621466  1.0000
  H   H17       1.0  0.054830363403674164  0.7797122855162611  0.5075502493793564  1.0000
  H   H18       1.0  0.94516828844705  0.22028910248427278  0.4924516137026202  1.0000
  H   H19       1.0  0.30742964361454733  0.5445528688378403  0.3410377234051649  1.0000
  H   H20       1.0  0.6925709840832753  0.45544773073984146  0.658962975004897  1.0000
  H   H21       1.0  0.4691278132907257  0.64000192930623  0.36606893179398964  1.0000
  H   H22       1.0  0.5308719344774957  0.3599994592596829  0.6339324626790628  1.0000
  H   H23       1.0  0.3082856322377907  0.6124110110126892  0.24283166767657594  1.0000
  H   H24       1.0  0.6917138995425489  0.3875895879996064  0.7571694993424172  1.0000
  H   H25       1.0  0.8213532106020909  0.18069968863616026  0.20486228333118817  1.0000
  H   H26       1.0  0.17864588268389522  0.8193032661920937  0.7951356674033219  1.0000
  H   H27       1.0  0.6734453457107891  0.4448109086951463  0.4596826595478943  1.0000
  H   H28       1.0  0.32655594592875303  0.5551881123406943  0.5403171153451323  1.0000
  H   H29       1.0  0.4782522810015593  0.38717331257266346  0.3910081874478165  1.0000
  H   H30       1.0  0.5217490074848214  0.6128257125563437  0.6089930431970669  1.0000
  H   H31       1.0  0.5746947361610637  0.45892758608027856  0.330182233281043  1.0000
  H   H32       1.0  0.4253050116071578  0.5410738024856344  0.6698191611920093  1.0000
  C   C1        1.0  0.17440109871268558  0.3180349847828623  0.09663829462859035  1.0000
  C   C2        1.0  0.8256004073381648  0.6819648278531715  0.9033624355944168  1.0000
  C   C3        1.0  0.12663820754742264  0.21110487505365674  0.09447951130668027  1.0000
  C   C4        1.0  0.8733637289026106  0.7888965187361736  0.9055224017003665  1.0000
  C   C5        1.0  0.21007879292120182  0.1455192041511708  0.05909413913662579  1.0000
  C   C6        1.0  0.7899194285303469  0.85448060269556  0.9409065411613112  1.0000
  C   C7        1.0  0.3705979054613309  0.4234536047362027  0.05999457242558042  1.0000
  C   C8        1.0  0.6294033846016307  0.576545418346214  0.9400059303433748  1.0000
  C   C9        1.0  0.9267348758181202  0.6709011629430109  0.1846543845243643  1.0000
  C   C10       1.0  0.07326465753879319  0.32909943402270864  0.8153460546187006  1.0000
  C   C11       1.0  0.0033810900561661293  0.7691387059856395  0.18299074002131008  1.0000
  C   C12       1.0  0.9966182273128653  0.23086110142646987  0.8170094716676956  1.0000
  C   C13       1.0  0.9552824385063162  0.8536904073263687  0.22958179951581312  1.0000
  C   C14       1.0  0.044714910898527194  0.1463101782756837  0.7704159374654577  1.0000
  C   C15       1.0  0.7188800087419338  0.6089952328919708  0.24136179527494758  1.0000
  C   C16       1.0  0.2811197406028684  0.3910061536273588  0.7586388713221692  1.0000
  C   C17       1.0  0.16966085347426937  0.6792283573342743  0.4189053380501375  1.0000
  C   C18       1.0  0.8303367200136194  0.32076908085163325  0.5810946598856359  1.0000
  C   C19       1.0  0.13942437867881807  0.7772292688343682  0.4718778974961848  1.0000
  C   C20       1.0  0.8605738427727233  0.22277053801236238  0.5281227828017521  1.0000
  C   C21       1.0  0.22897856616384618  0.8625175741455205  0.47053750600844757  1.0000
  C   C22       1.0  0.7710198744287382  0.13748301816165306  0.5294619459916843  1.0000
  C   C23       1.0  0.34697781946897527  0.6193144616794227  0.32918500317740035  1.0000
  C   C24       1.0  0.6530225906643851  0.38068535039123214  0.6708161956545382  1.0000
  C   C25       1.0  0.7383701985397622  0.3067535462677852  0.29445861696607517  1.0000
  C   C26       1.0  0.26163064672252295  0.6932478408169235  0.7055415810221105  1.0000
  C   C27       1.0  0.7386054429224985  0.20051353301056446  0.23921792607026043  1.0000
  C   C28       1.0  0.26139890135039684  0.7994886514636336  0.7607832771729831  1.0000
  C   C29       1.0  0.6247148820344961  0.13000734916878537  0.23754048791933252  1.0000
  C   C30       1.0  0.37528815821593037  0.8699940349535141  0.7624573170991338  1.0000
  C   C31       1.0  0.5844403146890046  0.40558453694762875  0.38116491439075156  1.0000
  C   C32       1.0  0.41556009702093644  0.5944152730764429  0.6188355565652585  1.0000
  S   S1        1.0  0.3452662095654162  0.20835383622993936  0.026257614194108162  1.0000
  S   S2        1.0  0.6547322294505946  0.791646758123818  0.9737425656819594  1.0000
  S   S3        1.0  0.8180472445228447  0.8189981034428937  0.27601414894527915  1.0000
  S   S4        1.0  0.18195098323501924  0.18100169521751036  0.7239836198489371  1.0000
  S   S5        1.0  0.3512460988310622  0.8295619837631988  0.4073130019505625  1.0000
  S   S6        1.0  0.64875452729018  0.1704386178610591  0.592688424335435  1.0000
  S   S7        1.0  0.5142555428312716  0.18797812338763714  0.30093116371775597  1.0000
  S   S8        1.0  0.4857461855137827  0.8120224706156732  0.6990668824555825  1.0000
  N   N1        1.0  0.29292519412910417  0.3247847033305078  0.0625398286099994  1.0000
  N   N2        1.0  0.7070752175808366  0.6752151066935638  0.9374606423460106  1.0000
  N   N3        1.0  0.8226032774124052  0.6900921554337598  0.23182602660610738  1.0000
  N   N4        1.0  0.17739647350897061  0.30990922903898616  0.768173912115081  1.0000
  N   N5        1.0  0.2851050283350461  0.6999168417700617  0.3837854434924494  1.0000
  N   N6        1.0  0.714895381798314  0.30008297030059333  0.6162157553394889  1.0000
  N   N7        1.0  0.6199825708445915  0.3083531910030501  0.32885430243877056  1.0000
  N   N8        1.0  0.38001806000639254  0.6916474044814649  0.6711449402194346  1.0000
  Cl  Cl1       1.0  0.2009598766064259  0.014783158133937498  0.0468237799708007  1.0000
  Cl  Cl2       1.0  0.7990394391860249  0.9852166513247623  0.9531771595941406  1.0000
  Cl  Cl3       1.0  0.015245808752979316  0.9838037548410269  0.2489576090552886  1.0000
  Cl  Cl4       1.0  0.9847517566397457  0.0161976203146352  0.7510403553800413  1.0000
  Cl  Cl5       1.0  0.2326298578821451  0.992686254017677  0.5218538543499702  1.0000
  Cl  Cl6       1.0  0.767369896192399  0.007315126361909601  0.4781446286193613  1.0000
  Cl  Cl7       1.0  0.5827576664285417  0.9967354237505786  0.18335277782987439  1.0000
  Cl  Cl8       1.0  0.4172442857872981  0.0032659495734321995  0.8166418564178668  1.0000
  Cl  Cl9       1.0  0.313005650057498  0.7098157182172072  0.03608217319974467  1.0000
  Cl  Cl10      1.0  0.686995852840184  0.2901840985119861  0.9639200127751264  1.0000
  Cl  Cl11      1.0  0.2033064889472769  0.2940172658822107  0.41272277129214524  1.0000
  Cl  Cl12      1.0  0.7966921836112634  0.705980168775909  0.5872753022828333  1.0000
  O   O1        1.0  0.12417097167500661  0.3999183390304425  0.12465739717173815  1.0000
  O   O2        1.0  0.8758316287167532  0.6000814762175466  0.8753435923182662  1.0000
  O   O3        1.0  0.9434115864666737  0.5781441557004001  0.14924315142900457  1.0000
  O   O4        1.0  0.056589041231148884  0.4218564438772816  0.8507575469810644  1.0000
  O   O5        1.0  0.10733602554437742  0.5858037364986046  0.4038429819271839  1.0000
  O   O6        1.0  0.892663072683611  0.4141952854530615  0.5961584580596265  1.0000
  O   O7        1.0  0.8275796859146354  0.3921339787197339  0.3140075292485846  1.0000
  O   O8        1.0  0.17241985059543907  0.6078666141528187  0.6859914541426164  1.0000
  O   O9        1.0  0.2288347889326943  0.6568120551198362  0.0876875596174429  1.0000
  O   O10       1.0  0.7711662804126433  0.34318618454872035  0.9123148993252455  1.0000
  O   O11       1.0  0.30346551337317607  0.6353224819439799  0.9354647045452749  1.0000
  O   O12       1.0  0.6965338024192747  0.36467732751471266  0.06453623501966632  1.0000
  O   O13       1.0  0.4693186996607253  0.7437933710022975  0.10899014691513281  1.0000
  O   O14       1.0  0.530683897577873  0.25620644833885814  0.8910122983267356  1.0000
  O   O15       1.0  0.2499625383345574  0.8000566740382808  0.01249722813782478  1.0000
  O   O16       1.0  0.7500365614700115  0.19994234586680185  0.9875034839730572  1.0000
  O   O17       1.0  0.1527538789982756  0.3450365841489074  0.4984533377286126  1.0000
  O   O18       1.0  0.8472391058678426  0.6549600478958126  0.5015432120573137  1.0000
  O   O19       1.0  0.23637730666418838  0.37173385529440145  0.3590113510856127  1.0000
  O   O20       1.0  0.7636272648449137  0.6282651776704782  0.6409906573602695  1.0000
  O   O21       1.0  0.33831363629558814  0.2551959807311093  0.4602842185256505  1.0000
  O   O22       1.0  0.6616806606881627  0.7447975146957474  0.5397177629855037  1.0000
  O   O23       1.0  0.0855581449267078  0.20720326764957522  0.33470648847605833  1.0000
  O   O24       1.0  0.9144400891374789  0.7927965228245029  0.6652883688144369  1.0000
