data_image0
_chemical_formula_structural       CaH12C10N4O8
_chemical_formula_sum              "Ca1 H12 C10 N4 O8"
_cell_length_a       6.185081140932451
_cell_length_b       6.185094358345114
_cell_length_c       10.53162545907266
_cell_angle_alpha    80.56285652549832
_cell_angle_beta     80.56286169828357
_cell_angle_gamma    62.83024641346211

_space_group_name_H-M_alt    "P 1"
_space_group_IT_number       1

loop_
  _space_group_symop_operation_xyz
  'x, y, z'

loop_
  _atom_site_type_symbol
  _atom_site_label
  _atom_site_symmetry_multiplicity
  _atom_site_fract_x
  _atom_site_fract_y
  _atom_site_fract_z
  _atom_site_occupancy
  Ca  Ca1       1.0  0.0017398182082855622  0.9982555433199068  0.5000008070712241  1.0000
  H   H1        1.0  0.494028042584098  0.7557211871333396  0.33046988093275337  1.0000
  H   H2        1.0  0.24427716781141132  0.5059658735926006  0.6695259709644859  1.0000
  H   H3        1.0  0.5085819630666606  0.9427708434819448  0.4133992486179991  1.0000
  H   H4        1.0  0.057228551026653834  0.49141603960906377  0.5865941482250889  1.0000
  H   H5        1.0  0.7049255312132701  0.44772029994301477  0.6529062993520824  1.0000
  H   H6        1.0  0.5522817235126781  0.2950704259431163  0.34708997659753743  1.0000
  H   H7        1.0  0.7003510075518165  0.5616913567638733  0.5082987636373986  1.0000
  H   H8        1.0  0.4383134282571531  0.2996294035004042  0.4916959774056338  1.0000
  H   H9        1.0  0.15435835253301627  0.09691665074851127  0.7247744208982708  1.0000
  H   H10       1.0  0.9030877769526953  0.8456455641299172  0.2752235998839936  1.0000
  H   H11       1.0  0.34644735741251503  0.8392590331470374  0.6886747045456048  1.0000
  H   H12       1.0  0.16074965187801368  0.6535524444141814  0.3113260780114473  1.0000
  C   C1        1.0  0.10498830623401287  0.2875302292678584  0.1798740313830649  1.0000
  C   C2        1.0  0.712470162111508  0.8950119620412805  0.8201295052515006  1.0000
  C   C3        1.0  0.1758243032567179  0.35364063630623116  0.05123359372623781  1.0000
  C   C4        1.0  0.6463647184428324  0.8241753099214006  0.9487742436593863  1.0000
  C   C5        1.0  0.09607212728874968  0.2921434764837727  0.9508422301229942  1.0000
  C   C6        1.0  0.7078545683514932  0.903928892904808  0.04916147057343786  1.0000
  C   C7        1.0  0.32323853702276034  0.47551416909823985  0.022595352662193598  1.0000
  C   C8        1.0  0.5244828571334992  0.6767629840602681  0.9774093572697139  1.0000
  C   C9        1.0  0.42738437363203025  0.5660239387728437  0.9027719392980487  1.0000
  C   C10       1.0  0.43398792045906737  0.572610930731784  0.09723567488892118  1.0000
  N   N1        1.0  0.04765739242979809  0.2334544469900877  0.28715239307257423  1.0000
  N   N2        1.0  0.7665415284112101  0.9523366817038265  0.7128503473060234  1.0000
  N   N3        1.0  0.028589149314157684  0.24605807740297786  0.8658272872615952  1.0000
  N   N4        1.0  0.7539377106086179  0.9714276094634114  0.1341778574380683  1.0000
  O   O1        1.0  0.46535342007844327  0.8045623640181034  0.41827190091580496  1.0000
  O   O2        1.0  0.1954358341972551  0.5346433529003036  0.5817255592622814  1.0000
  O   O3        1.0  0.8085006731851648  0.4308100615055253  0.5698176776779533  1.0000
  O   O4        1.0  0.5691910097278523  0.19149183524558572  0.4301752732533259  1.0000
  O   O5        1.0  0.24444281312310784  0.0045004982770962005  0.6492216082076325  1.0000
  O   O6        1.0  0.995509027930879  0.7555506854500322  0.3507769897954702  1.0000
  O   O7        1.0  0.4317908283149521  0.552283510337567  0.7846847124686535  1.0000
  O   O8        1.0  0.4477261414699215  0.5682032825364159  0.2153175599737338  1.0000
