data_image0
_chemical_formula_structural       Zn6H32C76O24
_chemical_formula_sum              "Zn6 H32 C76 O24"
_cell_length_a       23.75099480078158
_cell_length_b       27.896412725980397
_cell_length_c       27.89624235361782
_cell_angle_alpha    79.56609522964757
_cell_angle_beta     64.81526958410007
_cell_angle_gamma    64.81507400198123

_space_group_name_H-M_alt    "P 1"
_space_group_IT_number       1

loop_
  _space_group_symop_operation_xyz
  'x, y, z'

loop_
  _atom_site_type_symbol
  _atom_site_label
  _atom_site_symmetry_multiplicity
  _atom_site_fract_x
  _atom_site_fract_y
  _atom_site_fract_z
  _atom_site_occupancy
  Zn  Zn1       1.0  3.892265852129508e-07  0.5360375865414752  0.46396287582327744  1.0000
  Zn  Zn2       1.0  0.4462362678576637  0.9999883928720552  0.9999918171720596  1.0000
  Zn  Zn3       1.0  0.5537630171897661  7.0342881528999885e-06  1.2042574148648476e-05  1.0000
  Zn  Zn4       1.0  0.5360451314639999  0.46396121567627086  0.4639610864327751  1.0000
  Zn  Zn5       1.0  1.1882281815823023e-07  0.4639626572225027  0.5360376139183317  1.0000
  Zn  Zn6       1.0  0.4639566671955106  0.5360389652696184  0.5360388054061148  1.0000
  H   H1        1.0  0.22050698548332545  0.18867760891770757  0.18864177050596714  1.0000
  H   H2        1.0  0.4092302372073957  0.18860974234918612  0.8113026396985109  1.0000
  H   H3        1.0  0.5978705714256658  0.8113129480144038  0.8113516874312414  1.0000
  H   H4        1.0  0.40913269217820397  0.8113966595528698  0.18870778796285492  1.0000
  H   H5        1.0  0.4021294582013866  0.1886499966161921  0.18868493551348572  1.0000
  H   H6        1.0  0.590865195449339  0.8112929926920104  0.1886042550260996  1.0000
  H   H7        1.0  0.7794929398471168  0.8113613925205738  0.8113186553000065  1.0000
  H   H8        1.0  0.5907719230746693  0.18869542118695645  0.8113905036118044  1.0000
  H   H9        1.0  0.2908645452466772  0.11871200740296935  0.11867494261004907  1.0000
  H   H10       1.0  0.40963362650925444  0.11863393537345251  0.8812654686599618  1.0000
  H   H11       1.0  0.5283173132310707  0.8812790127441588  0.8813151642859085  1.0000
  H   H12       1.0  0.4095301039948822  0.8813657986734711  0.11873424395001564  1.0000
  H   H13       1.0  0.47168236573229183  0.11868630865163958  0.11871968766874376  1.0000
  H   H14       1.0  0.5904677309688395  0.8812660269720067  0.11863501474968542  1.0000
  H   H15       1.0  0.709135776424325  0.8813273902204701  0.881285819451492  1.0000
  H   H16       1.0  0.5903679453035477  0.11873143141064452  0.8813657176582697  1.0000
  H   H17       1.0  0.18843312417996563  0.25119256836199366  0.37196569284707703  1.0000
  H   H18       1.0  0.4396042739061769  0.37195932368945245  0.7488183595778043  1.0000
  H   H19       1.0  0.8116756935409412  0.7488099983036918  0.6280320021196251  1.0000
  H   H20       1.0  0.5603242404488211  0.6280400588300097  0.2511808148840302  1.0000
  H   H21       1.0  0.1883828742098287  0.3719652496458465  0.2511905244483118  1.0000
  H   H22       1.0  0.43967599994478235  0.748818103644915  0.3719596005800839  1.0000
  H   H23       1.0  0.8115036398111711  0.6280384869904623  0.748810813220196  1.0000
  H   H24       1.0  0.5603906333506997  0.2511816865599172  0.628039820527704  1.0000
  H   H25       1.0  0.11852880062025399  0.3212885306822812  0.44168705028577204  1.0000
  H   H26       1.0  0.43979549703556814  0.44167609935917074  0.6787151676060861  1.0000
  H   H27       1.0  0.8815855251502921  0.678709678927035  0.5583119673473222  1.0000
  H   H28       1.0  0.5601377175857677  0.5583209066952791  0.32128374908280954  1.0000
  H   H29       1.0  0.11848097598605269  0.4416872661796845  0.3212873192382234  1.0000
  H   H30       1.0  0.4398621818242889  0.6787155056435096  0.44167895651749245  1.0000
  H   H31       1.0  0.8814095991368943  0.5583148862869649  0.6787158678745301  1.0000
  H   H32       1.0  0.5602018084965151  0.3212846805438829  0.5583224485154831  1.0000
  C   C1        1.0  0.07253939422287199  0.4274545521662175  0.42745509663861014  1.0000
  C   C2        1.0  0.4999992209391521  0.2672093742059971  0.7327891135980311  1.0000
  C   C3        1.0  0.4487562664732321  0.8267773098061965  0.17328082141742832  1.0000
  C   C4        1.0  0.3779220672270113  0.17325620592749397  0.17327301242153229  1.0000
  C   C5        1.0  0.5512427484858549  0.8267193161902001  0.17322285045613492  1.0000
  C   C6        1.0  0.7244996396656017  0.8267529255281332  0.8267253769119451  1.0000
  C   C7        1.0  0.5511888061299358  0.17327238580785584  0.8267739362204483  1.0000
  C   C8        1.0  0.275499800738423  0.1732722113767764  0.17324993411481426  1.0000
  C   C9        1.0  0.4488115335900742  0.17322659619683378  0.8267274100673064  1.0000
  C   C10       1.0  0.6220778067781297  0.8267253567555741  0.8267446565159208  1.0000
  C   C11       1.0  0.7671997841601623  0.7327808602714183  0.7327756276745422  1.0000
  C   C12       1.0  0.31456823976306936  0.13437276360486552  0.13434880885304074  1.0000
  C   C13       1.0  0.44897362071841196  0.13432235736730996  0.8656264985712315  1.0000
  C   C14       1.0  0.5833388434467751  0.8656252280717708  0.8656420494371422  1.0000
  C   C15       1.0  0.44891855696939575  0.8656780102835101  0.1343762408531718  1.0000
  C   C16       1.0  0.4166602835541156  0.13435831519133504  0.134373512254669  1.0000
  C   C17       1.0  0.5510787793977061  0.8656243471195777  0.13432292129500217  1.0000
  C   C18       1.0  0.6854306897475976  0.8656531654861723  0.8656247536167928  1.0000
  C   C19       1.0  0.49999950673885946  0.7327904102842738  0.26720892881695596  1.0000
  C   C20       1.0  0.5510274522728688  0.13437208150051563  0.8656769139447751  1.0000
  C   C21       1.0  0.3853770178437442  0.1145943557696185  0.11459150231544164  1.0000
  C   C22       1.0  0.2327973977043029  0.2672224893857162  0.2672231096399785  1.0000
  C   C23       1.0  0.5000007284468992  0.11457482282429511  0.8854239898373637  1.0000
  C   C24       1.0  0.6146237820136804  0.8854093902413493  0.8854043431660445  1.0000
  C   C25       1.0  0.49999970695064627  0.8854202082897018  0.11457984749602446  1.0000
  C   C26       1.0  0.30665232069883075  0.19331624084239243  0.19331665199461412  1.0000
  C   C27       1.0  0.5000012866335408  0.1932975936100121  0.8066999023843242  1.0000
  C   C28       1.0  0.6933463240926442  0.8066851282721857  0.8066834752125305  1.0000
  C   C29       1.0  0.49999926222523766  0.8067013987917093  0.19329950749420274  1.0000
  C   C30       1.0  0.2669277997668828  0.2330451800588591  0.23304531416363977  1.0000
  C   C31       1.0  0.49999996553749065  0.23302777531836225  0.7669720944200408  1.0000
  C   C32       1.0  0.733071104120114  0.7669569813546246  0.7669546224886761  1.0000
  C   C33       1.0  0.5000001572831676  0.7669688402919804  0.2330303306079173  1.0000
  C   C34       1.0  0.17299775760793068  0.2929482257456471  0.36106494807471295  1.0000
  C   C35       1.0  0.46593328910550696  0.3610595956254273  0.7070609956169281  1.0000
  C   C36       1.0  0.8270629477279666  0.7070511677670339  0.6389326908598039  1.0000
  C   C37       1.0  0.49999970720226344  0.4274504001469951  0.5725496327351253  1.0000
  C   C38       1.0  0.534029265285575  0.6389374129071115  0.29293880656768323  1.0000
  C   C39       1.0  0.17296977490423868  0.36106582124298103  0.29294732764448383  1.0000
  C   C40       1.0  0.4659701306287472  0.7070606944812995  0.3610619102015421  1.0000
  C   C41       1.0  0.8269773294364878  0.6389355435500549  0.7070522615253768  1.0000
  C   C42       1.0  0.5340650532155206  0.29293830086414374  0.6389391361542496  1.0000
  C   C43       1.0  0.9274634486232143  0.5725436482296828  0.5725470705757376  1.0000
  C   C44       1.0  0.13408976849863297  0.33194553104884517  0.3998746322898727  1.0000
  C   C45       1.0  0.46602487183940133  0.3998667978758377  0.6680630367335497  1.0000
  C   C46       1.0  0.8659674409871765  0.6680558429579335  0.6001255173598923  1.0000
  C   C47       1.0  0.5339332948622297  0.6001310026253606  0.3319384355294235  1.0000
  C   C48       1.0  0.13406644181598887  0.399875757777508  0.331944041208999  1.0000
  C   C49       1.0  0.4660665458226703  0.6680609771563298  0.3998682256752988  1.0000
  C   C50       1.0  0.8658753832883116  0.6001263988940337  0.6680567136497761  1.0000
  C   C51       1.0  0.49999972968556966  0.5725493844673578  0.4274504944882907  1.0000
  C   C52       1.0  0.5339721498510172  0.3319368300391686  0.6001322266357293  1.0000
  C   C53       1.0  0.11427162925715348  0.3857279763990887  0.38572764002788074  1.0000
  C   C54       1.0  0.49999868468688635  0.3857185770726801  0.6142808605442627  1.0000
  C   C55       1.0  0.8857315180689438  0.614272600810807  0.6142725656496923  1.0000
  C   C56       1.0  0.49999958616388784  0.6142819996790152  0.3857177086689207  1.0000
  C   C57       1.0  0.19307432612522749  0.3069407324999105  0.3069389043917497  1.0000
  C   C58       1.0  0.4999984112432612  0.30693123719865417  0.6930682214520446  1.0000
  C   C59       1.0  0.8069225582645385  0.6930614286919121  0.6930593285455234  1.0000
  C   C60       1.0  0.4999998523098341  0.6930669627690946  0.306932477427722  1.0000
  C   C61       1.0  0.49999875266335186  0.9271714415050311  0.0728282982160736  1.0000
  C   C62       1.0  0.4271495356295248  0.0728376758627789  0.0728401604005243  1.0000
  C   C63       1.0  0.5000001133512696  0.0728227972124742  0.9271761107655369  1.0000
  C   C64       1.0  0.572849459533259  0.9271601280513263  0.9271614015492704  1.0000
  C   C65       1.0  0.1096076878255584  0.5000088807803992  0.5000099429187801  1.0000
  C   C66       1.0  0.609594423855107  0.49999874624783297  0.49999835695660994  1.0000
  C   C67       1.0  0.8903921834896448  0.49999050775026177  0.49999087924484115  1.0000
  C   C68       1.0  0.3904063233201426  0.5000010384641058  0.5000013891734129  1.0000
  C   C69       1.0  0.1701016999096081  0.5000202720199242  0.5000206956898695  1.0000
  C   C70       1.0  0.6700851666411792  0.500008948721522  0.5000069240522934  1.0000
  C   C71       1.0  0.8299026972172284  0.4999814937341398  0.4999799919480666  1.0000
  C   C72       1.0  0.32992240704593456  0.49999242112139786  0.49999264272641863  1.0000
  C   C73       1.0  0.22167035711744612  0.5000079408351468  0.5000076712943483  1.0000
  C   C74       1.0  0.7216456759629324  0.5000045399635553  0.5000027544038091  1.0000
  C   C75       1.0  0.7783250125402787  0.4999958049060141  0.49999408114113253  1.0000
  C   C76       1.0  0.2783471946780762  0.49999920555980976  0.49999870660580126  1.0000
  O   O1        1.0  0.05599639511088118  0.47586278115434055  0.4121225428856194  1.0000
  O   O2        1.0  0.5318427631019133  0.41211968597254867  0.5241448377543565  1.0000
  O   O3        1.0  0.9439808343830335  0.5241370017031528  0.5878807339576612  1.0000
  O   O4        1.0  0.46814195446812323  0.5878804935428406  0.47585493078204905  1.0000
  O   O5        1.0  0.056017582242446795  0.41212122512099103  0.4758619662300348  1.0000
  O   O6        1.0  0.5318586791401572  0.5241450461988038  0.41211899084667913  1.0000
  O   O7        1.0  0.9440071865021761  0.5878765809105816  0.5241384636576785  1.0000
  O   O8        1.0  0.468157960395253  0.4758547398234255  0.5878802060665722  1.0000
  O   O9        1.0  0.08578607799523746  0.5320806856605529  0.46791718367016705  1.0000
  O   O10       1.0  0.6178496593181819  0.4679066110807994  0.46791866451108893  1.0000
  O   O11       1.0  0.08577332577143426  0.4679307183867892  0.5320931990680152  1.0000
  O   O12       1.0  0.5536811891278856  0.5320797700252484  0.5320682997594448  1.0000
  O   O13       1.0  0.9142275842396468  0.46790642319111  0.532069448477259  1.0000
  O   O14       1.0  0.4463193965116971  0.4679322947314688  0.4679207980335536  1.0000
  O   O15       1.0  0.9142150626220199  0.5320825345143873  0.4679196386195842  1.0000
  O   O16       1.0  0.3821505110700939  0.5320812897266052  0.5320936690473844  1.0000
  O   O17       1.0  0.5479195256044918  0.9435894571232735  0.05643044314715701  1.0000
  O   O18       1.0  0.49147515577933376  0.056421281758659306  0.05647000277392073  1.0000
  O   O19       1.0  0.5478667085284739  0.056477751574178114  0.9436483199266024  1.0000
  O   O20       1.0  0.6043604169539876  0.9436023539441932  0.9435592521706301  1.0000
  O   O21       1.0  0.4521340169793005  0.0563520976629164  0.943520411477998  1.0000
  O   O22       1.0  0.3956424180367221  0.056440609029650084  0.056397205736168056  1.0000
  O   O23       1.0  0.45207918754493887  0.9435695673573933  0.056409598573637316  1.0000
  O   O24       1.0  0.5085281895437886  0.9435293830937395  0.9435773693870078  1.0000
