data_image0
_chemical_formula_structural       Zn2H32C52N8Cl4O8
_chemical_formula_sum              "Zn2 H32 C52 N8 Cl4 O8"
_cell_length_a       11.00336232744901
_cell_length_b       11.373570374612694
_cell_length_c       11.373566807849299
_cell_angle_alpha    110.18934533143995
_cell_angle_beta     99.7904901988101
_cell_angle_gamma    99.79094315273151

_space_group_name_H-M_alt    "P 1"
_space_group_IT_number       1

loop_
  _space_group_symop_operation_xyz
  'x, y, z'

loop_
  _atom_site_type_symbol
  _atom_site_label
  _atom_site_symmetry_multiplicity
  _atom_site_fract_x
  _atom_site_fract_y
  _atom_site_fract_z
  _atom_site_occupancy
  Zn  Zn1       1.0  0.7500005886731033  0.7783957733894696  0.2215993403390826  1.0000
  Zn  Zn2       1.0  0.25000108363750684  0.22160054936041004  0.778400258214269  1.0000
  H   H1        1.0  0.9602518582373277  0.020499462069544398  0.37001500308414836  1.0000
  H   H2        1.0  0.5397441059783645  0.6299840968486022  0.9794920928759864  1.0000
  H   H3        1.0  0.03975005876552725  0.9794977719659953  0.6299822963223318  1.0000
  H   H4        1.0  0.4602527838857995  0.37001901303230506  0.02050889939690848  1.0000
  H   H5        1.0  0.9981640246188732  0.2553947417766622  0.41282833080553855  1.0000
  H   H6        1.0  0.501834923132421  0.5871712871960497  0.7445957614710678  1.0000
  H   H7        1.0  0.0018376562250353515  0.7446015071613061  0.5871677274821892  1.0000
  H   H8        1.0  0.4981596788195759  0.4128337648107133  0.255405472057859  1.0000
  H   H9        1.0  0.6109441523838441  0.180593287305939  0.19851894832526532  1.0000
  H   H10       1.0  0.8890564302838371  0.8014822557845632  0.8194016294760613  1.0000
  H   H11       1.0  0.38905428097884  0.81940109253847  0.801478582208311  1.0000
  H   H12       1.0  0.11094388201347266  0.19851595078667827  0.18059571208365094  1.0000
  H   H13       1.0  0.5863167198242465  0.9470705560243643  0.16839197593831995  1.0000
  H   H14       1.0  0.9136824312054801  0.8316046533919988  0.05292613120111868  1.0000
  H   H15       1.0  0.4136814816461368  0.0529228018165213  0.8316025433436849  1.0000
  H   H16       1.0  0.08631879619076703  0.16839360559261962  0.9470740225073725  1.0000
  H   H17       1.0  0.7343139150440408  0.405376970552723  0.32993570510397047  1.0000
  H   H18       1.0  0.7656871809650312  0.6700730952324179  0.5946220390977074  1.0000
  H   H19       1.0  0.2656843074298934  0.5946203490769618  0.6700645067699111  1.0000
  H   H20       1.0  0.23431455041927757  0.32993100347123766  0.4053818641081363  1.0000
  H   H21       1.0  0.8914768194769634  0.4378687947089688  0.42561332022386  1.0000
  H   H22       1.0  0.6085266793952044  0.5743908589842874  0.5621214561237762  1.0000
  H   H23       1.0  0.10852000491352949  0.5621265945770942  0.5743860225957673  1.0000
  H   H24       1.0  0.39147483289676194  0.4256121069979811  0.4378741254320601  1.0000
  H   H25       1.0  0.6594095959575412  0.3779083343932611  0.8902050549421785  1.0000
  H   H26       1.0  0.8405898685372152  0.10980009643291311  0.6220993954649713  1.0000
  H   H27       1.0  0.34058865818656864  0.6220928547603322  0.10979642419154345  1.0000
  H   H28       1.0  0.15941115437026093  0.8902010469780489  0.3779007843846002  1.0000
  H   H29       1.0  0.2534004071986189  0.5567468601570126  0.2733091777159728  1.0000
  H   H30       1.0  0.2466025662889919  0.7266920350101103  0.44325571300314676  1.0000
  H   H31       1.0  0.7466013327189884  0.44325716473473153  0.7266911852242472  1.0000
  H   H32       1.0  0.7533998568352516  0.27331102029148713  0.5567444508342801  1.0000
  C   C1        1.0  0.8851349325247001  0.05987605086224328  0.33410407878339743  1.0000
  C   C2        1.0  0.6148611041195122  0.6658942831922728  0.9401172612045838  1.0000
  C   C3        1.0  0.11486490105475163  0.9401202408728011  0.6658934357380273  1.0000
  C   C4        1.0  0.38513346402898213  0.3341069177435542  0.05988359013090867  1.0000
  C   C5        1.0  0.9057978652376946  0.19075367747631589  0.356129023585865  1.0000
  C   C6        1.0  0.5941999338643598  0.6438683942056471  0.8092380138567207  1.0000
  C   C7        1.0  0.09420288770733258  0.809242629766146  0.6438695329515197  1.0000
  C   C8        1.0  0.4057960028307264  0.35613084909690673  0.19076155420678015  1.0000
  C   C9        1.0  0.807111130953288  0.23714486521337363  0.307492336893027  1.0000
  C   C10       1.0  0.6928880282358492  0.6925081723380585  0.7628501160054098  1.0000
  C   C11       1.0  0.1928896219917391  0.7628514420290883  0.6925062196443645  1.0000
  C   C12       1.0  0.3071081424848572  0.30749207451503924  0.23715157824324956  1.0000
  C   C13       1.0  0.6901499778473976  0.14812095016353058  0.23772233155955286  1.0000
  C   C14       1.0  0.809849892804472  0.762277383606559  0.8518725420827662  1.0000
  C   C15       1.0  0.3098489256998532  0.8518754183289797  0.7622785662779419  1.0000
  C   C16       1.0  0.1901490488129269  0.23772279905092827  0.14812696781535098  1.0000
  C   C17       1.0  0.6762953534284009  0.019147656071375307  0.22034404372356417  1.0000
  C   C18       1.0  0.8237019364447136  0.7796533118640239  0.9808469149324494  1.0000
  C   C19       1.0  0.3237030735343041  0.9808467791319585  0.77965614200923  1.0000
  C   C20       1.0  0.17629560495591082  0.22034495890282801  0.019152610977812352  1.0000
  C   C21       1.0  0.8254286096389335  0.37894470553545295  0.3316833013859294  1.0000
  C   C22       1.0  0.6745723650065472  0.6683230773605614  0.6210515215479332  1.0000
  C   C23       1.0  0.17456961710165325  0.6210525771882727  0.6683151403551334  1.0000
  C   C24       1.0  0.32542684230664776  0.3316819783713853  0.3789513817951827  1.0000
  C   C25       1.0  0.7908873765183627  0.39392503469326795  0.11941211679687297  1.0000
  C   C26       1.0  0.7091163974992652  0.8805931875089639  0.6060724194559339  1.0000
  C   C27       1.0  0.20911108638117068  0.606073233128022  0.8805875660629495  1.0000
  C   C28       1.0  0.29088510412607593  0.11940987073818828  0.39392758743193906  1.0000
  C   C29       1.0  0.8428969315641126  0.4312547343810281  0.02248634403679249  1.0000
  C   C30       1.0  0.6571038217272759  0.9775180626583903  0.5687443538559264  1.0000
  C   C31       1.0  0.1571029251522162  0.5687455006898362  0.9775159780101035  1.0000
  C   C32       1.0  0.3428969988247559  0.0224859467259364  0.4312549670683268  1.0000
  C   C33       1.0  0.9753694870375469  0.4818549518762012  0.04677890183682356  1.0000
  C   C34       1.0  0.5246324033396732  0.9532240653534242  0.5181413067447024  1.0000
  C   C35       1.0  0.024629890960909503  0.5181433683584656  0.9532235931717776  1.0000
  C   C36       1.0  0.47537050490241484  0.0467808494254385  0.4818560289317943  1.0000
  C   C37       1.0  0.05989643167826837  0.4970300763618665  0.1624663503144247  1.0000
  C   C38       1.0  0.4401069398688477  0.8375332443635484  0.5029680504520114  1.0000
  C   C39       1.0  0.9401041103780158  0.5029691706658709  0.8375348875632722  1.0000
  C   C40       1.0  0.5598966451798972  0.16247075618409917  0.49703174132091726  1.0000
  C   C41       1.0  0.010062901991851402  0.45969981357981726  0.2605307980436321  1.0000
  C   C42       1.0  0.4899415233112521  0.7394691185306357  0.5402971299519236  1.0000
  C   C43       1.0  0.9899369568578037  0.540300403038067  0.7394706389368578  1.0000
  C   C44       1.0  0.5100620638708194  0.26053486356403244  0.45970177675459206  1.0000
  C   C45       1.0  0.7614657327205521  0.4170772435674905  0.9080965642271506  1.0000
  C   C46       1.0  0.7385360841064427  0.0919102531369234  0.582921598816597  1.0000
  C   C47       1.0  0.23853552207921777  0.5829249218469882  0.09190662687399956  1.0000
  C   C48       1.0  0.26146657944339324  0.9080937503562866  0.41707803600677096  1.0000
  C   C49       1.0  0.18975123681556738  0.5466307822683659  0.1839626147462922  1.0000
  C   C50       1.0  0.3102511412002755  0.8160385678628826  0.45336990360920015  1.0000
  C   C51       1.0  0.810249094351974  0.4533714045446544  0.8160413044717029  1.0000
  C   C52       1.0  0.6897506008506581  0.18396543857588202  0.5466295742646138  1.0000
  N   N1        1.0  0.7722717786602759  0.9753160763991671  0.2673312108902123  1.0000
  N   N2        1.0  0.7277237866561066  0.7326626514711804  0.024678097211726417  1.0000
  N   N3        1.0  0.22772966389135976  0.0246792058942162  0.7326644913451617  1.0000
  N   N4        1.0  0.27227256114984033  0.2673308045257059  0.9753205335031936  1.0000
  N   N5        1.0  0.8783081618167259  0.4109117897537047  0.23281579839303382  1.0000
  N   N6        1.0  0.6216960730329788  0.7671882223805042  0.589087152057395  1.0000
  N   N7        1.0  0.12169146300730918  0.5890874233136357  0.7671835124022904  1.0000
  N   N8        1.0  0.3783070628347573  0.23281775130783441  0.4109149650034851  1.0000
  Cl  Cl1       1.0  0.9322264831109097  0.7502750201322568  0.312648642632375  1.0000
  Cl  Cl2       1.0  0.5677760221639121  0.6873548882551718  0.2497291907762999  1.0000
  Cl  Cl3       1.0  0.06777798963324239  0.24972512639890707  0.6873509238966732  1.0000
  Cl  Cl4       1.0  0.43222679927124824  0.31264249045862874  0.7502753461109888  1.0000
  O   O1        1.0  0.6763807662431205  0.34890732221784054  0.10379839433743134  1.0000
  O   O2        1.0  0.8236220287879235  0.8962070149790834  0.6510898733180638  1.0000
  O   O3        1.0  0.3236181394374498  0.6510890278216975  0.8962016184336503  1.0000
  O   O4        1.0  0.17638063689524586  0.10379697006114698  0.348908876438898  1.0000
  O   O5        1.0  0.0802987714925933  0.46882421727261187  0.36205967831181585  1.0000
  O   O6        1.0  0.41970028576704266  0.6379438326151287  0.5311761173103591  1.0000
  O   O7        1.0  0.9196981119715986  0.531178947967227  0.6379439691603037  1.0000
  O   O8        1.0  0.5803026182083926  0.36206111906969346  0.46882298849894954  1.0000
