data_image0
_chemical_formula_structural       Cd2H28C52N8O8
_chemical_formula_sum              "Cd2 H28 C52 N8 O8"
_cell_length_a       7.176280324110711
_cell_length_b       12.52114664890178
_cell_length_c       12.521145048125465
_cell_angle_alpha    66.95700101420317
_cell_angle_beta     80.21580235540536
_cell_angle_gamma    80.21568249490339

_space_group_name_H-M_alt    "P 1"
_space_group_IT_number       1

loop_
  _space_group_symop_operation_xyz
  'x, y, z'

loop_
  _atom_site_type_symbol
  _atom_site_label
  _atom_site_symmetry_multiplicity
  _atom_site_fract_x
  _atom_site_fract_y
  _atom_site_fract_z
  _atom_site_occupancy
  Cd  Cd1       1.0  0.7500012902790942  0.4090862450792088  0.5909131615151464  1.0000
  Cd  Cd2       1.0  0.250002010772242  0.5909131361007384  0.40908855192952814  1.0000
  H   H1        1.0  0.794275702173792  0.31343591133675375  0.28176233212480617  1.0000
  H   H2        1.0  0.7057286980859415  0.7182370694568834  0.6865657101782783  1.0000
  H   H3        1.0  0.20572445117413451  0.6865652216886744  0.7182382053803591  1.0000
  H   H4        1.0  0.29427758617063654  0.28176143396080994  0.3134336586075078  1.0000
  H   H5        1.0  0.6335753499943022  0.8171939355217005  0.28783080487994517  1.0000
  H   H6        1.0  0.8664287675088077  0.7121685221384197  0.1828062995334604  1.0000
  H   H7        1.0  0.36642794667752543  0.18280544602489365  0.7121685129020247  1.0000
  H   H8        1.0  0.1335716973174286  0.2878308641871214  0.8171916965176745  1.0000
  H   H9        1.0  0.46569183408792014  0.17716214706138095  0.1260356154812853  1.0000
  H   H10       1.0  0.03431670537619876  0.8739620797882283  0.8228346084714101  1.0000
  H   H11       1.0  0.5343084735393262  0.8228381127363207  0.8739628527426289  1.0000
  H   H12       1.0  0.9656875283222774  0.126039920396444  0.1771627939231449  1.0000
  H   H13       1.0  0.10423261924506019  0.612607386523692  0.12970801371428556  1.0000
  H   H14       1.0  0.3957632558807374  0.8702893397415399  0.38739977472439324  1.0000
  H   H15       1.0  0.8957686312481666  0.3873954914232274  0.8702917333391579  1.0000
  H   H16       1.0  0.604234548897253  0.12970917666864074  0.6126044129654955  1.0000
  H   H17       1.0  0.8011927796509184  0.30523927148550467  0.08470474865284663  1.0000
  H   H18       1.0  0.6988131184337903  0.9152941537444337  0.6947614214912573  1.0000
  H   H19       1.0  0.19880862804130567  0.6947627329892542  0.9152945262278176  1.0000
  H   H20       1.0  0.30118908547223805  0.08470348251401563  0.30524108240515335  1.0000
  H   H21       1.0  0.3621137731827985  0.3906288256134617  0.014773078794959791  1.0000
  H   H22       1.0  0.1378934814987787  0.9852259140425303  0.6093701406585265  1.0000
  H   H23       1.0  0.6378866960229459  0.6093705603454325  0.9852273129188867  1.0000
  H   H24       1.0  0.862110753659536  0.014776086019921298  0.39062806029025393  1.0000
  H   H25       1.0  0.4779266415476399  0.47775467169145713  0.8001407018369942  1.0000
  H   H26       1.0  0.022079111539127883  0.19985767613642486  0.52224456804565  1.0000
  H   H27       1.0  0.5220736704591077  0.5222455877395974  0.1998601620496315  1.0000
  H   H28       1.0  0.9779210388891215  0.800143457133437  0.4777543723510502  1.0000
  C   C1        1.0  0.689242996727529  0.030209492034444507  0.032487494992437894  1.0000
  C   C2        1.0  0.8107531339972951  0.9675101796111678  0.9697901679831908  1.0000
  C   C3        1.0  0.310754642092455  0.9697898985811835  0.9675123735448062  1.0000
  C   C4        1.0  0.18924450336285759  0.03248921112667351  0.030208901999820587  1.0000
  C   C5        1.0  0.6876721484254559  0.2109075648507783  0.8538141812931311  1.0000
  C   C6        1.0  0.8123262771940746  0.14618310258424574  0.7890889426657705  1.0000
  C   C7        1.0  0.31232690485749254  0.7890918234975858  0.14618554955529806  1.0000
  C   C8        1.0  0.1876712000474114  0.8538171618701897  0.21090900238154822  1.0000
  C   C9        1.0  0.864110815471463  0.3762315211589283  0.20385050112920297  1.0000
  C   C10       1.0  0.6358934695037064  0.7961493968979243  0.6237699888210029  1.0000
  C   C11       1.0  0.1358907523394208  0.6237696095992434  0.7961498986871473  1.0000
  C   C12       1.0  0.3641074756785229  0.20384736827784175  0.37623138203721135  1.0000
  C   C13       1.0  0.9329255521667291  0.47379452863261656  0.3345933611751589  1.0000
  C   C14       1.0  0.5670750489314712  0.6654051753057431  0.5262092877269351  1.0000
  C   C15       1.0  0.06707460118119711  0.5262066043928115  0.6654071763300065  1.0000
  C   C16       1.0  0.4329255803929328  0.3345933369365569  0.47379222892260475  1.0000
  C   C17       1.0  0.6290307323020343  0.15385991656399514  0.974174956234023  1.0000
  C   C18       1.0  0.8709682593955179  0.025820837337065014  0.8461390775936831  1.0000
  C   C19       1.0  0.3709681608622475  0.8461403455009633  0.02582364967871322  1.0000
  C   C20       1.0  0.12902796350167017  0.9741785556680398  0.1538601300781437  1.0000
  C   C21       1.0  0.6860284887143918  0.8639930376842386  0.19678103021865212  1.0000
  C   C22       1.0  0.813971800224408  0.8032186603280848  0.13600564260499945  1.0000
  C   C23       1.0  0.313970404449897  0.1360072243807195  0.8032175756940843  1.0000
  C   C24       1.0  0.1860272501388636  0.19678072826471293  0.8639924911349578  1.0000
  C   C25       1.0  0.948500989360248  0.46480613535985077  0.21664990461954392  1.0000
  C   C26       1.0  0.5514952325579259  0.7833474610939678  0.5351974861685701  1.0000
  C   C27       1.0  0.05149601628426127  0.5351967495110658  0.7833494569461191  1.0000
  C   C28       1.0  0.4485013120364272  0.21665018435574268  0.4648047699288822  1.0000
  C   C29       1.0  0.5107391673313728  0.2200541722647245  0.03322741344396723  1.0000
  C   C30       1.0  0.9892648430831412  0.9667696178808857  0.7799430305068848  1.0000
  C   C31       1.0  0.48926145761353007  0.7799443403442228  0.9667717075428611  1.0000
  C   C32       1.0  0.010734208739968701  0.03322977058969911  0.2200559017873046  1.0000
  C   C33       1.0  0.04404733959072621  0.5442364592787855  0.0063199296569109486  1.0000
  C   C34       1.0  0.45594724920844937  0.9936778591012758  0.4557666932568193  1.0000
  C   C35       1.0  0.9559542282201573  0.4557646714793863  0.9936804701594394  1.0000
  C   C36       1.0  0.544048045421107  0.006318914532457101  0.5442392211278528  1.0000
  C   C37       1.0  0.03839460453124838  0.5456949062185786  0.11924230697746187  1.0000
  C   C38       1.0  0.46160611138589047  0.880756181532128  0.4543093757148496  1.0000
  C   C39       1.0  0.9616069647394739  0.45430622441737273  0.8807588913931281  1.0000
  C   C40       1.0  0.5383918520509212  0.11924146128367144  0.5456951383564854  1.0000
  C   C41       1.0  0.8675232002245323  0.37219724173844076  0.09515632135600069  1.0000
  C   C42       1.0  0.6324811428261297  0.9048412096172954  0.6278040531039577  1.0000
  C   C43       1.0  0.13248009644730271  0.6278021398081464  0.9048429964259694  1.0000
  C   C44       1.0  0.3675171350086686  0.0951546862541903  0.37219951662181916  1.0000
  C   C45       1.0  0.4545819559577921  0.33695403855822553  0.9721833857635854  1.0000
  C   C46       1.0  0.045422459851224097  0.027814171125285708  0.6630442415763439  1.0000
  C   C47       1.0  0.5454169401261596  0.6630462232623062  0.02781681725762292  1.0000
  C   C48       1.0  0.9545776861975239  0.9721869625112163  0.3369523031576447  1.0000
  C   C49       1.0  0.5175130769459741  0.3861839470671384  0.8525318772943604  1.0000
  C   C50       1.0  0.9824901778325952  0.14746678709740021  0.6138139568831702  1.0000
  C   C51       1.0  0.4824886480639067  0.6138163102188728  0.1474680503492109  1.0000
  C   C52       1.0  0.01750839655419871  0.8525352222785261  0.3861831977124195  1.0000
  N   N1        1.0  0.6249359168940672  0.9766811875206829  0.14637927803059358  1.0000
  N   N2        1.0  0.8750632536504809  0.8536180864177397  0.023317972418340153  1.0000
  N   N3        1.0  0.3750632950477097  0.023317327233307608  0.853620779199289  1.0000
  N   N4        1.0  0.12493422359101199  0.1463821780366956  0.9766799726289787  1.0000
  N   N5        1.0  0.6308762096899799  0.32486318121860347  0.7956741321032933  1.0000
  N   N6        1.0  0.869122366616203  0.2043243851655632  0.6751344552309388  1.0000
  N   N7        1.0  0.3691239421981081  0.6751379519290382  0.20432560684764653  1.0000
  N   N8        1.0  0.13087495342629296  0.7956767527610328  0.3248639619891589  1.0000
  O   O1        1.0  0.8690403512727158  0.38778116112045075  0.4215543981619657  1.0000
  O   O2        1.0  0.6309577074500723  0.5784447339663502  0.6122213398987524  1.0000
  O   O3        1.0  0.13096420412291826  0.6122190915088197  0.5784460526582006  1.0000
  O   O4        1.0  0.36904276029583366  0.4215546521147573  0.38777825326085485  1.0000
  O   O5        1.0  0.9772014628720099  0.5653642338855179  0.33943184112219854  1.0000
  O   O6        1.0  0.5228006567203707  0.660568678455583  0.43463808866857767  1.0000
  O   O7        1.0  0.022797118813962007  0.4346377748793346  0.6605693062445678  1.0000
  O   O8        1.0  0.4772010682895099  0.33943157883042124  0.5653618389749935  1.0000
