data_image0
_chemical_formula_structural       Zr6H24C62S10N4O52
_chemical_formula_sum              "Zr6 H24 C62 S10 N4 O52"
_cell_length_a       16.460036522405566
_cell_length_b       16.515185014795115
_cell_length_c       16.460763986205997
_cell_angle_alpha    61.11484990627313
_cell_angle_beta     60.219019246558176
_cell_angle_gamma    59.89119120723627

_space_group_name_H-M_alt    "P 1"
_space_group_IT_number       1

loop_
  _space_group_symop_operation_xyz
  'x, y, z'

loop_
  _atom_site_type_symbol
  _atom_site_label
  _atom_site_symmetry_multiplicity
  _atom_site_fract_x
  _atom_site_fract_y
  _atom_site_fract_z
  _atom_site_occupancy
  Zr  Zr1       1.0  0.8867887692319201  0.902798320895265  0.6141378537494616  1.0000
  Zr  Zr2       1.0  0.0960463584314368  0.11867943446171841  0.39847643327538407  1.0000
  Zr  Zr3       1.0  0.10007003431346823  0.9057899725869519  0.6114096440092921  1.0000
  Zr  Zr4       1.0  0.8828218694895824  0.11575973331255801  0.4010866283128748  1.0000
  Zr  Zr5       1.0  0.09875589711166541  0.9034553792253491  0.3990971456239691  1.0000
  Zr  Zr6       1.0  0.8841924577567255  0.11785319658980596  0.6132561730355306  1.0000
  H   H1        1.0  0.0784638647476043  0.7591686495270836  0.5862588101542201  1.0000
  H   H2        1.0  0.07636980774134372  0.09063252501426435  0.25463909486516906  1.0000
  H   H3        1.0  0.07683764149509639  0.09779636446922528  0.5882199319766882  1.0000
  H   H4        1.0  0.7369719840794602  0.09256002350312545  0.5929657830270543  1.0000
  H   H5        1.0  0.8970950545237601  0.6366950704624229  0.7958277185508107  1.0000
  H   H6        1.0  0.17036607006194524  0.30060576830591407  0.1325604221765175  1.0000
  H   H7        1.0  0.8493004619557424  0.299630292916838  0.6663129395311529  1.0000
  H   H8        1.0  0.11095106772997791  0.7431142793691593  0.3309868872870111  1.0000
  H   H9        1.0  0.314982820428767  0.8352252234134812  0.23925305743019004  1.0000
  H   H10       1.0  0.684889144385707  0.17035950764280028  0.7951815667584227  1.0000
  H   H11       1.0  0.08424283699820748  0.7739050579896656  0.9791227382027967  1.0000
  H   H12       1.0  0.8319645253288003  0.14293090843769823  0.2262932480622552  1.0000
  H   H13       1.0  0.2991414662353831  0.7311251016710117  0.6381946274598035  1.0000
  H   H14       1.0  0.66314086257691  0.48156180759468736  0.2692221076295951  1.0000
  H   H15       1.0  0.29662470960707316  0.14674544004187598  0.34333645611324926  1.0000
  H   H16       1.0  0.7155344373049177  0.846083018592502  0.6395436693641583  1.0000
  H   H17       1.0  0.28294705678708015  0.42882936958022816  0.8928444319788013  1.0000
  H   H18       1.0  0.28545775596578676  0.37287599222869977  0.007295573890964167  1.0000
  H   H19       1.0  0.1493404071929306  0.6759901512199208  0.8158626083175944  1.0000
  H   H20       1.0  0.198355488968048  0.5658224801364753  0.9014898712379206  1.0000
  H   H21       1.0  0.8960298895564167  0.3966106747772428  0.9249137171777164  1.0000
  H   H22       1.0  0.8357760213538866  0.5107717295068356  0.8676430004782887  1.0000
  H   H23       1.0  0.8585541639502592  0.3211589747204473  0.17166298146158723  1.0000
  H   H24       1.0  0.8343555467936599  0.4066640164275058  0.061304961591119506  1.0000
  C   C1        1.0  0.989791066097851  0.7437560142781338  0.49371982659285163  1.0000
  C   C2        1.0  0.27283409063346653  0.9979991786493158  0.2396912037353189  1.0000
  C   C3        1.0  0.9806225609713906  0.2896756515610407  0.5076456161506612  1.0000
  C   C4        1.0  0.7216970017435929  0.011927977042234007  0.7850604918637388  1.0000
  C   C5        1.0  0.0008467844026256581  0.734178188852404  0.7649420690582359  1.0000
  C   C6        1.0  0.7260879421806835  0.997036256333864  0.5031269964745988  1.0000
  C   C7        1.0  8.126359532667428e-05  0.2695139601873607  0.22974493364941395  1.0000
  C   C8        1.0  0.2732081801801699  0.008403146314826434  0.49277328074121124  1.0000
  C   C9        1.0  0.26964349794119624  0.7376527006253893  0.5022462600244991  1.0000
  C   C10       1.0  0.9929561902971359  0.01251003211064017  0.7758900161721627  1.0000
  C   C11       1.0  0.7183406165161513  0.28028474305062906  0.5075368372995399  1.0000
  C   C12       1.0  0.9908928711475369  0.006494319633489431  0.23298962352647834  1.0000
  C   C13       1.0  0.9233461650952818  0.42669202949366564  0.5809449498837721  1.0000
  C   C14       1.0  0.038120646949195564  0.6146698120108526  0.4144662784149417  1.0000
  C   C15       1.0  0.9762863539320821  0.38088277784169816  0.5072539362533418  1.0000
  C   C16       1.0  0.986980326212951  0.6587377818368411  0.48931446036929327  1.0000
  C   C17       1.0  0.013644711748476493  0.5301370460771011  0.44878330081876067  1.0000
  C   C18       1.0  0.9470342967098094  0.5118331768174897  0.5456705216650448  1.0000
  C   C19       1.0  0.43249873213486006  0.9188575093340958  0.11035024792843029  1.0000
  C   C20       1.0  0.5691453358165361  0.08502627422507206  0.9224490026009775  1.0000
  C   C21       1.0  0.3649951962943591  0.9935969207177989  0.15459459555891913  1.0000
  C   C22       1.0  0.635365886904964  0.01147584057000736  0.8763937638156348  1.0000
  C   C23       1.0  0.4955383522980981  0.04986873345181665  0.007612743141372412  1.0000
  C   C24       1.0  0.5071772591890639  0.9531497911551127  0.025760468871865894  1.0000
  C   C25       1.0  0.06399074708414805  0.9460874963244735  0.9117722035317325  1.0000
  C   C26       1.0  0.9306886416709688  0.08617145864854348  0.08322344544600935  1.0000
  C   C27       1.0  0.9970571639825399  0.01534509970982617  0.8611473497770631  1.0000
  C   C28       1.0  0.9924155239822811  0.013905256596878211  0.13983569908431553  1.0000
  C   C29       1.0  0.9587374896963256  0.06028654597228908  0.0002589851665037157  1.0000
  C   C30       1.0  0.03985907309390048  0.9715707729599715  0.9938400265980221  1.0000
  C   C31       1.0  0.4005543093749325  0.5880178816190381  0.5813664739126877  1.0000
  C   C32       1.0  0.5773593497647908  0.41609858206116007  0.4415702152574069  1.0000
  C   C33       1.0  0.35387750892844144  0.6445227395215412  0.509570716765161  1.0000
  C   C34       1.0  0.6262222110259259  0.3656412825742806  0.5103521565939246  1.0000
  C   C35       1.0  0.4941401083788152  0.49820773212835684  0.46719886362653534  1.0000
  C   C36       1.0  0.48094200455119557  0.5048562148648726  0.5554949690975093  1.0000
  C   C37       1.0  0.08467101668399837  0.5728977093290412  0.8753804966737062  1.0000
  C   C38       1.0  0.9450542996830864  0.5933873037892141  0.8408208368566149  1.0000
  C   C39       1.0  0.9379667261857424  0.5039545431514513  0.9089001565120327  1.0000
  C   C40       1.0  0.9964099591835736  0.45140735536166704  0.9733915163895971  1.0000
  C   C41       1.0  0.9671135412417728  0.3803248933849233  0.06853176848837712  1.0000
  C   C42       1.0  0.12076862233647745  0.3456107059413114  0.08920724615913402  1.0000
  C   C43       1.0  0.14930364837538684  0.4136381926360075  0.9997560673691408  1.0000
  C   C44       1.0  0.07918823072647292  0.47793121102866115  0.9468478643766503  1.0000
  C   C45       1.0  0.011521168269496352  0.63305536957197  0.8277008221800768  1.0000
  C   C46       1.0  0.027790799586860357  0.3324617353814574  0.12870914840353712  1.0000
  C   C47       1.0  0.4253864253667389  0.06508643479193682  0.416962004461233  1.0000
  C   C48       1.0  0.5936213811365932  0.9208715987681443  0.5589345777430381  1.0000
  C   C49       1.0  0.36893270873123646  0.0026542047363449736  0.4840070159944218  1.0000
  C   C50       1.0  0.6448427955564565  0.9884759066065599  0.49722788805886603  1.0000
  C   C51       1.0  0.5137545858130679  0.9498106856317322  0.5283548451368674  1.0000
  C   C52       1.0  0.5074732502961012  0.03394807161133439  0.44530747150623984  1.0000
  C   C53       1.0  0.8543042072824465  0.4023232471067147  0.6850525714399395  1.0000
  C   C54       1.0  0.10588651345477744  0.6411659590662495  0.31029120969972  1.0000
  C   C55       1.0  0.44228474390603617  0.8147446836996508  0.13675669732480603  1.0000
  C   C56       1.0  0.5588203160107527  0.1889559154662167  0.898365321589658  1.0000
  C   C57       1.0  0.15485858730817628  0.8634689514557864  0.8782625716619136  1.0000
  C   C58       1.0  0.8481182921248519  0.1829505141798365  0.09126627427938434  1.0000
  C   C59       1.0  0.37940845586911826  0.5964739348940996  0.6775739873217929  1.0000
  C   C60       1.0  0.6020099864260615  0.38219015703464265  0.3594630339916307  1.0000
  C   C61       1.0  0.4183875001327948  0.1512683301533572  0.3252016284792419  1.0000
  C   C62       1.0  0.6074018863899296  0.828052132632081  0.6438426964250255  1.0000
  S   S1        1.0  0.050710743930174815  0.4422851198319577  0.3984860358264442  1.0000
  S   S2        1.0  0.9111433702291905  0.5981923252814171  0.5971333596714457  1.0000
  S   S3        1.0  0.3938438547421086  0.10125306570895998  0.09417637598654954  1.0000
  S   S4        1.0  0.6079910969899913  0.9029013864046579  0.9377005610817121  1.0000
  S   S5        1.0  0.9103529829008395  0.11312124115452353  0.9077831523777673  1.0000
  S   S6        1.0  0.0840432189773636  0.9193008743487924  0.08985321828780002  1.0000
  S   S7        1.0  0.4058819730958519  0.5942201653821543  0.415417089727633  1.0000
  S   S8        1.0  0.5693068152237117  0.4125100302651249  0.6078590496529299  1.0000
  S   S9        1.0  0.41863590874923073  0.906956179131889  0.5752755972800188  1.0000
  S   S10       1.0  0.5983096225091559  0.08104625832530117  0.40272506585277057  1.0000
  N   N1        1.0  0.24177154243137278  0.42408571331316125  0.9649928009816903  1.0000
  N   N2        1.0  0.15297756446421573  0.6060350697631449  0.8598337179066888  1.0000
  N   N3        1.0  0.8700530134331429  0.46898741898257884  0.9192619790024922  1.0000
  N   N4        1.0  0.8808103400782271  0.3654712326199814  0.10187592788486195  1.0000
  O   O1        1.0  0.9255741009313283  0.7758435816774423  0.5662036557735776  1.0000
  O   O2        1.0  0.23255683258190635  0.07044952854237611  0.27177802636038706  1.0000
  O   O3        1.0  0.049702023174077736  0.2534124476300761  0.4392144696377756  1.0000
  O   O4        1.0  0.7572822438317103  0.9435522654197116  0.748735265020045  1.0000
  O   O5        1.0  0.06470153204785589  0.7746360544570338  0.7375528215550557  1.0000
  O   O6        1.0  0.7580353428480539  0.06744487850544106  0.43831045815110775  1.0000
  O   O7        1.0  0.9231850157586408  0.24211420879132844  0.27007552648262134  1.0000
  O   O8        1.0  0.23589406782527786  0.9433722134856881  0.5630325551610935  1.0000
  O   O9        1.0  0.2336061965282069  0.7702431759681334  0.43495109153100486  1.0000
  O   O10       1.0  0.922614904691109  0.08118390048920077  0.7423246963517016  1.0000
  O   O11       1.0  0.7535474598375205  0.24676110477421567  0.5762220693832347  1.0000
  O   O12       1.0  0.06152947744076448  0.9391211093690116  0.2656911087311258  1.0000
  O   O13       1.0  0.06003773741477394  0.9416409421418451  0.7409505772527893  1.0000
  O   O14       1.0  0.7570100702041671  0.2452234662667082  0.4367626052605473  1.0000
  O   O15       1.0  0.9170693740274276  0.06969371021092045  0.27667722452608257  1.0000
  O   O16       1.0  0.23657338853549695  0.7814488530304119  0.5653442696720318  1.0000
  O   O17       1.0  0.9241539100508548  0.7832939399417711  0.7351794944100263  1.0000
  O   O18       1.0  0.23032043139460265  0.08087339013824402  0.4298691599787076  1.0000
  O   O19       1.0  0.05747873277324798  0.23953762566318204  0.2788790727351582  1.0000
  O   O20       1.0  0.7594746383748121  0.9339227454117986  0.5755194114215029  1.0000
  O   O21       1.0  0.7565006319456345  0.08236976544311167  0.7465155987068143  1.0000
  O   O22       1.0  0.05922628489421562  0.7796600459557368  0.42549695094882617  1.0000
  O   O23       1.0  0.23570079124538518  0.9297893373578106  0.27558938026623986  1.0000
  O   O24       1.0  0.9138224444877635  0.25122619325581763  0.5780101515759669  1.0000
  O   O25       1.0  0.809285796744561  0.06916886332854959  0.5686894901779523  1.0000
  O   O26       1.0  0.05231763322692731  0.07339199931248426  0.5648329481182798  1.0000
  O   O27       1.0  0.05214555566018217  0.06622410819052503  0.32605955139504766  1.0000
  O   O28       1.0  0.05554965523895553  0.8305952564706658  0.5618501940755607  1.0000
  O   O29       1.0  0.1253128687376447  0.9665988985985192  0.4605711583661359  1.0000
  O   O30       1.0  0.9475834990770835  0.9648899884891832  0.46202710444556055  1.0000
  O   O31       1.0  0.9450379426663675  0.14217647136609213  0.46366282911969137  1.0000
  O   O32       1.0  0.9488216273622001  0.9682335761569973  0.6376448991882171  1.0000
  O   O33       1.0  0.8202732160049139  0.3298003881439585  0.7193206428035808  1.0000
  O   O34       1.0  0.8305409857058523  0.4507460321861105  0.7361664209884466  1.0000
  O   O35       1.0  0.1375759566672626  0.7154281196528772  0.27662081931358523  1.0000
  O   O36       1.0  0.1300599907973136  0.5941951265350839  0.25769119557786974  1.0000
  O   O37       1.0  0.37028899747208055  0.7809051377420104  0.21141766833992653  1.0000
  O   O38       1.0  0.5173742665366917  0.7623108298531917  0.08938045380755706  1.0000
  O   O39       1.0  0.6310394830958899  0.22324447910236253  0.8256823711495896  1.0000
  O   O40       1.0  0.48335934396936164  0.23992372761121333  0.947180452697303  1.0000
  O   O41       1.0  0.1497081110860706  0.771357522638297  0.9282986546495167  1.0000
  O   O42       1.0  0.23016598601846297  0.8770330388195688  0.8127311451564265  1.0000
  O   O43       1.0  0.7968439332088124  0.19771355190361822  0.17881411715706716  1.0000
  O   O44       1.0  0.8285517375580156  0.24491332312936015  0.016782796128680458  1.0000
  O   O45       1.0  0.32770848222494936  0.6839548288625537  0.6925127426178149  1.0000
  O   O46       1.0  0.4128812228193868  0.5223600857411911  0.7389391911218154  1.0000
  O   O47       1.0  0.6500522081402806  0.4311348153562023  0.2671508748490226  1.0000
  O   O48       1.0  0.5776102031015355  0.3171260237960352  0.37367142518016294  1.0000
  O   O49       1.0  0.34241980138602196  0.18528573326771894  0.2945022218067662  1.0000
  O   O50       1.0  0.4842145763039695  0.18746663793550775  0.27964239484440867  1.0000
  O   O51       1.0  0.6807685507859348  0.7966814745697236  0.6771833863874549  1.0000
  O   O52       1.0  0.5513301826806297  0.7821639927872256  0.6796439825981719  1.0000
