data_image0
_chemical_formula_structural       Cu4B4H40C36N24
_chemical_formula_sum              "Cu4 B4 H40 C36 N24"
_cell_length_a       8.037987723731096
_cell_length_b       9.999563305459018
_cell_length_c       13.755949219018094
_cell_angle_alpha    89.99991546373789
_cell_angle_beta     89.99984006823775
_cell_angle_gamma    93.70329161915238

_space_group_name_H-M_alt    "P 1"
_space_group_IT_number       1

loop_
  _space_group_symop_operation_xyz
  'x, y, z'

loop_
  _atom_site_type_symbol
  _atom_site_label
  _atom_site_symmetry_multiplicity
  _atom_site_fract_x
  _atom_site_fract_y
  _atom_site_fract_z
  _atom_site_occupancy
  Cu  Cu1       1.0  0.05657863285727419  0.9521278537263524  0.0902803825759193  1.0000
  Cu  Cu2       1.0  0.9434250512532358  0.5478727484724429  0.5902795389468736  1.0000
  Cu  Cu3       1.0  0.9434201562511646  0.047874226954277795  0.9097197759735351  1.0000
  Cu  Cu4       1.0  0.05657720800442689  0.45212631032161704  0.4097198926431743  1.0000
  B   B1        1.0  0.5496979988196388  0.3593646989940352  0.1434136710365834  1.0000
  B   B2        1.0  0.4503031712625686  0.14063643829240388  0.6434142611303031  1.0000
  B   B3        1.0  0.45030301677778783  0.6406343649729533  0.8565857605544736  1.0000
  B   B4        1.0  0.5496979312756877  0.8593636277957939  0.3565866243765398  1.0000
  H   H1        1.0  0.5260153057729083  0.4758326266545935  0.1292662946809529  1.0000
  H   H2        1.0  0.47398344703723433  0.024168553404173603  0.6292655167474592  1.0000
  H   H3        1.0  0.47398712736642074  0.5241684363818777  0.8707360447406528  1.0000
  H   H4        1.0  0.5260125939138262  0.9758305312520291  0.3707360957222363  1.0000
  H   H5        1.0  0.4203719497530543  0.08734419874968319  0.0807624842032268  1.0000
  H   H6        1.0  0.5796343312781858  0.41265505719414347  0.5807611179896242  1.0000
  H   H7        1.0  0.5796291527870069  0.9126558673393461  0.9192376743454175  1.0000
  H   H8        1.0  0.42036659737660637  0.5873430046508047  0.4192375866438454  1.0000
  H   H9        1.0  0.2369127037122922  0.42816691934831386  0.21522282025335923  1.0000
  H   H10       1.0  0.7630881108315535  0.07183405335404557  0.7152251535807679  1.0000
  H   H11       1.0  0.7630899033249036  0.5718361479380647  0.7847758843760602  1.0000
  H   H12       1.0  0.23691166110742762  0.9281650157867035  0.2847735510531137  1.0000
  H   H13       1.0  0.9777970852819989  0.23418015544231  0.18943129572682693  1.0000
  H   H14       1.0  0.02220385695748919  0.26582087637229523  0.6894339055406676  1.0000
  H   H15       1.0  0.0222031213809473  0.7658239243136364  0.8105666819458222  1.0000
  H   H16       1.0  0.9777945843786212  0.7341771958193418  0.3105640721366427  1.0000
  H   H17       1.0  0.7021107317577063  0.10573178526676226  0.09250552678248168  1.0000
  H   H18       1.0  0.29788962060253255  0.39427147811582586  0.5925068216170573  1.0000
  H   H19       1.0  0.2978892140683413  0.8942692881188989  0.9074939048083762  1.0000
  H   H20       1.0  0.7021102382772854  0.6057285931461323  0.40749333693260326  1.0000
  H   H21       1.0  0.6984155522107899  0.5008824116574857  0.9842736584268863  1.0000
  H   H22       1.0  0.3015827979930279  0.9991213115413726  0.4842747782806853  1.0000
  H   H23       1.0  0.30158439361166234  0.49911866172651287  0.0157272270803617  1.0000
  H   H24       1.0  0.6984144866164785  0.0008777679410699002  0.5157275611461927  1.0000
  H   H25       1.0  0.9078100449430125  0.35428241088979456  0.8707321462807939  1.0000
  H   H26       1.0  0.09218661645373771  0.14572222940408605  0.3707354403700407  1.0000
  H   H27       1.0  0.09218883111166319  0.6457206719145387  0.1292672853098651  1.0000
  H   H28       1.0  0.9078107551020054  0.8542778522020597  0.6292661720980346  1.0000
  H   H29       1.0  0.82649013909365  0.5101368251951113  0.22481450794683158  1.0000
  H   H30       1.0  0.17351403563385046  0.9898624613606727  0.7248166307691619  1.0000
  H   H31       1.0  0.17351203321598518  0.489861231474407  0.7751863775602104  1.0000
  H   H32       1.0  0.8264884844499107  0.010139603798670297  0.2751857086518399  1.0000
  H   H33       1.0  0.7632618018704989  0.2257140077049513  0.449920951297102  1.0000
  H   H34       1.0  0.2367375898288842  0.27428342071628004  0.9499224744425517  1.0000
  H   H35       1.0  0.23674375364932126  0.7742800249576333  0.5500770263765489  1.0000
  H   H36       1.0  0.7632601295081826  0.7257206693830225  0.0500776841067037  1.0000
  H   H37       1.0  0.513334996393006  0.17659440979220878  0.3120782769230388  1.0000
  H   H38       1.0  0.4866640080067696  0.32340534397418  0.8120800659744487  1.0000
  H   H39       1.0  0.48666708897398786  0.8234026447552761  0.6879218816264155  1.0000
  H   H40       1.0  0.5133348680425058  0.6765977388276524  0.18792154649079149  1.0000
  C   C1        1.0  0.3351457587009819  0.15236391555229292  0.1151323755259384  1.0000
  C   C2        1.0  0.6648567081254839  0.3476362792596319  0.6151309395709033  1.0000
  C   C3        1.0  0.6648554307853091  0.8476371526604394  0.8848670560639036  1.0000
  C   C4        1.0  0.33514182015326105  0.6523627950540456  0.3848677650639871  1.0000
  C   C5        1.0  0.2354254388057484  0.3289151458617141  0.1834060952845675  1.0000
  C   C6        1.0  0.764574289611211  0.17108590493814546  0.6834061391285929  1.0000
  C   C7        1.0  0.7645744200758671  0.6710849254010752  0.8165933363069016  1.0000
  C   C8        1.0  0.23542539538514262  0.828912162080563  0.31659183854770123  1.0000
  C   C9        1.0  0.1086967664753047  0.23149152323004069  0.1714056250992542  1.0000
  C   C10       1.0  0.8913043519589862  0.2685105520227751  0.6714068114979026  1.0000
  C   C11       1.0  0.8913071711647618  0.7685125410054495  0.8285938064867365  1.0000
  C   C12       1.0  0.1086942632641907  0.7314895244137742  0.3285918931363838  1.0000
  C   C13       1.0  0.7264871133921674  0.19226215112381337  0.04590307859633921  1.0000
  C   C14       1.0  0.27351346969917506  0.3077412190676867  0.5459052328013456  1.0000
  C   C15       1.0  0.2735128324338802  0.807738922261848  0.9540963529945259  1.0000
  C   C16       1.0  0.7264876328390812  0.6922588470205112  0.45409565270549723  1.0000
  C   C17       1.0  0.7297688308722386  0.39752816896927357  0.9889916467658749  1.0000
  C   C18       1.0  0.2702296453905291  0.1024751878144343  0.48899324219480184  1.0000
  C   C19       1.0  0.2702288015185986  0.6024749190063188  0.011009238742183  1.0000
  C   C20       1.0  0.7297676392207749  0.8975238916688398  0.5110083702738777  1.0000
  C   C21       1.0  0.8328116772187785  0.32417389703694244  0.9334047434927228  1.0000
  C   C22       1.0  0.16718707425631144  0.17582958714670838  0.43340788278674575  1.0000
  C   C23       1.0  0.16718959921374932  0.6758281732994931  0.0665939611383237  1.0000
  C   C24       1.0  0.8328114540134379  0.8241694871628051  0.5665944566391161  1.0000
  C   C25       1.0  0.7774212727231029  0.42619432873225793  0.2684662516194294  1.0000
  C   C26       1.0  0.22258026103751397  0.0738035103994292  0.7684672854204493  1.0000
  C   C27       1.0  0.2225819693579041  0.5738017185185952  0.7315346338878115  1.0000
  C   C28       1.0  0.7774184411228973  0.9261975681566594  0.2315343270460062  1.0000
  C   C29       1.0  0.7400045392780541  0.2771209876144241  0.38246867286670755  1.0000
  C   C30       1.0  0.25999651698691645  0.22287759235229734  0.8824709399493074  1.0000
  C   C31       1.0  0.26000359050127736  0.7228740368226666  0.6175314856788958  1.0000
  C   C32       1.0  0.74000120234475  0.7771264977445042  0.11753139947453657  1.0000
  C   C33       1.0  0.6165393357577286  0.2517113654540992  0.31425611914892226  1.0000
  C   C34       1.0  0.38345858809094574  0.24829039274086276  0.8142567033300024  1.0000
  C   C35       1.0  0.38345901862854964  0.7482857046121649  0.6857440394035735  1.0000
  C   C36       1.0  0.6165417055092348  0.7517146891346157  0.1857441821748154  1.0000
  N   N1        1.0  0.37921776278156477  0.27834624718739315  0.1469599557673575  1.0000
  N   N2        1.0  0.6207833897471459  0.22165488197327218  0.6469587266231186  1.0000
  N   N3        1.0  0.62078218304449  0.7216548261982677  0.8530394758235005  1.0000
  N   N4        1.0  0.37921638219363274  0.7783441871683152  0.35303925105256445  1.0000
  N   N5        1.0  0.1722284204571594  0.1206161836684956  0.1281465312389685  1.0000
  N   N6        1.0  0.8277740688765362  0.3793849834373475  0.6281462489491075  1.0000
  N   N7        1.0  0.827772942921598  0.879386888791643  0.8718514464332755  1.0000
  N   N8        1.0  0.17222437245957423  0.6206130887542969  0.3718517287282026  1.0000
  N   N9        1.0  0.662019872497062  0.313317635836583  0.060312831849906  1.0000
  N   N10       1.0  0.33798063925193844  0.18668570132947335  0.5603142832297081  1.0000
  N   N11       1.0  0.33798131698743106  0.686683432375318  0.9396873266981274  1.0000
  N   N12       1.0  0.6620192196242769  0.8133143699308149  0.4396873292363352  1.0000
  N   N13       1.0  0.8296074755914801  0.19488171816842478  0.96957316629166  1.0000
  N   N14       1.0  0.1703911837550294  0.3051226852424945  0.4695761620323253  1.0000
  N   N15       1.0  0.17039122657433134  0.8051193603901651  0.030426265300214105  1.0000
  N   N16       1.0  0.8296100057312613  0.6948783829702377  0.5304232695575166  1.0000
  N   N17       1.0  0.641823776127616  0.3466137420978299  0.2419615092527323  1.0000
  N   N18       1.0  0.3581804631226149  0.15338514955676893  0.741963690199583  1.0000
  N   N19       1.0  0.3581807965634595  0.6533833021054603  0.7580371953783072  1.0000
  N   N20       1.0  0.6418207263582759  0.8466159186534625  0.2580379222648475  1.0000
  N   N21       1.0  0.8409655029306436  0.38717988617948146  0.3531415840272629  1.0000
  N   N22       1.0  0.1590345418226775  0.1128197683002412  0.853142679953784  1.0000
  N   N23       1.0  0.1590379130428303  0.6128181653187779  0.6468578475623802  1.0000
  N   N24       1.0  0.8409630905681593  0.8871833196753514  0.146858205554274  1.0000
