data_image0
_chemical_formula_structural       Co2H28C30N4O8
_chemical_formula_sum              "Co2 H28 C30 N4 O8"
_cell_length_a       8.614050458445615
_cell_length_b       8.750779002206713
_cell_length_c       9.878057577141583
_cell_angle_alpha    95.00258803181366
_cell_angle_beta     104.80587578197779
_cell_angle_gamma    102.84018887915609

_space_group_name_H-M_alt    "P 1"
_space_group_IT_number       1

loop_
  _space_group_symop_operation_xyz
  'x, y, z'

loop_
  _atom_site_type_symbol
  _atom_site_label
  _atom_site_symmetry_multiplicity
  _atom_site_fract_x
  _atom_site_fract_y
  _atom_site_fract_z
  _atom_site_occupancy
  Co  Co1       1.0  0.9849007801075373  0.6581113369768019  0.1502171065809962  1.0000
  Co  Co2       1.0  0.015097562816443087  0.3418919619450094  0.8497836639987644  1.0000
  H   H1        1.0  0.03995423498887616  0.4568180897005901  0.3817210961752481  1.0000
  H   H2        1.0  0.9600447345421088  0.5431875900645479  0.6182820150368331  1.0000
  H   H3        1.0  0.2531092245015643  0.44825929353783056  0.5993919007422265  1.0000
  H   H4        1.0  0.7468912635245317  0.5517475673769922  0.40061062688280924  1.0000
  H   H5        1.0  0.5644528284010519  0.8662113794321938  0.5085843366759377  1.0000
  H   H6        1.0  0.4355490594034848  0.13378716518393927  0.49141485874414315  1.0000
  H   H7        1.0  0.3340979404458579  0.8539854421798124  0.2937386513002025  1.0000
  H   H8        1.0  0.6659051480159093  0.1460131020581201  0.7062608145602314  1.0000
  H   H9        1.0  0.6439400829528665  0.45864427778163025  0.9867614752534453  1.0000
  H   H10       1.0  0.35605485938780385  0.5413507019074116  0.013233869188169866  1.0000
  H   H11       1.0  0.4277325375952898  0.4438277518307244  0.7664290085621277  1.0000
  H   H12       1.0  0.5722615812843515  0.5561731584885905  0.23356658572070194  1.0000
  H   H13       1.0  0.7331625698423705  0.8863792752927535  0.7057064572887627  1.0000
  H   H14       1.0  0.2668378588253972  0.11362283689788198  0.2942946960273219  1.0000
  H   H15       1.0  0.9330236259192901  0.8790835947441947  0.9265312144621877  1.0000
  H   H16       1.0  0.06697851129604969  0.12091140046319276  0.07346980130864011  1.0000
  H   H17       1.0  0.3680070182276579  0.8568892985371334  0.8771664523008271  1.0000
  H   H18       1.0  0.6319920910662091  0.14310331658332837  0.12283168195698124  1.0000
  H   H19       1.0  0.23311401962700976  0.9587104900107233  0.9307919306469047  1.0000
  H   H20       1.0  0.7668881198555155  0.0412845007497751  0.06920807295215076  1.0000
  H   H21       1.0  0.17716752984778586  0.762078654862094  0.6410913521714934  1.0000
  H   H22       1.0  0.8228298686313167  0.23792108168850493  0.35890793180333713  1.0000
  H   H23       1.0  0.012897134051506491  0.8181329115939703  0.6910293142112354  1.0000
  H   H24       1.0  0.9871029790455665  0.18186801462189084  0.3089716809604611  1.0000
  H   H25       1.0  0.3299560509877821  0.0614311467870721  0.6897943756574778  1.0000
  H   H26       1.0  0.6700491712401799  0.9385709816783177  0.31021190810710664  1.0000
  H   H27       1.0  0.1497146835480834  0.0028067874921760003  0.5449407666389947  1.0000
  H   H28       1.0  0.8502923247232629  0.99719293713904  0.45505865651511374  1.0000
  C   C1        1.0  0.15830122217776924  0.545399505895979  0.4146077165169333  1.0000
  C   C2        1.0  0.8416986369741294  0.45460497862240595  0.585393482647561  1.0000
  C   C3        1.0  0.2800707722447058  0.5414313697353562  0.5361958332230189  1.0000
  C   C4        1.0  0.7199281401951366  0.4585695568587127  0.46380489150831766  1.0000
  C   C5        1.0  0.430829703177828  0.6590888726187812  0.5772131971109575  1.0000
  C   C6        1.0  0.5691686420133379  0.3409144218561479  0.4227865612970235  1.0000
  C   C7        1.0  0.45016032293437996  0.7729547590864597  0.4866192122678117  1.0000
  C   C8        1.0  0.5498433966687629  0.22704615710102155  0.5133805698813918  1.0000
  C   C9        1.0  0.3220635014293122  0.7679657812624824  0.36630220807870734  1.0000
  C   C10       1.0  0.677937499021496  0.23203395415351474  0.6336978872171813  1.0000
  C   C11       1.0  0.6593979070933074  0.5499720664182844  0.920026711653293  1.0000
  C   C12       1.0  0.34059943202746007  0.4500229214081273  0.07997119801257921  1.0000
  C   C13       1.0  0.53780075572692  0.5431476052291728  0.7951512697523954  1.0000
  C   C14       1.0  0.46219481548794045  0.45684975085630697  0.20484540314976132  1.0000
  C   C15       1.0  0.5586439155251242  0.6630251519249056  0.7104537203147674  1.0000
  C   C16       1.0  0.4413549991818967  0.3369757702222741  0.2895459922447969  1.0000
  C   C17       1.0  0.7043620458460466  0.7864225906648341  0.7613167873605565  1.0000
  C   C18       1.0  0.29563926790826395  0.21357833517282637  0.23868447825149275  1.0000
  C   C19       1.0  0.820024236168905  0.7835630753938215  0.8875722627024846  1.0000
  C   C20       1.0  0.17997524578679244  0.21643547887249065  0.11242841618043543  1.0000
  C   C21       1.0  0.16216717050299678  0.7089260373623176  0.924423595200651  1.0000
  C   C22       1.0  0.8378340861601642  0.29107013530426673  0.0755752839306609  1.0000
  C   C23       1.0  0.23580874788277126  0.8527644205190794  0.8638635957821992  1.0000
  C   C24       1.0  0.7641928243510776  0.14723293812228627  0.13613544149350085  1.0000
  C   C25       1.0  0.14783321388021156  0.8518204995573697  0.7078124310268381  1.0000
  C   C26       1.0  0.8521665836461806  0.1481792406837243  0.2921884060004701  1.0000
  C   C27       1.0  0.194491071047274  0.013445528968659897  0.6612938141009936  1.0000
  C   C28       1.0  0.8055105560105389  0.9865565872906643  0.338708621827216  1.0000
  C   C29       1.0  0.1222039696723769  0.13623320211164722  0.7240357207237553  1.0000
  C   C30       1.0  0.877796152493431  0.8637677063166577  0.27596122576083815  1.0000
  N   N1        1.0  0.17610639611927328  0.6569976541159547  0.3301538025610569  1.0000
  N   N2        1.0  0.8238931474619448  0.3430056444276558  0.6698472384590561  1.0000
  N   N3        1.0  0.8009823519493082  0.6662678464662761  0.9665662558729127  1.0000
  N   N4        1.0  0.1990149849042808  0.3337271458070319  0.033432665964731705  1.0000
  O   O1        1.0  0.16074918446609837  0.7315502135846613  0.0535999027625991  1.0000
  O   O2        1.0  0.8392497347752934  0.2684506996687333  0.9463977854534139  1.0000
  O   O3        1.0  0.10875359824218116  0.5755002512005517  0.8445850854961281  1.0000
  O   O4        1.0  0.8912507502351588  0.42450304138336037  0.15541602511362382  1.0000
  O   O5        1.0  0.1912494609094324  0.28362215290206183  0.7354347406791748  1.0000
  O   O6        1.0  0.8087540002141723  0.7163823304817214  0.26456726980637774  1.0000
  O   O7        1.0  0.9931807825658795  0.09263413746923277  0.7661214388640972  1.0000
  O   O8        1.0  0.006816933751096588  0.9073667806092515  0.23387699108334203  1.0000
