data_image0
_chemical_formula_structural       NiH20C26N2O10
_chemical_formula_sum              "Ni1 H20 C26 N2 O10"
_cell_length_a       6.533380948417664
_cell_length_b       8.573758529522483
_cell_length_c       11.240992271609409
_cell_angle_alpha    92.47794321800953
_cell_angle_beta     100.90883850913886
_cell_angle_gamma    81.65437752138313

_space_group_name_H-M_alt    "P 1"
_space_group_IT_number       1

loop_
  _space_group_symop_operation_xyz
  'x, y, z'

loop_
  _atom_site_type_symbol
  _atom_site_label
  _atom_site_symmetry_multiplicity
  _atom_site_fract_x
  _atom_site_fract_y
  _atom_site_fract_z
  _atom_site_occupancy
  Ni  Ni1       1.0  0.999998328533117  0.49999880010570047  4.697798793488097e-06  1.0000
  H   H1        1.0  0.3124347828080687  0.5596062910486879  0.14031222389095893  1.0000
  H   H2        1.0  0.6875714066279883  0.44041083490213145  0.8596888044957326  1.0000
  H   H3        1.0  0.31253821647671737  0.6139193043888936  0.9990052013891315  1.0000
  H   H4        1.0  0.6874627280417299  0.38605971738020634  0.000980481447513204  1.0000
  H   H5        1.0  0.866782095984284  0.5976039169007167  0.6941920402600843  1.0000
  H   H6        1.0  0.13321306103397026  0.40240741787197726  0.3058030917448775  1.0000
  H   H7        1.0  0.8010635722585633  0.4591369760064978  0.4030923104879706  1.0000
  H   H8        1.0  0.19894035665415546  0.5408629725263693  0.5968916582738757  1.0000
  H   H9        1.0  0.6842390898049969  0.10045291698232012  0.6262921892192141  1.0000
  H   H10       1.0  0.31578368137228807  0.8995777334083929  0.3737087180381167  1.0000
  H   H11       1.0  0.7326335391813286  0.9015320022739105  0.4643785440395477  1.0000
  H   H12       1.0  0.2673792739069327  0.09847493978812592  0.5356344828267583  1.0000
  H   H13       1.0  0.5860725759659786  0.8014877388090584  0.2827738740629543  1.0000
  H   H14       1.0  0.4139253340931787  0.19851009920769516  0.7172348664549804  1.0000
  H   H15       1.0  0.6769542068042046  0.5874487914498019  0.1427846929008467  1.0000
  H   H16       1.0  0.32306141965947427  0.4125555455983304  0.8572249017055501  1.0000
  H   H17       1.0  0.12723108830573443  0.8193127235135691  0.03693915486235261  1.0000
  H   H18       1.0  0.8727463892719954  0.18069055358128594  0.9630712416574954  1.0000
  H   H19       1.0  0.05947664076307291  0.04293837817657221  0.17483404206730313  1.0000
  H   H20       1.0  0.9405021041436967  0.9570599082255246  0.8251710637145991  1.0000
  C   C1        1.0  0.8331019761619912  0.284810582326145  0.20159107835651474  1.0000
  C   C2        1.0  0.16687791141292505  0.7151465805657794  0.7983891622592196  1.0000
  C   C3        1.0  0.799783669337337  0.2275874020708884  0.3204016616688535  1.0000
  C   C4        1.0  0.20019610253422823  0.7724200143287733  0.6795989883000148  1.0000
  C   C5        1.0  0.7808980924815075  0.33728858308495563  0.41444815584092254  1.0000
  C   C6        1.0  0.21910067491270974  0.6627179088600529  0.585546276216384  1.0000
  C   C7        1.0  0.7366119139459927  0.2931703964293036  0.5242344149184675  1.0000
  C   C8        1.0  0.2633908819001789  0.7068423172454248  0.47577004101514586  1.0000
  C   C9        1.0  0.7129681627943967  0.13594074770195871  0.539801526010912  1.0000
  C   C10       1.0  0.28703525372965527  0.8640675986196558  0.46018596902361253  1.0000
  C   C11       1.0  0.7380137734227077  0.02515705979813281  0.447997693292038  1.0000
  C   C12       1.0  0.2620080666991811  0.974850737982216  0.5520148820712906  1.0000
  C   C13       1.0  0.7811018635612541  0.06807170967904602  0.3368512600194792  1.0000
  C   C14       1.0  0.21889040046669803  0.9319292478220762  0.6631455545218046  1.0000
  C   C15       1.0  0.8175818323751758  0.9439393859682212  0.24509669731575207  1.0000
  C   C16       1.0  0.1824035367745225  0.05606890238679802  0.7549015412884971  1.0000
  C   C17       1.0  0.7098561196211651  0.8121957012164956  0.23226133439776936  1.0000
  C   C18       1.0  0.29014317354754127  0.1878056998798457  0.7677492525143635  1.0000
  C   C19       1.0  0.759035023805339  0.6900527758227855  0.1531390029255846  1.0000
  C   C20       1.0  0.24096547774698962  0.30995579854714345  0.8468751995590086  1.0000
  C   C21       1.0  0.008825751671601286  0.8196497684540917  0.09348545392969501  1.0000
  C   C22       1.0  0.9911620387508008  0.18034859434309425  0.9065272596509077  1.0000
  C   C23       1.0  0.9674279916545673  0.9459352754331506  0.17075578264292807  1.0000
  C   C24       1.0  0.03255918238775022  0.054060498587176715  0.8292515388161236  1.0000
  C   C25       1.0  0.7306999037621865  0.4076795051948423  0.6275983097636768  1.0000
  C   C26       1.0  0.2693181740376218  0.5923290101539893  0.3724024410065994  1.0000
  N   N1        1.0  0.9101469764614052  0.6905339216110633  0.0862243315741011  1.0000
  N   N2        1.0  0.08984005822224365  0.30945816422345734  0.9137794152769633  1.0000
  O   O1        1.0  0.2908349003280506  0.5265817817680443  0.0525195944928569  1.0000
  O   O2        1.0  0.7091660892364047  0.4734203905330007  0.9474839130484229  1.0000
  O   O3        1.0  0.6911991257722718  0.27118322918127563  0.10995577517758902  1.0000
  O   O4        1.0  0.3088244350447624  0.7287645368038512  0.8900293430002364  1.0000
  O   O5        1.0  0.001990732093119591  0.3444173516554728  0.20015676007153624  1.0000
  O   O6        1.0  0.9979961978007381  0.6555608777467656  0.7998273371905003  1.0000
  O   O7        1.0  0.6669001614834754  0.3738242444514341  0.7197563844790765  1.0000
  O   O8        1.0  0.33313637368467397  0.6261706842429859  0.28024264044415764  1.0000
  O   O9        1.0  0.8027757981673814  0.5397790251445117  0.6126858272779857  1.0000
  O   O10       1.0  0.19720629296529074  0.46025072068178474  0.387293379153256  1.0000
