data_image0
_chemical_formula_structural       Hf6H30C46N2O32
_chemical_formula_sum              "Hf6 H30 C46 N2 O32"
_cell_length_a       7.790379692932129
_cell_length_b       18.189002849269453
_cell_length_c       23.027933690099225
_cell_angle_alpha    89.40804345554133
_cell_angle_beta     97.23946135187799
_cell_angle_gamma    90.22879248058972

_space_group_name_H-M_alt    "P 1"
_space_group_IT_number       1

loop_
  _space_group_symop_operation_xyz
  'x, y, z'

loop_
  _atom_site_type_symbol
  _atom_site_label
  _atom_site_symmetry_multiplicity
  _atom_site_fract_x
  _atom_site_fract_y
  _atom_site_fract_z
  _atom_site_occupancy
  Hf  Hf1       1.0  0.985529121394599  0.10047742328624308  0.9259522807424149  1.0000
  Hf  Hf2       1.0  0.03734381265249452  0.8896217846747093  0.06911194327754093  1.0000
  Hf  Hf3       1.0  0.7640137031534737  0.9342559290088701  0.9400221825605615  1.0000
  Hf  Hf4       1.0  0.25196743244551095  0.0568498117724161  0.05644429477663951  1.0000
  Hf  Hf5       1.0  0.8047271835931652  0.0582944516179751  0.058928202597769506  1.0000
  Hf  Hf6       1.0  0.2166365873020697  0.928972333233091  0.9373856505545817  1.0000
  H   H1        1.0  0.0291193286944207  0.17493406811833268  0.0465499766455579  1.0000
  H   H2        1.0  0.677625680808255  0.9071250524756707  0.05396078365028248  1.0000
  H   H3        1.0  0.39034522982839087  0.9134467687243913  0.05486317293932791  1.0000
  H   H4        1.0  0.9624014626739664  0.9703211649610779  0.848632954461742  1.0000
  H   H5        1.0  0.663008235776033  0.18247102100891507  0.1350404409638912  1.0000
  H   H6        1.0  0.5849690664354344  0.8349534966757871  0.8574606325700674  1.0000
  H   H7        1.0  0.08249176741356512  0.8134032668796678  0.8795905227419499  1.0000
  H   H8        1.0  0.9374048326641072  0.15952527915750633  0.1394397423444289  1.0000
  H   H9        1.0  0.3951655968295995  0.1718495070674706  0.1312070195301089  1.0000
  H   H10       1.0  0.5143070856313372  0.1038081597230516  0.017122599576602202  1.0000
  H   H11       1.0  0.3307481324897879  0.8115529501315777  0.858744801560711  1.0000
  H   H12       1.0  0.7598217315593698  0.030247508270917895  0.16851828974623834  1.0000
  H   H13       1.0  0.975145125172027  0.8759713855165784  0.177515926892454  1.0000
  H   H14       1.0  0.05343136043020285  0.11422279889384869  0.8164179775804428  1.0000
  H   H15       1.0  0.4044398392026951  0.9953579819323788  0.8559773706520775  1.0000
  H   H16       1.0  0.3041804847918854  0.10728155014404449  0.1654675385379036  1.0000
  H   H17       1.0  0.8021941488779588  0.947056543144342  0.14352822958284153  1.0000
  H   H18       1.0  0.5028212627183777  0.9873430350754758  0.9801760508962334  1.0000
  H   H19       1.0  0.5458239773690181  0.22698241356928153  0.08840534802708085  1.0000
  H   H20       1.0  0.46824927877495537  0.7671780559531809  0.8999542964281845  1.0000
  H   H21       1.0  0.648789710255855  0.9112833453001912  0.827427510932232  1.0000
  H   H22       1.0  0.2188434175836353  0.038799402116026685  0.8532350789253801  1.0000
  H   H23       1.0  0.19789307725911698  0.49673576375157324  0.007192274533309706  1.0000
  H   H24       1.0  0.8253163914711623  0.49570341358286635  0.9819037148586319  1.0000
  H   H25       1.0  0.12830673363666273  0.22612728447978717  0.7858650013735513  1.0000
  H   H26       1.0  0.8220173777812506  0.19913806907293008  0.7188957292963067  1.0000
  H   H27       1.0  0.849665083102259  0.7948869504705911  0.22360172036966477  1.0000
  H   H28       1.0  0.1571860773331437  0.8178509427781009  0.29169412572152004  1.0000
  H   H29       1.0  0.8051461854250308  0.0202773021711167  0.4975579226928347  1.0000
  H   H30       1.0  0.17994787776950025  0.9984660344538554  0.5120532590677842  1.0000
  C   C1        1.0  0.7475924877201267  0.2172646266800697  0.9799801094859861  1.0000
  C   C2        1.0  0.25652211701206096  0.2180698050035943  0.9849564976299732  1.0000
  C   C3        1.0  0.650311629135473  0.0757427367810948  0.8316070014799524  1.0000
  C   C4        1.0  0.7774114936182032  0.7727395055481594  0.0005276889328200906  1.0000
  C   C5        1.0  0.27110410780527866  0.7738288629711647  0.015469040249840305  1.0000
  C   C6        1.0  0.344301681988  0.9398673863932601  0.16770207255543576  1.0000
  C   C7        1.0  0.41809931126698563  0.4295280393615925  0.9953811426601862  1.0000
  C   C8        1.0  0.5990577042799431  0.42923564155611865  0.9888997745063649  1.0000
  C   C9        1.0  0.6886797911733282  0.4958961869167308  0.9875242313565665  1.0000
  C   C10       1.0  0.6047288901708755  0.5627814288603118  0.9932374593190689  1.0000
  C   C11       1.0  0.4247966594612437  0.5630591600237124  0.0009334304200692037  1.0000
  C   C12       1.0  0.3345973956839714  0.49639474253061167  0.001636853583391894  1.0000
  C   C13       1.0  0.2337735048494026  0.14900817962508478  0.726855843388691  1.0000
  C   C14       1.0  0.10680483376058457  0.1921568466413959  0.7472245419924093  1.0000
  C   C15       1.0  0.948147097338243  0.17765853208946678  0.7127510416069499  1.0000
  C   C16       1.0  0.9761905097393963  0.12750637331937043  0.6693722735353234  1.0000
  C   C17       1.0  0.7504790831276864  0.8756958448339632  0.28089284312937934  1.0000
  C   C18       1.0  0.8739835146643171  0.8296302925114387  0.2617395411936698  1.0000
  C   C19       1.0  0.03273994353331488  0.8418741574134996  0.29679508030543644  1.0000
  C   C20       1.0  0.007598205930648258  0.8933424574126929  0.33954695313823896  1.0000
  C   C21       1.0  0.6065559341506699  0.0400983695722559  0.5520882036276333  1.0000
  C   C22       1.0  0.4246998236733789  0.034156216637064994  0.5560957900111632  1.0000
  C   C23       1.0  0.31771046892759364  0.003599680133042699  0.5087814895403256  1.0000
  C   C24       1.0  0.3785794636073022  0.9787994635845787  0.4574821044733285  1.0000
  C   C25       1.0  0.5602342674534455  0.9851788175898049  0.4533479698767239  1.0000
  C   C26       1.0  0.6673767096847456  0.015253522746938602  0.5008024044283844  1.0000
  C   C27       1.0  0.6431924289928543  0.961951650351054  0.4054528493809499  1.0000
  C   C28       1.0  0.7380584661504415  0.9431220721537416  0.3700428611535572  1.0000
  C   C29       1.0  0.25420279038920063  0.948936761693119  0.4140713988740714  1.0000
  C   C30       1.0  0.1312001051263536  0.9240381259980524  0.381603235637229  1.0000
  C   C31       1.0  0.34167787902359265  0.05876573165879509  0.6035785097035175  1.0000
  C   C32       1.0  0.247225460820502  0.07962673699296367  0.6384670985768609  1.0000
  C   C33       1.0  0.8536133295036094  0.09567083856903479  0.627596411661756  1.0000
  C   C34       1.0  0.7307439756972016  0.0701907400723343  0.5953913089497647  1.0000
  C   C35       1.0  0.3348807849256163  0.3603399366796721  0.993942283664275  1.0000
  C   C36       1.0  0.29462976718124184  0.29556993400683496  0.9905686551750109  1.0000
  C   C37       1.0  0.736639889943568  0.6955045385545019  0.9940133770954276  1.0000
  C   C38       1.0  0.6887678693326579  0.6316514045800544  0.9927732016706018  1.0000
  C   C39       1.0  0.3085113826476657  0.6964597464131046  0.012125565383691101  1.0000
  C   C40       1.0  0.34804785073173145  0.6321996061186111  0.0076523255720602  1.0000
  C   C41       1.0  0.6766349423502831  0.35993727475483434  0.9840615293598278  1.0000
  C   C42       1.0  0.713001084099183  0.2949806417789204  0.9820951734945284  1.0000
  C   C43       1.0  0.4663035639386024  0.9182704454214627  0.217378455847566  1.0000
  C   C44       1.0  0.590950079165914  0.8969027395186657  0.2507900604133014  1.0000
  C   C45       1.0  0.5250523105420725  0.10713190004650389  0.7864888055080428  1.0000
  C   C46       1.0  0.3963134111015096  0.12930663109693086  0.7555649763136076  1.0000
  N   N1        1.0  0.15550105919546545  0.11134888304867731  0.677001127167479  1.0000
  N   N2        1.0  0.8299259964392646  0.9125726617381247  0.3309446450070653  1.0000
  O   O1        1.0  0.11978876191120245  0.10473147028066879  0.8543369661032969  1.0000
  O   O2        1.0  0.8247329089798613  0.1958552081097693  0.9378952868983037  1.0000
  O   O3        1.0  0.784776743577865  0.11302035920177636  0.8485983353048356  1.0000
  O   O4        1.0  0.33026657859561226  0.1754659069588769  0.02487008370543012  1.0000
  O   O5        1.0  0.6150475306613574  0.012712535408013495  0.8521989666629184  1.0000
  O   O6        1.0  0.15146797873316617  0.19883247900010298  0.9413690241464965  1.0000
  O   O7        1.0  0.7004271550706278  0.17715776809195205  0.0208205785486371  1.0000
  O   O8        1.0  0.8059728720802968  0.04049362322401609  0.9680680252441294  1.0000
  O   O9        1.0  0.0206696300155897  0.12490483274259387  0.0322518625828749  1.0000
  O   O10       1.0  0.9630307805086388  0.9796251158888509  0.890151424312812  1.0000
  O   O11       1.0  0.18629230715231423  0.0400198192273464  0.9682187973750446  1.0000
  O   O12       1.0  0.5221905822793573  0.057793872759226886  0.04033994172503702  1.0000
  O   O13       1.0  0.5559412963545896  0.21433450685995578  0.1301370552936802  1.0000
  O   O14       1.0  0.037168561703495605  0.0027387798057531996  0.0787396997422718  1.0000
  O   O15       1.0  0.7656809368783327  0.9355012400361317  0.03747241142871622  1.0000
  O   O16       1.0  0.003547113941074888  0.8979124939910291  0.9782053894148323  1.0000
  O   O17       1.0  0.2857637893974569  0.9388483263421961  0.038713798659287604  1.0000
  O   O18       1.0  0.4960129739109719  0.945437163876285  0.9527239117826201  1.0000
  O   O19       1.0  0.7114307519449243  0.8156435172513878  0.9595771537211776  1.0000
  O   O20       1.0  0.8710230817155562  0.7909544294344568  0.04714119757323226  1.0000
  O   O21       1.0  0.27957961729694625  0.9871736270756556  0.8586338294030471  1.0000
  O   O22       1.0  0.20263229827287424  0.7949270036868724  0.059909033989392006  1.0000
  O   O23       1.0  0.6864610780762136  0.8753042675572614  0.8581344572988173  1.0000
  O   O24       1.0  0.15473857531196003  0.8547400857612856  0.8708344305825408  1.0000
  O   O25       1.0  0.44523497274992235  0.7843964540258738  0.8593516030831125  1.0000
  O   O26       1.0  0.3110015947863973  0.8142389954186838  0.9738407835038034  1.0000
  O   O27       1.0  0.8989729049267509  0.8804639477142613  0.1408274073640783  1.0000
  O   O28       1.0  0.2824026912116935  0.1385650748578229  0.1305390007071239  1.0000
  O   O29       1.0  0.2362814593111153  0.890622879701382  0.14780514708295564  1.0000
  O   O30       1.0  0.35851005895116117  0.004144581194751101  0.14601368320992952  1.0000
  O   O31       1.0  0.8355299950025739  0.12885008770410167  0.13042107620382376  1.0000
  O   O32       1.0  0.7312382179336792  0.9966510796417155  0.13597517252567573  1.0000
