data_image0
_chemical_formula_structural       Zn4H40C24S8N16O16
_chemical_formula_sum              "Zn4 H40 C24 S8 N16 O16"
_cell_length_a       6.746204484005888
_cell_length_b       11.497646400010003
_cell_length_c       14.67253875900025
_cell_angle_alpha    90.00001379838663
_cell_angle_beta     89.99998394293605
_cell_angle_gamma    89.99984945550142

_space_group_name_H-M_alt    "P 1"
_space_group_IT_number       1

loop_
  _space_group_symop_operation_xyz
  'x, y, z'

loop_
  _atom_site_type_symbol
  _atom_site_label
  _atom_site_symmetry_multiplicity
  _atom_site_fract_x
  _atom_site_fract_y
  _atom_site_fract_z
  _atom_site_occupancy
  Zn  Zn1       1.0  0.20025871250398097  0.24999970645355765  1.0796064499999985e-08  1.0000
  Zn  Zn2       1.0  0.2997415282999967  0.7499994280213114  0.5000000940255092  1.0000
  Zn  Zn3       1.0  0.7997428310314234  0.7499998357125293  7.011460283000001e-07  1.0000
  Zn  Zn4       1.0  0.7002567451001552  0.2500002673089909  0.5000000209512692  1.0000
  H   H1        1.0  0.8982081490682248  0.23389678882509193  0.30307975674248416  1.0000
  H   H2        1.0  0.8982079566458193  0.26610344057545626  0.6969195781701601  1.0000
  H   H3        1.0  0.6017929814809475  0.7338967227660119  0.1969195992151995  1.0000
  H   H4        1.0  0.60179272419348  0.7661034070357997  0.8030798684651189  1.0000
  H   H5        1.0  0.10179160664517177  0.7661037762471778  0.696919676688971  1.0000
  H   H6        1.0  0.10179328138409718  0.7338962547526576  0.30308121835173557  1.0000
  H   H7        1.0  0.398208256549175  0.26610297256200244  0.8030805157613871  1.0000
  H   H8        1.0  0.398208513834902  0.233897158035326  0.1969195649662367  1.0000
  H   H9        1.0  0.9981891270665881  0.09815762156674877  0.268136227797342  1.0000
  H   H10       1.0  0.9981897878389602  0.4018424536745042  0.731863775809039  1.0000
  H   H11       1.0  0.5018111289386837  0.5981568506278876  0.2318631024603803  1.0000
  H   H12       1.0  0.5018102852310021  0.9018425635912591  0.7681363780715174  1.0000
  H   H13       1.0  0.0018106286468082995  0.901842943505521  0.7318632056341058  1.0000
  H   H14       1.0  0.0018129325076827998  0.5981563719093541  0.2681377022579952  1.0000
  H   H15       1.0  0.4981871444616813  0.4018428447023084  0.7681363309710819  1.0000
  H   H16       1.0  0.49818798816914966  0.09815713173904328  0.23186373690526105  1.0000
  H   H17       1.0  0.8591043839632704  0.3805207239219327  0.1968357191516219  1.0000
  H   H18       1.0  0.8591033008171178  0.1194786960295318  0.8031643023326823  1.0000
  H   H19       1.0  0.6408975723949054  0.8805206301140345  0.303164346112105  1.0000
  H   H20       1.0  0.6408965542147128  0.6194794393938565  0.6968357980870864  1.0000
  H   H21       1.0  0.1408968540670585  0.6194789714059752  0.8031637142796485  1.0000
  H   H22       1.0  0.14089645489760727  0.8805209992998329  0.19683717573462192  1.0000
  H   H23       1.0  0.35910218332023186  0.11947906521512408  0.696835768864574  1.0000
  H   H24       1.0  0.3591046838134631  0.3805211256773758  0.3031643168895783  1.0000
  H   H25       1.0  0.871155715325315  0.34721301025520285  0.0791130751020859  1.0000
  H   H26       1.0  0.8711558934300071  0.1527863911134801  0.9208862632877557  1.0000
  H   H27       1.0  0.6288463901675952  0.8472129710900089  0.4208863023100662  1.0000
  H   H28       1.0  0.6288438124672949  0.6527871170005637  0.5791138434382789  1.0000
  H   H29       1.0  0.12884552270696759  0.6527858153294871  0.9208863583291064  1.0000
  H   H30       1.0  0.1288453446001157  0.8472133042145343  0.079113851688831  1.0000
  H   H31       1.0  0.37115336554775513  0.15278672423904277  0.5791131311213038  1.0000
  H   H32       1.0  0.37115446093264365  0.34721257832983815  0.42088695308380863  1.0000
  H   H33       1.0  0.4612372351793254  0.6072343656536743  0.060545787139730606  1.0000
  H   H34       1.0  0.4612378097523047  0.8927659808677006  0.9394536986075153  1.0000
  H   H35       1.0  0.03876216253877369  0.10723415796557842  0.4394536091063587  1.0000
  H   H36       1.0  0.0387629686268482  0.39276652685414587  0.56054515473366  1.0000
  H   H37       1.0  0.5387625205338649  0.39276619941870194  0.9394543278370335  1.0000
  H   H38       1.0  0.5387619459630457  0.10723371446135127  0.06054573482385451  1.0000
  H   H39       1.0  0.9612375931746228  0.8927664071066912  0.5605458243250895  1.0000
  H   H40       1.0  0.9612382694017467  0.6072340382168802  0.4394535971523865  1.0000
  C   C1        1.0  0.41107014481254095  0.4310983643594709  0.1139973278401101  1.0000
  C   C2        1.0  0.4110692375103325  0.06890174640715678  0.8860020696890133  1.0000
  C   C3        1.0  0.08892928512524628  0.9310983760537754  0.3860021297242326  1.0000
  C   C4        1.0  0.08893299096605736  0.5689016747763418  0.6139967223337308  1.0000
  C   C5        1.0  0.5889310932156347  0.5689022007117613  0.8860027871365547  1.0000
  C   C6        1.0  0.5889305182050107  0.9310979489218951  0.1139973637423566  1.0000
  C   C7        1.0  0.9110689882731718  0.0689021890196386  0.6139973037073149  1.0000
  C   C8        1.0  0.9110697293794627  0.43109802055031565  0.3860020295521381  1.0000
  C   C9        1.0  0.9356040795093249  0.21338645429118236  0.1653517127450712  1.0000
  C   C10       1.0  0.9356037110989631  0.28661371744954056  0.8346482989060319  1.0000
  C   C11       1.0  0.5643986251911882  0.7133856183370779  0.3346476393291411  1.0000
  C   C12       1.0  0.5643968779057217  0.7866136993803036  0.6653518331578425  1.0000
  C   C13       1.0  0.06439715852100389  0.7866132410367254  0.8346477206861991  1.0000
  C   C14       1.0  0.06439900924572577  0.7133859778775359  0.1653531791610803  1.0000
  C   C15       1.0  0.4356011305241552  0.2866140769919737  0.6653517941022287  1.0000
  C   C16       1.0  0.43560139549443017  0.21338599594999147  0.3346482818189287  1.0000
  C   C17       1.0  0.46759509503381463  0.5156364808989196  0.04149863123744519  1.0000
  C   C18       1.0  0.4675937655278091  0.9843629860777481  0.9585015352379147  1.0000
  C   C19       1.0  0.03240471280984989  0.0156371585914883  0.4585014292114807  1.0000
  C   C20       1.0  0.0324051204123137  0.4843635360310826  0.5414980169910564  1.0000
  C   C21       1.0  0.5324061429960948  0.4843632144291945  0.9585021652844503  1.0000
  C   C22       1.0  0.5324030255575635  0.015636709253591598  0.041497898193647104  1.0000
  C   C23       1.0  0.9675950429035466  0.9843634064807816  0.5414980042199673  1.0000
  C   C24       1.0  0.9675961176160681  0.5156370290400503  0.4585014164402992  1.0000
  S   S1        1.0  0.013284222147241597  0.1161463814707844  0.08094373906981642  1.0000
  S   S2        1.0  0.013284849087860096  0.3838534728900169  0.9190563911356762  1.0000
  S   S3        1.0  0.4867166179813793  0.6161466596938394  0.419055658863563  1.0000
  S   S4        1.0  0.48671448688209284  0.8838536475435602  0.5809445051540578  1.0000
  S   S5        1.0  0.9867155335678959  0.8838533138583738  0.9190563759068624  1.0000
  S   S6        1.0  0.9867163889398967  0.6161470921814212  0.08094508693161373  1.0000
  S   S7        1.0  0.5132831377341772  0.38385303563510564  0.5809430930224907  1.0000
  S   S8        1.0  0.5132823042009206  0.1161469175312106  0.41905629136820727  1.0000
  N   N1        1.0  0.9404972526186552  0.17874720044175518  0.2511282758841418  1.0000
  N   N2        1.0  0.9404982638372771  0.32125296375311047  0.7488710535925948  1.0000
  N   N3        1.0  0.5595041248615542  0.6787472155011969  0.2488710696318748  1.0000
  N   N4        1.0  0.5595021700707788  0.8212529795064042  0.7511290850296533  1.0000
  N   N5        1.0  0.05950250309474109  0.8212533646305141  0.7488711575473063  1.0000
  N   N6        1.0  0.05950445650741189  0.6787467315739659  0.2511304244745176  1.0000
  N   N7        1.0  0.4404971131668276  0.32125334956992896  0.7511283637994808  1.0000
  N   N8        1.0  0.44049758564435837  0.17874671582275428  0.24887102994702562  1.0000
  N   N9        1.0  0.8707570131377974  0.3200918178536298  0.1451473162527748  1.0000
  N   N10       1.0  0.8707556278402816  0.17990758413110797  0.8548527037337266  1.0000
  N   N11       1.0  0.6292437314726269  0.8200926275902206  0.3548527375699138  1.0000
  N   N12       1.0  0.6292439566223605  0.679908329628759  0.6451474081272578  1.0000
  N   N13       1.0  0.12924422489253115  0.6799078774742779  0.8548521171784956  1.0000
  N   N14       1.0  0.1292456101896349  0.8200921111970133  0.14514809278816906  1.0000
  N   N15       1.0  0.3707545419255709  0.17990793748329986  0.6451473774069428  1.0000
  N   N16       1.0  0.3707557990908299  0.3200922354436102  0.3548527068495062  1.0000
  O   O1        1.0  0.37327580606336136  0.32393384914636414  0.0926704042346458  1.0000
  O   O2        1.0  0.3732744059027978  0.1760663198951065  0.9073296796978881  1.0000
  O   O3        1.0  0.126725586016363  0.8239338090978379  0.40732971458506745  1.0000
  O   O4        1.0  0.12672289579931828  0.6760670532031483  0.5926698141603737  1.0000
  O   O5        1.0  0.6267269142795866  0.6760667159238307  0.9073303922872356  1.0000
  O   O6        1.0  0.6267253498123394  0.8239333754340448  0.09267043527879082  1.0000
  O   O7        1.0  0.8732756520120188  0.17606675597329502  0.5926697188462882  1.0000
  O   O8        1.0  0.8732753775991  0.3239335118702655  0.4073296192711737  1.0000
  O   O9        1.0  0.4099123549673961  0.46548280616866566  0.1953833830051934  1.0000
  O   O10       1.0  0.4099160982915677  0.03451817612276639  0.8046160146725329  1.0000
  O   O11       1.0  0.0900854386995888  0.9654827911487018  0.30461676261468534  1.0000
  O   O12       1.0  0.09008776645326577  0.5345172579000418  0.6953834523853786  1.0000
  O   O13       1.0  0.590082953800838  0.5345177589071425  0.8046167319718549  1.0000
  O   O14       1.0  0.5900836574218289  0.9654823889495033  0.19538341875891518  1.0000
  O   O15       1.0  0.9099157993285869  0.0345177739225306  0.6953833523619866  1.0000
  O   O16       1.0  0.9099179185220193  0.46548243742444123  0.3046159810456076  1.0000
