data_image0
_chemical_formula_structural       Na2Y2H24C24O24
_chemical_formula_sum              "Na2 Y2 H24 C24 O24"
_cell_length_a       6.842628353479561
_cell_length_b       7.475567429003499
_cell_length_c       15.624868667020369
_cell_angle_alpha    90.00001634094528
_cell_angle_beta     102.63775821609609
_cell_angle_gamma    89.99988911534625

_space_group_name_H-M_alt    "P 1"
_space_group_IT_number       1

loop_
  _space_group_symop_operation_xyz
  'x, y, z'

loop_
  _atom_site_type_symbol
  _atom_site_label
  _atom_site_symmetry_multiplicity
  _atom_site_fract_x
  _atom_site_fract_y
  _atom_site_fract_z
  _atom_site_occupancy
  Na  Na1       1.0  0.1406824284696171  0.7499416918194156  0.28155794316813837  1.0000
  Na  Na2       1.0  0.8593126415792581  0.24994301673600458  0.7184417696474054  1.0000
  Y   Y1        1.0  0.304412122047431  0.25010400014667766  0.6087564885270282  1.0000
  Y   Y2        1.0  0.6955814499432263  0.7501071050378768  0.391243079384715  1.0000
  H   H1        1.0  0.8449170125884677  0.2625880300317434  0.06055946266177162  1.0000
  H   H2        1.0  0.1550840211988529  0.7625910794848918  0.9394408288781761  1.0000
  H   H3        1.0  0.21619718450648406  0.23718583437451463  0.06059473485418469  1.0000
  H   H4        1.0  0.7838053981496458  0.7371931180148721  0.9394063429715516  1.0000
  H   H5        1.0  0.763107934276853  0.2573753664086098  0.8970252990130659  1.0000
  H   H6        1.0  0.23689011200253418  0.7573791163864384  0.1029753427819671  1.0000
  H   H7        1.0  0.1345633432486153  0.2423710435022173  0.8970743248640146  1.0000
  H   H8        1.0  0.8654362296227872  0.7423790279703866  0.10292710252039679  1.0000
  H   H9        1.0  0.2189044836131231  0.4018810655817191  0.2080448041010428  1.0000
  H   H10       1.0  0.7810932530781898  0.9018789034886365  0.7919558280157231  1.0000
  H   H11       1.0  0.9891050661715894  0.09792218429476658  0.207993598163057  1.0000
  H   H12       1.0  0.010894809667597398  0.5979200523530326  0.792009118279793  1.0000
  H   H13       1.0  0.9843742338923461  0.4127170180633896  0.19649902631300614  1.0000
  H   H14       1.0  0.0156234860964091  0.9127175598625711  0.8035003256944788  1.0000
  H   H15       1.0  0.212080011212727  0.08705680608056808  0.19644940409234116  1.0000
  H   H16       1.0  0.7879213888684404  0.5870573140658522  0.8035528182792929  1.0000
  H   H17       1.0  0.45741299960423726  0.615949029363513  0.699791423876533  1.0000
  H   H18       1.0  0.5425883483509039  0.1159493331295636  0.30020887748485586  1.0000
  H   H19       1.0  0.2423286414744723  0.8842806907132186  0.6998029543123961  1.0000
  H   H20       1.0  0.7576691459493858  0.3842846255759582  0.3001951202160953  1.0000
  H   H21       1.0  0.5135774471252219  0.7686370201209628  0.5830149971180276  1.0000
  H   H22       1.0  0.4864265723759686  0.2686415053715833  0.4169849441107373  1.0000
  H   H23       1.0  0.06925315908138428  0.7316515935303726  0.5831092203548491  1.0000
  H   H24       1.0  0.9307464628259865  0.23165261426241557  0.4168870902139829  1.0000
  C   C1        1.0  0.3952187885364252  0.25001702292249917  0.7901352596539296  1.0000
  C   C2        1.0  0.6047777790562278  0.7500215201078717  0.20986459804932878  1.0000
  C   C3        1.0  0.4440232537169706  0.2498872521807414  0.8875118295062661  1.0000
  C   C4        1.0  0.5559733076408477  0.7498891033948636  0.11248930758921458  1.0000
  C   C5        1.0  0.5357079748493732  0.24990432064340237  0.07088159576586858  1.0000
  C   C6        1.0  0.46429158188690417  0.7499081525892634  0.9291198311141355  1.0000
  C   C7        1.0  0.6896336163610215  0.2567758895083614  0.024544649797036317  1.0000
  C   C8        1.0  0.31036593542799534  0.7567786843703815  0.9754548575476104  1.0000
  C   C9        1.0  0.3354801121272288  0.2429832710847322  0.024581374975731818  1.0000
  C   C10       1.0  0.6645209571444538  0.7429881123587804  0.9754201972606464  1.0000
  C   C11       1.0  0.3766841539216442  0.6869216027255972  0.5732672369895084  1.0000
  C   C12       1.0  0.6233125521056734  0.18692718829440483  0.4267319852478976  1.0000
  C   C13       1.0  0.1964012386782841  0.8132693623799199  0.5733040785277124  1.0000
  C   C14       1.0  0.8035981953407968  0.3132666016101453  0.42669478534166666  1.0000
  C   C15       1.0  0.3525136314255874  0.5872823396043569  0.486605432149453  1.0000
  C   C16       1.0  0.6474832717676191  0.08730264781250699  0.51339699521953  1.0000
  C   C17       1.0  0.1339617257270689  0.912909989134299  0.4866328693284529  1.0000
  C   C18       1.0  0.8660479690190712  0.41289379152471645  0.5133689211930343  1.0000
  C   C19       1.0  0.6444868495976479  0.2546211764714457  0.933424611264378  1.0000
  C   C20       1.0  0.3555156924505383  0.7546246943796148  0.0665771050854502  1.0000
  C   C21       1.0  0.28955715958016975  0.24512923561531613  0.9334585669587196  1.0000
  C   C22       1.0  0.7104424139002603  0.745134798561608  0.0665415808576029  1.0000
  C   C23       1.0  0.5846380696071876  0.24997921671489817  0.16889368613291816  1.0000
  C   C24       1.0  0.41536299119572817  0.749980402536849  0.8311066062515806  1.0000
  O   O1        1.0  0.28986928535793766  0.4282014936713877  0.4837540116684095  1.0000
  O   O2        1.0  0.7101298959142566  0.9281952824007789  0.5162461238867876  1.0000
  O   O3        1.0  0.19386408690947118  0.07195036117044398  0.4837763331114927  1.0000
  O   O4        1.0  0.8061358641071407  0.5719600316813994  0.5162225469201472  1.0000
  O   O5        1.0  0.39523034761791104  0.669249304532258  0.42146555634116817  1.0000
  O   O6        1.0  0.6047739011060145  0.16925233691480193  0.5785311930856807  1.0000
  O   O7        1.0  0.026080225252719896  0.8309711352791281  0.4214978911243961  1.0000
  O   O8        1.0  0.9739131897809015  0.33096816130716883  0.5784984729127699  1.0000
  O   O9        1.0  0.535302078473336  0.2437096724926917  0.7475676967435019  1.0000
  O   O10       1.0  0.4646944961221706  0.7437090927223907  0.252433440765806  1.0000
  O   O11       1.0  0.2124956114952568  0.25647019454853387  0.7476897994234335  1.0000
  O   O12       1.0  0.7875024367229314  0.7564743921913292  0.2523108424322088  1.0000
  O   O13       1.0  0.10619519263604359  0.4850400681384954  0.20020916459939994  1.0000
  O   O14       1.0  0.8937993802460511  0.985040385874967  0.7997892530867003  1.0000
  O   O15       1.0  0.0939463285995146  0.014758721301809902  0.20012431123372915  1.0000
  O   O16       1.0  0.9060537319238406  0.514760355022311  0.7998771313955473  1.0000
  O   O17       1.0  0.44725011159098926  0.2099516200147278  0.2097789394427423  1.0000
  O   O18       1.0  0.5527525261645748  0.7099498624211263  0.7902227798990609  1.0000
  O   O19       1.0  0.7628572616372296  0.29010177727244707  0.2097904484829414  1.0000
  O   O20       1.0  0.2371452076574556  0.7901019178557789  0.7902106257989202  1.0000
  O   O21       1.0  0.39469027896563347  0.5564994001263271  0.6413996700432418  1.0000
  O   O22       1.0  0.605309698649556  0.0564982891492178  0.358600490407042  1.0000
  O   O23       1.0  0.2467091970151003  0.9437102720537638  0.641416513250391  1.0000
  O   O24       1.0  0.7532884598295836  0.4437115736482085  0.3585821969895234  1.0000
