data_image0
_chemical_formula_structural       Zn2H12C16N24
_chemical_formula_sum              "Zn2 H12 C16 N24"
_cell_length_a       8.615728772511497
_cell_length_b       8.615459919494667
_cell_length_c       10.14547225682096
_cell_angle_alpha    105.78657863891009
_cell_angle_beta     105.71321661712916
_cell_angle_gamma    111.14187175049895

_space_group_name_H-M_alt    "P 1"
_space_group_IT_number       1

loop_
  _space_group_symop_operation_xyz
  'x, y, z'

loop_
  _atom_site_type_symbol
  _atom_site_label
  _atom_site_symmetry_multiplicity
  _atom_site_fract_x
  _atom_site_fract_y
  _atom_site_fract_z
  _atom_site_occupancy
  Zn  Zn1       1.0  0.8859580973941377  0.13595795957016318  0.25001187059754665  1.0000
  Zn  Zn2       1.0  0.11404290848086161  0.8640436544394561  0.7499897509931299  1.0000
  H   H1        1.0  0.795107504401976  0.07182736737620128  0.8931943300202434  1.0000
  H   H2        1.0  0.17843967885756487  0.40162128115488843  0.6068104638556379  1.0000
  H   H3        1.0  0.20489287186914137  0.9281728821815419  0.1068078180294875  1.0000
  H   H4        1.0  0.8215631030375478  0.5983789792173938  0.3931892770622838  1.0000
  H   H5        1.0  0.5738814995313319  0.5110186474828707  0.8134705598298451  1.0000
  H   H6        1.0  0.6974219810179534  0.26047247077708846  0.6864346593244832  1.0000
  H   H7        1.0  0.42612007330206586  0.4889816057274601  0.18652890432640132  1.0000
  H   H8        1.0  0.3025752723809632  0.7395236712443635  0.31356287003043076  1.0000
  H   H9        1.0  0.9536891365949743  0.7895037661055541  0.2723649293595328  1.0000
  H   H10       1.0  0.5172595534809332  0.1814712413687758  0.22758563094795645  1.0000
  H   H11       1.0  0.04631065188536351  0.2104978384025458  0.727634441699358  1.0000
  H   H12       1.0  0.4827389757916479  0.8185276342355721  0.7724147930290497  1.0000
  C   C1        1.0  0.7874996936432764  0.4402772547782093  0.0373692056970611  1.0000
  C   C2        1.0  0.40287711318409697  0.2501632519571473  0.46256657656272887  1.0000
  C   C3        1.0  0.21250130806524944  0.5597243580616222  0.96263142900856  1.0000
  C   C4        1.0  0.5971207864845953  0.749834259195325  0.5374343738733387  1.0000
  C   C5        1.0  0.7991504887208832  0.19596830885801353  0.9619536357736604  1.0000
  C   C6        1.0  0.2339018081617326  0.3369783461099374  0.5380787435514448  1.0000
  C   C7        1.0  0.2008505129876427  0.804033303981818  0.03804699893196073  1.0000
  C   C8        1.0  0.7660997688381459  0.6630219082701743  0.4619217074898572  1.0000
  C   C9        1.0  0.6586662745783017  0.6170457157390958  0.9281119249710698  1.0000
  C   C10       1.0  0.6888841284229841  0.23062940546419236  0.5718403062647893  1.0000
  C   C11       1.0  0.3413347229637438  0.382955895930948  0.07188772284950319  1.0000
  C   C12       1.0  0.31111312497592547  0.7693667365572594  0.42815722309012466  1.0000
  C   C13       1.0  0.8536707278681633  0.7593657999902917  0.16427206892577578  1.0000
  C   C14       1.0  0.595172236446942  0.18956263372270854  0.33569990744193484  1.0000
  C   C15       1.0  0.14633027384035563  0.2406358128495398  0.8357285657798454  1.0000
  C   C16       1.0  0.40482565488880345  0.8104348750901877  0.6642990692240289  1.0000
  N   N1        1.0  0.8389713943641722  0.24929231289928572  0.10986947112893823  1.0000
  N   N2        1.0  0.1393322157149299  0.2289484243205138  0.39014326828080204  1.0000
  N   N3        1.0  0.16102897357399834  0.7507079343188819  0.8901307031506888  1.0000
  N   N4        1.0  0.860666313557651  0.7710504512838269  0.6098571556962111  1.0000
  N   N5        1.0  0.8306930917746271  0.40950114702887674  0.16042154755557186  1.0000
  N   N6        1.0  0.24902836238464227  0.1702563800835364  0.33953655158833834  1.0000
  N   N7        1.0  0.1693054333314805  0.5904977274056833  0.8395778895363859  1.0000
  N   N8        1.0  0.7509707923253403  0.8297438588028997  0.6604623590445584  1.0000
  N   N9        1.0  0.7654414293138602  0.3144614874012747  0.9107804190564932  1.0000
  N   N10       1.0  0.4036331944249483  0.3546300709325152  0.5891680041729612  1.0000
  N   N11       1.0  0.23455772956259582  0.6855387526549491  0.08921947846145876  1.0000
  N   N12       1.0  0.5963678072835706  0.6453715419073092  0.410832630532667  1.0000
  N   N13       1.0  0.7968207587021399  0.8707137743098204  0.12614363163117312  1.0000
  N   N14       1.0  0.7446687434168027  0.17088938293477443  0.3738889990905108  1.0000
  N   N15       1.0  0.2031814520680939  0.1292878456919553  0.873857279836116  1.0000
  N   N16       1.0  0.25532914791894273  0.8291081258781219  0.626109977575453  1.0000
  N   N17       1.0  0.6737695443826868  0.7821749741360691  0.9772667373413454  1.0000
  N   N18       1.0  0.8049489456883592  0.19667415615128184  0.5227569171009775  1.0000
  N   N19       1.0  0.3262338754492546  0.21782665302765744  0.022734450887625674  1.0000
  N   N20       1.0  0.1950532609153939  0.8033274626807057  0.4772430074812631  1.0000
  N   N21       1.0  0.7684496029055836  0.5970145451452994  0.04216946641133751  1.0000
  N   N22       1.0  0.5548640404212648  0.22641252762925032  0.45777083276711744  1.0000
  N   N23       1.0  0.23155076503258704  0.40298570207286843  0.9578307078682896  1.0000
  N   N24       1.0  0.445135748059073  0.7735890768788422  0.5422285382917734  1.0000
