data_image0
_chemical_formula_structural       Cd2H42C66N6O12
_chemical_formula_sum              "Cd2 H42 C66 N6 O12"
_cell_length_a       10.01186562330859
_cell_length_b       10.37909730086323
_cell_length_c       14.086264497824805
_cell_angle_alpha    99.57049621329519
_cell_angle_beta     93.93253705544036
_cell_angle_gamma    102.46074540726313

_space_group_name_H-M_alt    "P 1"
_space_group_IT_number       1

loop_
  _space_group_symop_operation_xyz
  'x, y, z'

loop_
  _atom_site_type_symbol
  _atom_site_label
  _atom_site_symmetry_multiplicity
  _atom_site_fract_x
  _atom_site_fract_y
  _atom_site_fract_z
  _atom_site_occupancy
  Cd  Cd1       1.0  0.07591994866352555  0.873069530505575  0.9214665511674768  1.0000
  Cd  Cd2       1.0  0.9240833772968458  0.12692749481830387  0.07853300890273118  1.0000
  H   H1        1.0  0.34319264253662857  0.7450710042132301  0.8661380401872946  1.0000
  H   H2        1.0  0.6568052159256866  0.25492406077687957  0.1338652851765545  1.0000
  H   H3        1.0  0.3928286189026409  0.5244032993969725  0.7943881054507428  1.0000
  H   H4        1.0  0.6071677094429759  0.4755938269622463  0.20560901954513608  1.0000
  H   H5        1.0  0.2044351210474176  0.31471886167789626  0.7749935631000894  1.0000
  H   H6        1.0  0.7955632111430474  0.6852782324104398  0.2250050687499439  1.0000
  H   H7        1.0  0.9640974105399707  0.207763648731536  0.7982246061866362  1.0000
  H   H8        1.0  0.0358997195076328  0.7922283860130792  0.2017825656683314  1.0000
  H   H9        1.0  0.7342601119249109  0.2325565299069368  0.8443826327058018  1.0000
  H   H10       1.0  0.2657335386272734  0.7674335241457797  0.15562697238175358  1.0000
  H   H11       1.0  0.5805972980798373  0.3797579285261605  0.9031198028537659  1.0000
  H   H12       1.0  0.41940031161967545  0.6202441976129763  0.09688297671319653  1.0000
  H   H13       1.0  0.5511096514668523  0.6134310299057335  0.9651591440766366  1.0000
  H   H14       1.0  0.4488846938182789  0.38657014647066035  0.034839818457591314  1.0000
  H   H15       1.0  0.7533595322063461  0.8065466931489669  0.982671405410194  1.0000
  H   H16       1.0  0.24664007243530514  0.1934513740384247  0.017331665804817903  1.0000
  H   H17       1.0  0.3942298757595992  0.24251772019487572  0.7996800369694765  1.0000
  H   H18       1.0  0.6057699489052482  0.7574854075807239  0.20031728945751584  1.0000
  H   H19       1.0  0.5106741568061395  0.34289400527467256  0.6702196001287959  1.0000
  H   H20       1.0  0.48932666483896986  0.6571050767064365  0.32977797424797467  1.0000
  H   H21       1.0  0.3121364556911602  0.9849927958652813  0.4639650585065951  1.0000
  H   H22       1.0  0.6878696074709154  0.015011257092254501  0.5360326674039513  1.0000
  H   H23       1.0  0.1857490264214406  0.8946817293495714  0.5898725029509038  1.0000
  H   H24       1.0  0.8142542737782749  0.1053233820961239  0.410121680514699  1.0000
  H   H25       1.0  0.6956250320738137  0.24068550633951707  0.6118275507453745  1.0000
  H   H26       1.0  0.30437702637753017  0.759314575544359  0.38816807543715726  1.0000
  H   H27       1.0  0.9029115314729808  0.426662270500735  0.6529522098337708  1.0000
  H   H28       1.0  0.09708731107219395  0.5733408585193588  0.3470479118101579  1.0000
  H   H29       1.0  0.761593958813336  0.6152223572219954  0.42847568963943417  1.0000
  H   H30       1.0  0.2384073969498033  0.3847827418217307  0.5715276329040364  1.0000
  H   H31       1.0  0.5484021179270046  0.4317020932926071  0.3895666046108488  1.0000
  H   H32       1.0  0.45160421082168517  0.5682989192403767  0.6104343017602929  1.0000
  H   H33       1.0  0.6073613919966049  0.169427563439406  0.3232676949640876  1.0000
  H   H34       1.0  0.3926431598699339  0.8305745033590526  0.6767275834739904  1.0000
  H   H35       1.0  0.48954028861159327  0.06081915687744303  0.1581742565176185  1.0000
  H   H36       1.0  0.5104612733298809  0.9391829464145828  0.8418216005544251  1.0000
  H   H37       1.0  0.09804976620190331  0.08466885649324504  0.2596283718727577  1.0000
  H   H38       1.0  0.9019528263674631  0.9153372424532479  0.7403730024764811  1.0000
  H   H39       1.0  0.21253958591588432  0.18309373495573314  0.42427328118463237  1.0000
  H   H40       1.0  0.7874667596566097  0.8169112983017328  0.5757302598502179  1.0000
  H   H41       1.0  0.0881738541113606  0.7482088378667058  0.6862153377051925  1.0000
  H   H42       1.0  0.9118297176328696  0.2517851619235786  0.3137838541816009  1.0000
  C   C1        1.0  0.2637433085626242  0.652035377088666  0.8552911784295887  1.0000
  C   C2        1.0  0.7362545528786412  0.3479556522860108  0.14471306091455458  1.0000
  C   C3        1.0  0.2909880371587406  0.5279745360769326  0.8158441855786692  1.0000
  C   C4        1.0  0.7090040664529483  0.47201355862041794  0.18415658447720773  1.0000
  C   C5        1.0  0.18741447453837887  0.41281244417806573  0.8050292537290459  1.0000
  C   C6        1.0  0.8125815921811822  0.5871877196275153  0.19496540053503256  1.0000
  C   C7        1.0  0.05659193425609032  0.4218958903247056  0.8328827773925623  1.0000
  C   C8        1.0  0.9434066555998798  0.5780981692954654  0.1671176154604623  1.0000
  C   C9        1.0  0.9451872386584482  0.30651098212744904  0.8242964589412408  1.0000
  C   C10       1.0  0.054797425260595514  0.6934912942086344  0.1757107206497466  1.0000
  C   C11       1.0  0.8189298327561545  0.32010432483866685  0.8494094863988976  1.0000
  C   C12       1.0  0.18107126337827856  0.6798957433987526  0.1505924836445729  1.0000
  C   C13       1.0  0.7950411524471621  0.4497243469955593  0.8847940575965721  1.0000
  C   C14       1.0  0.20495197485289662  0.5502717819498815  0.11521060602739651  1.0000
  C   C15       1.0  0.6655510273952815  0.46781226602541914  0.9105395504302578  1.0000
  C   C16       1.0  0.33444710257739274  0.532187820836427  0.0894672566199972  1.0000
  C   C17       1.0  0.6493221240116683  0.5955523154994256  0.9445364031701686  1.0000
  C   C18       1.0  0.3506772051590659  0.40444073279442  0.05546247662962861  1.0000
  C   C19       1.0  0.7623421583356561  0.7056010125348778  0.9527079692703636  1.0000
  C   C20       1.0  0.2376591766431204  0.2944000687625632  0.04729200888059639  1.0000
  C   C21       1.0  0.03751378818780188  0.5521277940517708  0.8694614235259978  1.0000
  C   C22       1.0  0.9624823290373288  0.44786829840009557  0.1305426614639913  1.0000
  C   C23       1.0  0.9033947875256559  0.5667705756802661  0.8948903567895599  1.0000
  C   C24       1.0  0.096601830169881  0.43322349238526675  0.10511420703971912  1.0000
  C   C25       1.0  0.21116060861279348  0.009570711621044803  0.7837955310146753  1.0000
  C   C26       1.0  0.7888399741879653  0.9904273573000496  0.21620403525459858  1.0000
  C   C27       1.0  0.2819109622965144  0.0631231287345315  0.7044338775388255  1.0000
  C   C28       1.0  0.7180881141508665  0.9368769836865315  0.2955637467352901  1.0000
  C   C29       1.0  0.37566441693309127  0.1883896521849522  0.725019496577815  1.0000
  C   C30       1.0  0.6243359042416117  0.8116114541824971  0.2749775989596728  1.0000
  C   C31       1.0  0.44153243562188044  0.24369795010436238  0.6527361999544254  1.0000
  C   C32       1.0  0.5584708913200913  0.7563031078567664  0.3472631558642831  1.0000
  C   C33       1.0  0.419150221655336  0.17155717873188084  0.556770445322158  1.0000
  C   C34       1.0  0.5808538574646536  0.8284468916055946  0.44322932237823653  1.0000
  C   C35       1.0  0.3295722819044542  0.0432780901418681  0.5371454924022458  1.0000
  C   C36       1.0  0.6704327991379557  0.9567259640601549  0.4628550287252295  1.0000
  C   C37       1.0  0.25968766487927303  0.991352073075696  0.6090426498096804  1.0000
  C   C38       1.0  0.7403158850648452  0.0086500098582079  0.390951875201317  1.0000
  C   C39       1.0  0.6060699041123028  0.3256480623020863  0.4996530915987947  1.0000
  C   C40       1.0  0.393927439018995  0.6743530716243599  0.5003467117590645  1.0000
  C   C41       1.0  0.7087271432201875  0.3235003613978833  0.5723417113684376  1.0000
  C   C42       1.0  0.2912766891343495  0.6765027018359432  0.4276586287668635  1.0000
  C   C43       1.0  0.825049053570453  0.42782594758729436  0.5955121981494501  1.0000
  C   C44       1.0  0.1749530177441372  0.5721781579992467  0.4044853529679955  1.0000
  C   C45       1.0  0.8440430476682793  0.5348171719947954  0.5448685504389701  1.0000
  C   C46       1.0  0.1559553102487002  0.46518796949887103  0.4551339312808764  1.0000
  C   C47       1.0  0.7457023724468285  0.5325575138767676  0.4682447497633007  1.0000
  C   C48       1.0  0.25429622729344464  0.46744460506149477  0.5317566540443295  1.0000
  C   C49       1.0  0.6274273996707079  0.4301745440106402  0.44627338231838104  1.0000
  C   C50       1.0  0.37257542680085004  0.5698285383368289  0.5537254946610446  1.0000
  C   C51       1.0  0.9594677432641633  0.6545168383758553  0.5745858527747173  1.0000
  C   C52       1.0  0.040524360313369825  0.34548738984864263  0.4254133905463746  1.0000
  C   C53       1.0  0.41744240902253443  0.18060111449050711  0.38480029193292614  1.0000
  C   C54       1.0  0.5825638999234003  0.8193999129334275  0.6151970657942059  1.0000
  C   C55       1.0  0.49605499572302136  0.15095096068122876  0.3087968226796178  1.0000
  C   C56       1.0  0.503950060574482  0.8490490787526994  0.691199644326545  1.0000
  C   C57       1.0  0.43073446393118087  0.09153118166554461  0.2168182322647283  1.0000
  C   C58       1.0  0.5692666005188373  0.9084689103973886  0.7831780599483338  1.0000
  C   C59       1.0  0.286874235878571  0.0647795044537034  0.1983794557853074  1.0000
  C   C60       1.0  0.7131280861620227  0.9352256052582887  0.8016182326260263  1.0000
  C   C61       1.0  0.20959859600880287  0.10219577341285205  0.2733820722635016  1.0000
  C   C62       1.0  0.7904057387793415  0.8978133307091128  0.7266183382080982  1.0000
  C   C63       1.0  0.27410589462231627  0.1591090879583561  0.3658940027287372  1.0000
  C   C64       1.0  0.7259001883425141  0.8408949501082291  0.6341072718258118  1.0000
  C   C65       1.0  0.21833157787970245  0.9933901065088266  0.10125715680114672  1.0000
  C   C66       1.0  0.7816705082954911  0.0066099545277183  0.8987434374829986  1.0000
  N   N1        1.0  0.14084894641462853  0.663327403692918  0.8808378351726134  1.0000
  N   N2        1.0  0.8591439143172225  0.3366677330398319  0.1191638522422522  1.0000
  N   N3        1.0  0.8848653750382809  0.691609061141911  0.9275066147130318  1.0000
  N   N4        1.0  0.11513371528810275  0.30838297409191995  0.07249425697927588  1.0000
  N   N5        1.0  0.4817854604563792  0.2263332332903403  0.4812485360404536  1.0000
  N   N6        1.0  0.5182178546039395  0.7736678336053515  0.5187486905918561  1.0000
  O   O1        1.0  0.22312229230633562  0.08202162226165652  0.8664990718463769  1.0000
  O   O2        1.0  0.7768780447105713  0.9179794721930322  0.1335008626063043  1.0000
  O   O3        1.0  0.13789914378647694  0.8867198735924403  0.765948868820992  1.0000
  O   O4        1.0  0.8621026708783573  0.11327516557236812  0.2340482437767477  1.0000
  O   O5        1.0  0.9819172977299502  0.7481693233327464  0.5297907934833432  1.0000
  O   O6        1.0  0.018078558850717706  0.2518338392027246  0.4702106165233602  1.0000
  O   O7        1.0  0.03287921327899572  0.654195406764117  0.6581290039145743  1.0000
  O   O8        1.0  0.9671173776742849  0.34580271478598235  0.3418703875615989  1.0000
  O   O9        1.0  0.08881112521576286  0.9889783953006417  0.08093172597143913  1.0000
  O   O10       1.0  0.9111877282294715  0.011020692147646097  0.9190707291103876  1.0000
  O   O11       1.0  0.2846338332888436  0.9358190992163101  0.04099392604302212  1.0000
  O   O12       1.0  0.7153632393136888  0.0641810454756424  0.959002191376932  1.0000
