data_image0
_chemical_formula_structural       Zn2H10C38I2N16O32
_chemical_formula_sum              "Zn2 H10 C38 I2 N16 O32"
_cell_length_a       14.574305651336305
_cell_length_b       15.081670231037052
_cell_length_c       16.86085407202365
_cell_angle_alpha    90.33159754089543
_cell_angle_beta     92.80139036105882
_cell_angle_gamma    89.21647828366092

_space_group_name_H-M_alt    "P 1"
_space_group_IT_number       1

loop_
  _space_group_symop_operation_xyz
  'x, y, z'

loop_
  _atom_site_type_symbol
  _atom_site_label
  _atom_site_symmetry_multiplicity
  _atom_site_fract_x
  _atom_site_fract_y
  _atom_site_fract_z
  _atom_site_occupancy
  Zn  Zn1       1.0  0.39910080128192493  0.5113495167646747  0.4995727411459754  1.0000
  Zn  Zn2       1.0  0.6061813317259207  0.5114121018197793  0.5030499009204306  1.0000
  H   H1        1.0  0.3882831440201144  0.396201916286138  0.101849053869536  1.0000
  H   H2        1.0  0.6269201034667659  0.4843004196279851  0.9105567946634707  1.0000
  H   H3        1.0  0.359791209479816  0.421971660155755  0.24659121906191925  1.0000
  H   H4        1.0  0.6370750360671026  0.5033706845019454  0.7635870515616219  1.0000
  H   H5        1.0  0.44257838710717584  0.2520580401505512  0.3557821050593262  1.0000
  H   H6        1.0  0.6622890104105251  0.7808974656542277  0.47142317794217803  1.0000
  H   H7        1.0  0.5990728959895931  0.051978906127644116  0.5530640821660526  1.0000
  H   H8        1.0  0.3718830546165748  0.9539416443078752  0.4342993763111735  1.0000
  H   H9        1.0  0.9409475960627701  0.5150188848935288  0.6384574381413728  1.0000
  H   H10       1.0  0.0757668312735831  0.3556784337165908  0.4617458287738927  1.0000
  C   C1        1.0  0.523413343437447  0.34390636308032907  0.47857223572905383  1.0000
  C   C2        1.0  0.5167069806588884  0.6790164297085609  0.4912968249874083  1.0000
  C   C3        1.0  0.4564228190303723  0.5257651880264476  0.35013580417098916  1.0000
  C   C4        1.0  0.5053727595559677  0.4756128025078326  0.6495055372262113  1.0000
  C   C5        1.0  0.46228585618887763  0.5222175932412654  0.2614315159637428  1.0000
  C   C6        1.0  0.504276615565523  0.44877353021865934  0.735005209663143  1.0000
  C   C7        1.0  0.528550495370979  0.571554062659651  0.2239338197306964  1.0000
  C   C8        1.0  0.4282132028215955  0.40716196865110993  0.7656868479216428  1.0000
  C   C9        1.0  0.5475240253231277  0.5542883321535612  0.14551720330578627  1.0000
  C   C10       1.0  0.4224831841454062  0.3963360628795911  0.8472294583151267  1.0000
  C   C11       1.0  0.49761728747280637  0.49009668412354307  0.1012645781090953  1.0000
  C   C12       1.0  0.4923466898988167  0.42800127127295434  0.8999617427031481  1.0000
  C   C13       1.0  0.428590063840133  0.44337072310187875  0.1376667077815981  1.0000
  C   C14       1.0  0.5714545701349111  0.4635965218059469  0.869163528145023  1.0000
  C   C15       1.0  0.41194809285232026  0.45902663490858947  0.21710062258785  1.0000
  C   C16       1.0  0.5769556622177633  0.47337337065560087  0.7877810016561995  1.0000
  C   C17       1.0  0.48041440772026084  0.1180529902997449  0.3853414597884921  1.0000
  C   C18       1.0  0.6005533715972576  0.9078714665219109  0.444677638077458  1.0000
  C   C19       1.0  0.47863746989150247  0.20926223487654744  0.3990890103459605  1.0000
  C   C20       1.0  0.5983739733278953  0.8182995918146503  0.4624217143669114  1.0000
  C   C21       1.0  0.5226637330640499  0.24498813504449404  0.4670118933484487  1.0000
  C   C22       1.0  0.5149051534320748  0.7750730763551846  0.4683317712733696  1.0000
  C   C23       1.0  0.5665790309388257  0.18587582164629174  0.5205628452685858  1.0000
  C   C24       1.0  0.4345953683569234  0.8258229855398869  0.45330944977857257  1.0000
  C   C25       1.0  0.565990371794058  0.09496308566065893  0.508228428762223  1.0000
  C   C26       1.0  0.43646051838008054  0.9167257600119356  0.4401736682658424  1.0000
  C   C27       1.0  0.5229270675103377  0.05847591239802341  0.43972351555904504  1.0000
  C   C28       1.0  0.5201688678153572  0.9602672248388942  0.43636843269816683  1.0000
  C   C29       1.0  0.9027161507088834  0.4707274426752976  0.44251322896020884  1.0000
  C   C30       1.0  0.1066506884938434  0.5553055553190447  0.552130853949201  1.0000
  C   C31       1.0  0.8061600700053546  0.4759408643453682  0.43985165418246897  1.0000
  C   C32       1.0  0.2029986772628476  0.5540106733290244  0.5579924870741095  1.0000
  C   C33       1.0  0.8122256449749655  0.5161863063342906  0.5711325885543914  1.0000
  C   C34       1.0  0.202954210060355  0.42333865229673506  0.48762079359274674  1.0000
  C   C35       1.0  0.9065740849165208  0.5057076097745963  0.5803538693630371  1.0000
  C   C36       1.0  0.10831786006884411  0.414829779351571  0.48654954816448276  1.0000
  C   C37       1.0  0.9552548556782909  0.4863807032919  0.5126741118351745  1.0000
  C   C38       1.0  0.0571185440322068  0.48540235876629373  0.5165742712295796  1.0000
  I   I1        1.0  0.734258455059134  0.4440106614862672  0.3344589791928811  1.0000
  I   I2        1.0  0.27150054677955643  0.6480188101503614  0.6279415664839049  1.0000
  N   N1        1.0  0.5132876120221681  0.4873128134934959  0.019678835645457585  1.0000
  N   N2        1.0  0.48022708424050353  0.42143879991475325  0.9822606292159007  1.0000
  N   N3        1.0  0.761193061126093  0.5027546567442229  0.5040996718542274  1.0000
  N   N4        1.0  0.2508332106817476  0.4903484087567094  0.5201595681211585  1.0000
  N   N5        1.0  0.3505592176604182  0.3765227626290369  0.7126030662023197  1.0000
  N   N6        1.0  0.5767424662829228  0.6439933396039949  0.2671986294876588  1.0000
  N   N7        1.0  0.76611877406949  0.550720638147702  0.6421189464950031  1.0000
  N   N8        1.0  0.2535971081704034  0.3494303912137937  0.4490177593428086  1.0000
  N   N9        1.0  0.3409916044617133  0.3553984770163154  0.8795144763598016  1.0000
  N   N10       1.0  0.6191209162726068  0.6032678119955861  0.10554265548719138  1.0000
  N   N11       1.0  0.4384685485028541  0.08639018220363683  0.3086127281837036  1.0000
  N   N12       1.0  0.6913995462417617  0.9468164816701619  0.432937168151355  1.0000
  N   N13       1.0  0.6120276868132706  0.21795714241416422  0.5953832720268011  1.0000
  N   N14       1.0  0.3417267786406127  0.7871765548247467  0.4496359383751809  1.0000
  N   N15       1.0  0.9506671506874297  0.45105733827760036  0.3688452880587718  1.0000
  N   N16       1.0  0.05528298988061659  0.6338475011246204  0.5804800757852178  1.0000
  O   O1        1.0  0.4457219856161173  0.3816582390028032  0.4791535155497114  1.0000
  O   O2        1.0  0.5961954528141787  0.6424597874380992  0.4973888419806157  1.0000
  O   O3        1.0  0.6021931633535119  0.3796527612854916  0.48354455546190417  1.0000
  O   O4        1.0  0.44083843242533755  0.6428393769985875  0.5040472822635493  1.0000
  O   O5        1.0  0.37814174978025505  0.52429696321569  0.3799058414762086  1.0000
  O   O6        1.0  0.5825088299386818  0.488296237840558  0.6202255567592304  1.0000
  O   O7        1.0  0.5339445335179674  0.5241201365305628  0.3875193631047367  1.0000
  O   O8        1.0  0.42656988721429906  0.48692521800515465  0.6150419557321171  1.0000
  O   O9        1.0  0.36601074533008676  0.3137768611195213  0.6681877241264473  1.0000
  O   O10       1.0  0.27640088773169674  0.4164776088275204  0.7185227955756446  1.0000
  O   O11       1.0  0.5279219517390529  0.6971696835845336  0.3024819678253934  1.0000
  O   O12       1.0  0.6612187249522917  0.6465681107097296  0.2636588297870404  1.0000
  O   O13       1.0  0.7833938517540702  0.5100243734968757  0.7046096474009431  1.0000
  O   O14       1.0  0.7190614226646231  0.6184643900921927  0.6328505470189326  1.0000
  O   O15       1.0  0.2736050209303115  0.3608836235375962  0.379739042281507  1.0000
  O   O16       1.0  0.2661333043299123  0.2823099683841619  0.48948243990131596  1.0000
  O   O17       1.0  0.3023101747406329  0.39687301436645583  0.9320658726254932  1.0000
  O   O18       1.0  0.3188571142244426  0.2822610085553521  0.8516936971657214  1.0000
  O   O19       1.0  0.6872346018213874  0.559275408645199  0.08779738748374649  1.0000
  O   O20       1.0  0.604111582284375  0.6826160087767051  0.0927452016726349  1.0000
  O   O21       1.0  0.45935798887453666  0.0105629364420281  0.2866821808443945  1.0000
  O   O22       1.0  0.3863864784764956  0.13838664093966463  0.2710835107594747  1.0000
  O   O23       1.0  0.693221207528211  0.013040486059104201  0.3897541165310585  1.0000
  O   O24       1.0  0.7593569935049871  0.9099029822844785  0.4657106130592013  1.0000
  O   O25       1.0  0.5766647589483681  0.28273252606702204  0.6279543449208589  1.0000
  O   O26       1.0  0.6811859849558742  0.17647301955577896  0.6206586982135676  1.0000
  O   O27       1.0  0.32099759286069224  0.7393807062714757  0.3922661318876592  1.0000
  O   O28       1.0  0.29050307046227186  0.8104464829248242  0.5027391107155381  1.0000
  O   O29       1.0  0.9769397485741677  0.5154026608832823  0.3320653779021825  1.0000
  O   O30       1.0  0.9616843062902731  0.37177998768800086  0.3523106762993748  1.0000
  O   O31       1.0  0.025795954836574708  0.6852572291575642  0.5284475306240424  1.0000
  O   O32       1.0  0.04503874958369639  0.6399473463662203  0.6526124460029266  1.0000
