data_image0
_chemical_formula_structural       Co4H56C40O16
_chemical_formula_sum              "Co4 H56 C40 O16"
_cell_length_a       6.782293959032592
_cell_length_b       12.410131091563883
_cell_length_c       12.59321393274281
_cell_angle_alpha    90.06310095999785
_cell_angle_beta     103.82776186358048
_cell_angle_gamma    89.95112191279476

_space_group_name_H-M_alt    "P 1"
_space_group_IT_number       1

loop_
  _space_group_symop_operation_xyz
  'x, y, z'

loop_
  _atom_site_type_symbol
  _atom_site_label
  _atom_site_symmetry_multiplicity
  _atom_site_fract_x
  _atom_site_fract_y
  _atom_site_fract_z
  _atom_site_occupancy
  Co  Co1       1.0  0.30181488707381726  0.07069210645561698  0.24162799385400996  1.0000
  Co  Co2       1.0  0.6982681843893487  0.5715058502031098  0.759306570150258  1.0000
  Co  Co3       1.0  0.8065405019666585  0.9762784771901921  0.24195260009526  1.0000
  Co  Co4       1.0  0.1933312587195104  0.4772608865137826  0.7576376143558361  1.0000
  H   H1        1.0  0.28839512583469684  0.7489261559988236  0.7834154339633057  1.0000
  H   H2        1.0  0.7104052946224895  0.24929262158180876  0.2161460731532471  1.0000
  H   H3        1.0  0.9327237890204925  0.8971983359864523  0.7625558307915481  1.0000
  H   H4        1.0  0.0675839262335671  0.39632755188154795  0.23609413665117523  1.0000
  H   H5        1.0  0.14385637370482132  0.9089668721309184  0.7047680681911853  1.0000
  H   H6        1.0  0.8587560580867759  0.4084440105330032  0.29569312660976266  1.0000
  H   H7        1.0  0.0871145938712772  0.9994187726440913  0.9178159382665141  1.0000
  H   H8        1.0  0.9114526510630725  0.5001242455499693  0.0828441054547113  1.0000
  H   H9        1.0  0.2572631798929805  0.04407646214325919  0.8413476957667285  1.0000
  H   H10       1.0  0.7414253863520698  0.5436504360819684  0.16002775963583818  1.0000
  H   H11       1.0  0.6123234937655866  0.9904415894981254  0.89783841549481  1.0000
  H   H12       1.0  0.3869425026647733  0.4909714699968077  0.10238031555362428  1.0000
  H   H13       1.0  0.5293066268444375  0.8718880151948909  0.8219586747013137  1.0000
  H   H14       1.0  0.4685268573932787  0.3718166467308635  0.17739871304684124  1.0000
  H   H15       1.0  0.6832336186384822  0.8621418263781564  0.956893105972284  1.0000
  H   H16       1.0  0.31544442905456543  0.36316698607380726  0.04212184952241669  1.0000
  H   H17       1.0  0.5435368212192273  0.6969971859075699  0.9374250279999924  1.0000
  H   H18       1.0  0.45507582629846155  0.1975756557975288  0.06214355487801268  1.0000
  H   H19       1.0  0.3571659346176047  0.6249013424600491  0.9855687930712304  1.0000
  H   H20       1.0  0.6405691386357476  0.12530852508905352  0.013187491072962108  1.0000
  H   H21       1.0  0.5173663825272854  0.7189675123287245  0.0725618172173128  1.0000
  H   H22       1.0  0.48052122122570745  0.21999584184794677  0.9269848166024842  1.0000
  H   H23       1.0  0.18880535829268294  0.7960417725582969  0.10398237771166657  1.0000
  H   H24       1.0  0.8093787240781438  0.29631476476939167  0.8955655503163767  1.0000
  H   H25       1.0  0.039097860794257096  0.7079022153721297  0.007487932897404898  1.0000
  H   H26       1.0  0.959275717641958  0.20786841691518992  0.9915935373931571  1.0000
  H   H27       1.0  0.0008182467294802004  0.8496041529851652  0.9951438550320472  1.0000
  H   H28       1.0  0.9977674721560775  0.349554569633149  0.004409634632885714  1.0000
  H   H29       1.0  0.5176802094687003  0.6163693901328315  0.5156166155843492  1.0000
  H   H30       1.0  0.48333946297267255  0.1176238903698561  0.48453161244076876  1.0000
  H   H31       1.0  0.11848454465817329  0.5164760935419325  0.4024006040105589  1.0000
  H   H32       1.0  0.8815090382885202  0.0166629357709454  0.597732101198666  1.0000
  H   H33       1.0  0.3549383593576536  0.5053792133640513  0.36924177644272754  1.0000
  H   H34       1.0  0.6448180458143112  0.0067592492011102  0.6308291070392967  1.0000
  H   H35       1.0  0.230274241436156  0.6341925564706301  0.22920144975407195  1.0000
  H   H36       1.0  0.7717868591695948  0.13525225377457417  0.7711043481229535  1.0000
  H   H37       1.0  0.021255455221741198  0.6643609875212634  0.2840154606660263  1.0000
  H   H38       1.0  0.9800604481213069  0.16511768205412383  0.7156778907314274  1.0000
  H   H39       1.0  0.5094011507869709  0.7676035822672417  0.2573290877542788  1.0000
  H   H40       1.0  0.49167171163480106  0.2684801255373586  0.7429956782114573  1.0000
  H   H41       1.0  0.5910079110056969  0.6821877038057166  0.3718001878256486  1.0000
  H   H42       1.0  0.4101187070326943  0.18322477586484348  0.6282740787781761  1.0000
  H   H43       1.0  0.6004364928189574  0.8246085038448712  0.3887582761630667  1.0000
  H   H44       1.0  0.40066305594166346  0.32564897846877017  0.6117547426415867  1.0000
  H   H45       1.0  0.38700599201276015  0.9009643177432096  0.5410059734941794  1.0000
  H   H46       1.0  0.6144817932709684  0.40175639290605153  0.4594235978402849  1.0000
  H   H47       1.0  0.5894534823311801  0.8061586819216303  0.5586768736145868  1.0000
  H   H48       1.0  0.4118841529989439  0.3071683621320744  0.4417222426315134  1.0000
  H   H49       1.0  0.42190415497723416  0.8019709581821528  0.6461210807983873  1.0000
  H   H50       1.0  0.5794217338978314  0.3026172394860184  0.35424320782882995  1.0000
  H   H51       1.0  0.0654918671611711  0.7388665127301339  0.5831320735963743  1.0000
  H   H52       1.0  0.935853281887752  0.2397600173715873  0.4171681906968202  1.0000
  H   H53       1.0  0.9604453118495825  0.70343624267214  0.4449826785462888  1.0000
  H   H54       1.0  0.04088388503508609  0.20397257174965233  0.555165058986624  1.0000
  H   H55       1.0  0.0185768537054045  0.8399684396512868  0.4812313776721381  1.0000
  H   H56       1.0  0.9827483643787431  0.3405651921409145  0.5195073958608842  1.0000
  C   C1        1.0  0.36841520426226987  0.9078899141595045  0.9493130207570173  1.0000
  C   C2        1.0  0.6307646545047944  0.4082137820184642  0.05080204359254737  1.0000
  C   C3        1.0  0.2748413957529081  0.7906579407269165  0.94815669881509  1.0000
  C   C4        1.0  0.7239834801985907  0.2908065961604294  0.051499026905055686  1.0000
  C   C5        1.0  0.1708816567585671  0.778792054234188  0.8229552645371921  1.0000
  C   C6        1.0  0.8281451715417631  0.2786508727987567  0.17660316654266234  1.0000
  C   C7        1.0  0.0986991891525975  0.8923155245068415  0.7812171356229527  1.0000
  C   C8        1.0  0.9016562780928651  0.3918944090184269  0.21857425655253584  1.0000
  C   C9        1.0  0.1972807684871185  0.9716981244798006  0.872718416827311  1.0000
  C   C10       1.0  0.8018268856335027  0.47171396394055165  0.12787304509019035  1.0000
  C   C11       1.0  0.4211697899747264  0.950938525586672  0.06656748046951579  1.0000
  C   C12       1.0  0.5789272422840028  0.45150498867396044  0.9336824806199784  1.0000
  C   C13       1.0  0.008217936217384599  0.6942614956576705  0.801165601498084  1.0000
  C   C14       1.0  0.9900872833869981  0.19351773841399483  0.19833897801236583  1.0000
  C   C15       1.0  0.5596721246544476  0.9075115692935967  0.9040866468508567  1.0000
  C   C16       1.0  0.4390272524307334  0.40796508464347886  0.09558569154168585  1.0000
  C   C17       1.0  0.4331703670922593  0.7031829161483077  0.9880245474064465  1.0000
  C   C18       1.0  0.5650559431827062  0.20373143363327975  0.011338845054289878  1.0000
  C   C19       1.0  0.1163032334469136  0.786413846380789  0.016917590080346694  1.0000
  C   C20       1.0  0.8822336234499841  0.28646008586934363  0.9825438490857789  1.0000
  C   C21       1.0  0.2932554312541882  0.7553767085621744  0.3592387846307829  1.0000
  C   C22       1.0  0.7078995513546572  0.2562648319371945  0.6410571630837649  1.0000
  C   C23       1.0  0.28723330165110644  0.7412901044574624  0.48357838108795187  1.0000
  C   C24       1.0  0.7140439037230522  0.24206966339133365  0.5167061426480116  1.0000
  C   C25       1.0  0.3509747666691041  0.619671738639056  0.5004096880368178  1.0000
  C   C26       1.0  0.6500718229990383  0.12053741016581648  0.49971043563292017  1.0000
  C   C27       1.0  0.24972540541191532  0.563039981679097  0.3921158755776374  1.0000
  C   C28       1.0  0.7507714067800109  0.0638448988124836  0.6079522152042571  1.0000
  C   C29       1.0  0.18614977968501728  0.6526501885990967  0.30564796235224617  1.0000
  C   C30       1.0  0.8151604630757773  0.15351307752739982  0.6944513269279111  1.0000
  C   C31       1.0  0.1846934376991811  0.8596522417507231  0.313955765074482  1.0000
  C   C32       1.0  0.8164460089798948  0.3605286628019825  0.686382629111662  1.0000
  C   C33       1.0  0.3006794688750034  0.5722365159478359  0.6002815300639737  1.0000
  C   C34       1.0  0.6998331116626559  0.07288982621945193  0.39963328968417483  1.0000
  C   C35       1.0  0.5116806141007473  0.7580362989150942  0.3442823311359787  1.0000
  C   C36       1.0  0.489486506138384  0.2590056718417912  0.6560236615587483  1.0000
  C   C37       1.0  0.4302479866050461  0.816861700996661  0.5614576017128029  1.0000
  C   C38       1.0  0.571091448842175  0.31767783062805693  0.4388992176598449  1.0000
  C   C39       1.0  0.07032457851777  0.7565831232520281  0.4983384894190265  1.0000
  C   C40       1.0  0.930973350452895  0.2572485713217958  0.5020310920203456  1.0000
  O   O1        1.0  0.2934282947402451  0.0120909679663086  0.09625502066766957  1.0000
  O   O2        1.0  0.7078210768125002  0.5119957774243815  0.9044049354260009  1.0000
  O   O3        1.0  0.5887292991798246  0.9184853816190497  0.12879101101195534  1.0000
  O   O4        1.0  0.4109984721770629  0.4198290750531584  0.871324204531305  1.0000
  O   O5        1.0  0.820276940396539  0.7185866200559377  0.7691832343314927  1.0000
  O   O6        1.0  0.17806386329126409  0.217516471152031  0.23109532165202748  1.0000
  O   O7        1.0  0.050587889052948795  0.5931604219323815  0.816505480817284  1.0000
  O   O8        1.0  0.9465408554616415  0.0927126617180676  0.18231642038050913  1.0000
  O   O9        1.0  0.2885466501532292  0.9470092687686745  0.33495824472566926  1.0000
  O   O10       1.0  0.7128697472271169  0.4479771290035402  0.6653047385340398  1.0000
  O   O11       1.0  0.0004966089836386998  0.8553296959741274  0.2603792745429132  1.0000
  O   O12       1.0  0.0006885053997720999  0.35592139332774053  0.7399474191984226  1.0000
  O   O13       1.0  0.4046003924551869  0.5987560447524629  0.6972587575897717  1.0000
  O   O14       1.0  0.5956039357930719  0.09975754107618684  0.3028944747564849  1.0000
  O   O15       1.0  0.1536616202511354  0.5074188041086745  0.5949799721079285  1.0000
  O   O16       1.0  0.8462834255208236  0.007651706660148202  0.40475315921430155  1.0000
