data_image0
_chemical_formula_structural       Sm2H40C36N4O22
_chemical_formula_sum              "Sm2 H40 C36 N4 O22"
_cell_length_a       10.564981632229564
_cell_length_b       11.039682491200987
_cell_length_c       12.7396
_cell_angle_alpha    103.97587832197644
_cell_angle_beta     109.61231601787975
_cell_angle_gamma    96.81448036650994

_space_group_name_H-M_alt    "P 1"
_space_group_IT_number       1

loop_
  _space_group_symop_operation_xyz
  'x, y, z'

loop_
  _atom_site_type_symbol
  _atom_site_label
  _atom_site_symmetry_multiplicity
  _atom_site_fract_x
  _atom_site_fract_y
  _atom_site_fract_z
  _atom_site_occupancy
  Sm  Sm1       1.0  0.10064145698813583  0.5456936046922323  0.6811585784979852  1.0000
  Sm  Sm2       1.0  0.8993582098149631  0.4543060847105309  0.31884126374982447  1.0000
  H   H1        1.0  0.9266599040609265  0.1401255537339452  0.3011820612248782  1.0000
  H   H2        1.0  0.07333875792483724  0.859874135668825  0.6988175013232406  1.0000
  H   H3        1.0  0.23564367618787682  0.3900477550341677  0.2623655430259006  1.0000
  H   H4        1.0  0.76435699543255  0.6099519343686026  0.7376353638755971  1.0000
  H   H5        1.0  0.1783343633196708  0.8994712173193093  0.9345413998404266  1.0000
  H   H6        1.0  0.8216665332767193  0.10052942865023341  0.06545898492795736  1.0000
  H   H7        1.0  0.006994687233557797  0.1627684458646002  0.6754115269839929  1.0000
  H   H8        1.0  0.993004979569541  0.837231243538163  0.32458831526381704  1.0000
  H   H9        1.0  0.40167334842135466  0.5730437619225981  0.6501383587731269  1.0000
  H   H10       1.0  0.5983277731509915  0.4269578406137242  0.3498615038621437  1.0000
  H   H11       1.0  0.5609200023487588  0.8220581813533556  0.8773312929712913  1.0000
  H   H12       1.0  0.43908066927166806  0.1779415080494076  0.12266882897620225  1.0000
  H   H13       1.0  0.4552678731543409  0.5176040213448162  0.827721691308113  1.0000
  H   H14       1.0  0.5447322436006772  0.4823975811915062  0.17227867658147739  1.0000
  H   H15       1.0  0.6373834474383457  0.4567080238825199  0.9127543162640706  1.0000
  H   H16       1.0  0.36261822899941626  0.5432916655202504  0.08724608538310716  1.0000
  H   H17       1.0  0.6414478261285054  0.2923162842007656  0.8632760486477975  1.0000
  H   H18       1.0  0.3585508358572582  0.7076834052020047  0.13672429885432538  1.0000
  H   H19       1.0  0.6048936290150237  0.3497667281395636  0.9908003373560489  1.0000
  H   H20       1.0  0.3951060377880751  0.6502329612631996  0.009199504891753882  1.0000
  H   H21       1.0  0.2597245730994473  0.19513675239652883  0.7413929389767517  1.0000
  H   H22       1.0  0.740274763814199  0.8048658067065588  0.25860819698804943  1.0000
  H   H23       1.0  0.3675372193273461  0.1741927228582441  0.8757449846585529  1.0000
  H   H24       1.0  0.632462672451716  0.8258079231112987  0.1242551204101474  1.0000
  H   H25       1.0  0.41135489897229854  0.1339327404326909  0.7501101862491166  1.0000
  H   H26       1.0  0.5886442129653915  0.8660688621036243  0.24988911698677893  1.0000
  H   H27       1.0  0.8799635460318813  0.3558897120662436  0.7489036100502274  1.0000
  H   H28       1.0  0.12003612077121772  0.6441099773365266  0.2510962321975825  1.0000
  H   H29       1.0  0.795728506607773  0.1863707744705749  0.7774100643836019  1.0000
  H   H30       1.0  0.20427116019532582  0.8136289149321955  0.22258977786420783  1.0000
  H   H31       1.0  0.8408092657715186  0.20024577554172404  0.9294892818968206  1.0000
  H   H32       1.0  0.1591901760556169  0.7997529572942669  0.07051029753009168  1.0000
  H   H33       1.0  0.9172910541924679  0.10222159527517502  0.8456980328626711  1.0000
  H   H34       1.0  0.08270861261063092  0.8977780941275881  0.15430102443113464  1.0000
  H   H35       1.0  0.19236360724845983  0.39390750197122776  0.9958848140661372  1.0000
  H   H36       1.0  0.807635054737311  0.6060921874315355  0.00411474848198171  1.0000
  H   H37       1.0  0.15020804634527002  0.22741227195128744  0.9845700233003852  1.0000
  H   H38       1.0  0.8497916204578218  0.7725874174514828  0.015429818947424694  1.0000
  H   H39       1.0  0.0885723932219165  0.3418463552426942  0.06959990191280946  1.0000
  H   H40       1.0  0.9114270486052192  0.6581523775932965  0.9303996775141099  1.0000
  C   C1        1.0  0.9705927889627406  0.028161325855549504  0.39246447029484693  1.0000
  C   C2        1.0  0.02940687784035841  0.9718383635472208  0.6075353719529558  1.0000
  C   C3        1.0  0.9739160372730353  0.12021461631263722  0.49347393448826427  1.0000
  C   C4        1.0  0.026086868958010743  0.8797860296569057  0.5065262247254835  1.0000
  C   C5        1.0  0.003189819495460699  0.0904606067767446  0.5986624811591807  1.0000
  C   C6        1.0  0.9968108521249734  0.9095390826260258  0.4013376407883128  1.0000
  C   C7        1.0  0.9516425114760237  0.2498600244598492  0.49122022925202885  1.0000
  C   C8        1.0  0.04835816014440303  0.7501396649429211  0.5087806776494688  1.0000
  C   C9        1.0  0.41291498813149724  0.4435906236971547  0.3809566651941835  1.0000
  C   C10       1.0  0.5870859084648928  0.556410022272388  0.6190437195742005  1.0000
  C   C11       1.0  0.35693847162837505  0.48258793797973  0.4676856912970776  1.0000
  C   C12       1.0  0.6430624249680149  0.5174127079898128  0.5323139085173024  1.0000
  C   C13       1.0  0.444733720823777  0.5393133043030859  0.5848048001524759  1.0000
  C   C14       1.0  0.555266170955278  0.46068734166645703  0.4151953049162244  1.0000
  C   C15       1.0  0.2063210878431079  0.4635790430272309  0.4351698895126929  1.0000
  C   C16       1.0  0.793678803935947  0.5364216029423119  0.5648302155560002  1.0000
  C   C17       1.0  0.3633265259095708  0.9904177600177492  0.9962999961563453  1.0000
  C   C18       1.0  0.636674145710856  0.0095819293850212  0.00370012579114832  1.0000
  C   C19       1.0  0.39993670505729284  0.8894052651461521  0.9274056512213275  1.0000
  C   C20       1.0  0.6000629617458061  0.1105944242566181  0.07259419102648214  1.0000
  C   C21       1.0  0.535113128443534  0.9003311708500235  0.9313571710805205  1.0000
  C   C22       1.0  0.4648865383595648  0.0996685185527468  0.06864345612129334  1.0000
  C   C23       1.0  0.2967293630008143  0.7700037305922508  0.852658894500422  1.0000
  C   C24       1.0  0.7032713086196125  0.2299959588105196  0.14734122744707165  1.0000
  C   C25       1.0  0.3847227804865554  0.42300626326625956  0.7967611429948888  1.0000
  C   C26       1.0  0.6152783410857979  0.5769953392700558  0.2032395045943858  1.0000
  C   C27       1.0  0.5898559821756494  0.35909516732921537  0.9037305381722333  1.0000
  C   C28       1.0  0.4101436846274424  0.640904522073555  0.09626930407556956  1.0000
  C   C29       1.0  0.3658062407915281  0.20096033092264073  0.797675835445389  1.0000
  C   C30       1.0  0.6341936509875339  0.7990403150469021  0.20232505457731512  1.0000
  C   C31       1.0  0.97869356505268  0.3812789074078822  0.8243799028542467  1.0000
  C   C32       1.0  0.02130632672637489  0.6187217385616606  0.17561941726044944  1.0000
  C   C33       1.0  0.8794778952447758  0.1911210850751459  0.8585896735268148  1.0000
  C   C34       1.0  0.12052177155832314  0.8088786043276244  0.14140938376699097  1.0000
  C   C35       1.0  0.11330337249163591  0.316893354350448  0.9909153289916617  1.0000
  C   C36       1.0  0.886696294311463  0.6831063350523223  0.009084513256148313  1.0000
  N   N1        1.0  0.4442888945640036  0.3312514216429676  0.830982978823087  1.0000
  N   N2        1.0  0.5557109972150513  0.6687492243265751  0.1690179111996101  1.0000
  N   N3        1.0  0.9905490577504779  0.3003122258728652  0.8880966461557447  1.0000
  N   N4        1.0  0.009450609052621028  0.6996874635299052  0.11190398104606197  1.0000
  O   O1        1.0  0.9690859629557095  0.3325590484243719  0.586222607873708  1.0000
  O   O2        1.0  0.030912474054098003  0.6674396844116259  0.4137766918535276  1.0000
  O   O3        1.0  0.9169819292107422  0.2715147831119538  0.39146701563926456  1.0000
  O   O4        1.0  0.08301773759235691  0.7284849062908165  0.6085328266085454  1.0000
  O   O5        1.0  0.9429813330838713  0.0508300452891319  0.2878548183031882  1.0000
  O   O6        1.0  0.057018333719227585  0.9491696441136384  0.7121450239446145  1.0000
  O   O7        1.0  0.1537788622680267  0.4858536569495229  0.5123595288424241  1.0000
  O   O8        1.0  0.8462220343283634  0.5141469890200199  0.48764164087996403  1.0000
  O   O9        1.0  0.12820402745212084  0.4246257308163095  0.3253975569693139  1.0000
  O   O10       1.0  0.8717956393509781  0.5753739585864608  0.674602285278496  1.0000
  O   O11       1.0  0.3322764528623523  0.39026776539241587  0.2657505568247771  1.0000
  O   O12       1.0  0.6677244437340379  0.6097328805771269  0.7342506128976112  1.0000
  O   O13       1.0  0.1727817814634989  0.7569886830518087  0.8509130442408194  1.0000
  O   O14       1.0  0.8272176603636368  0.2430100497841892  0.14908653518610035  1.0000
  O   O15       1.0  0.3305047937694567  0.679560342017453  0.7911829264122971  1.0000
  O   O16       1.0  0.6694948730336421  0.3204393473853102  0.20881613088150885  1.0000
  O   O17       1.0  0.23307601273972273  0.9843550397978973  0.9931989374781549  1.0000
  O   O18       1.0  0.7669246588807042  0.015644649604873  0.006801184469338761  1.0000
  O   O19       1.0  0.2597957888286615  0.40583971592239004  0.7352157683330772  1.0000
  O   O20       1.0  0.7402051077677285  0.5941609300471526  0.26478461643530676  1.0000
  O   O21       1.0  0.0694978654052747  0.47770657772698405  0.8442579011338366  1.0000
  O   O22       1.0  0.930500796580489  0.5222931116757863  0.15574166141428944  1.0000
