data_image0
_chemical_formula_structural       Cd3P2H48C42Se2N6Cl6
_chemical_formula_sum              "Cd3 P2 H48 C42 Se2 N6 Cl6"
_cell_length_a       9.11043184920137
_cell_length_b       11.188551823253226
_cell_length_c       13.3476
_cell_angle_alpha    76.27598391525707
_cell_angle_beta     69.75441651234956
_cell_angle_gamma    86.064117537566

_space_group_name_H-M_alt    "P 1"
_space_group_IT_number       1

loop_
  _space_group_symop_operation_xyz
  'x, y, z'

loop_
  _atom_site_type_symbol
  _atom_site_label
  _atom_site_symmetry_multiplicity
  _atom_site_fract_x
  _atom_site_fract_y
  _atom_site_fract_z
  _atom_site_occupancy
  Cd  Cd1       1.0  0.2987829718974808  0.12037801689964309  0.710071957754991  1.0000
  Cd  Cd2       1.0  0.7012173627755303  0.8796227971467373  0.2899278762281554  1.0000
  Cd  Cd3       1.0  0.0  0.0  0.9999992508016433  1.0000
  P   P1        1.0  0.7028869948002311  0.9851865869654899  0.676339245160321  1.0000
  P   P2        1.0  0.29711215267385427  0.014813306942556897  0.3236610522191016  1.0000
  H   H1        1.0  0.3696596345947967  0.37818145350188803  0.7378463394003986  1.0000
  H   H2        1.0  0.6303418527252305  0.6218184404061589  0.26215340532250764  1.0000
  H   H3        1.0  0.5530949160451257  0.5615401785385217  0.6585006552387114  1.0000
  H   H4        1.0  0.4469065712749085  0.43845971536952527  0.3414998386825516  1.0000
  H   H5        1.0  0.7896450210703564  0.5567352161896791  0.49398437990555527  1.0000
  H   H6        1.0  0.2103564835256293  0.4432655978567013  0.5060159269476827  1.0000
  H   H7        1.0  0.8385547349793612  0.3664312870532598  0.4182513075697685  1.0000
  H   H8        1.0  0.16144792226364052  0.6335686068547943  0.5817496592216002  1.0000
  H   H9        1.0  0.7074378079437977  0.18553301190571148  0.4036564458310679  1.0000
  H   H10       1.0  0.2925660537740953  0.8144687222789954  0.5963401245042091  1.0000
  H   H11       1.0  0.5470544608961276  0.11083342202324077  0.5135887368939009  1.0000
  H   H12       1.0  0.4529482308987909  0.8891683121614661  0.4864081097696342  1.0000
  H   H13       1.0  0.8818091741788335  0.11737468539703137  0.5215836769022175  1.0000
  H   H14       1.0  0.1181922958652351  0.8826242883726891  0.47841625488870687  1.0000
  H   H15       1.0  0.804514400455453  0.9980694436958968  0.4848554612672515  1.0000
  H   H16       1.0  0.1954859169415997  0.0019304502121571  0.5151445597839128  1.0000
  H   H17       1.0  0.827932488060874  0.8106225440679324  0.6156749934364  1.0000
  H   H18       1.0  0.1720678293361786  0.18937734984012167  0.3843257768131211  1.0000
  H   H19       1.0  0.9459113757633091  0.8862247896501712  0.6665902690696869  1.0000
  H   H20       1.0  0.0540877889867275  0.11377602439620199  0.3334113396384311  1.0000
  H   H21       1.0  0.7864720078685182  0.7922630240092374  0.8581690082578673  1.0000
  H   H22       1.0  0.2135259696825855  0.2077368698988096  0.14183156544981304  1.0000
  H   H23       1.0  0.6478199959322879  0.7348868784281279  0.8137376323387143  1.0000
  H   H24       1.0  0.3521803214647647  0.2651130154799191  0.18626238871244993  1.0000
  H   H25       1.0  0.8791664914615467  0.4086279106372643  0.6675222340420248  1.0000
  H   H26       1.0  0.1208338604874228  0.5913738235474426  0.3324774128731036  1.0000
  H   H27       1.0  0.08332817923746919  0.3386228665042808  0.7513288376019817  1.0000
  H   H28       1.0  0.9166685938387501  0.6613751871271205  0.24867238656999302  1.0000
  H   H29       1.0  0.1486972694118975  0.47008118914976643  0.8598074492434052  1.0000
  H   H30       1.0  0.8513018262343123  0.5299159443433012  0.1401941585384351  1.0000
  H   H31       1.0  0.0040451916910129  0.6697650084018676  0.8756631446195938  1.0000
  H   H32       1.0  0.9959550911541228  0.3302330452295266  0.1243372505676135  1.0000
  H   H33       1.0  0.8663259399570862  0.1056972098763183  0.7210569733842718  1.0000
  H   H34       1.0  0.1336697495759438  0.8943054444467151  0.2789428425775072  1.0000
  H   H35       1.0  0.6824448801403095  0.1750719592546162  0.7285681364708693  1.0000
  H   H36       1.0  0.31754840044294497  0.8249270145151042  0.27143372961786133  1.0000
  H   H37       1.0  0.556036112927373  0.012327093180289196  0.9051110062607891  1.0000
  H   H38       1.0  0.44396303454670527  0.9876728007277648  0.09489004031699014  1.0000
  H   H39       1.0  0.747400740306702  0.9669568064110476  0.9048001611331814  1.0000
  H   H40       1.0  0.25259957709035064  0.03304308749700619  0.09519985991798308  1.0000
  H   H41       1.0  0.9133363466267851  0.2554616845574742  0.03265340860104267  1.0000
  H   H42       1.0  0.0866592565264526  0.7445363690739268  0.9673503394942671  1.0000
  H   H43       1.0  0.7230902607394327  0.426992951525925  0.04170934079186848  1.0000
  H   H44       1.0  0.2769077340876294  0.5730078625204554  0.9582917950461507  1.0000
  H   H45       1.0  0.49547238764898793  0.41322216130899386  0.9765384937801187  1.0000
  H   H46       1.0  0.5045291169470048  0.5867786527373866  0.02345956547805634  1.0000
  H   H47       1.0  0.4767476899205647  0.2307697725254414  0.9043779000885124  1.0000
  H   H48       1.0  0.523253814675421  0.769231041520932  0.09562165756636883  1.0000
  C   C1        1.0  0.4750198559260994  0.3804495944804245  0.6664057020658375  1.0000
  C   C2        1.0  0.5249827840409509  0.6195493792893031  0.33359245500011525  1.0000
  C   C3        1.0  0.5760668712546887  0.48174670287221477  0.6221963442526857  1.0000
  C   C4        1.0  0.4239334461423709  0.5182531910358321  0.37780367679847865  1.0000
  C   C5        1.0  0.7092742600717301  0.4778812017562686  0.5311911321807017  1.0000
  C   C6        1.0  0.29072841444723  0.5221196122901118  0.468809647542642  1.0000
  C   C7        1.0  0.6289831166600449  0.2737843990830413  0.5376790631782314  1.0000
  C   C8        1.0  0.37101838793594066  0.726216414963332  0.4623197452783002  1.0000
  C   C9        1.0  0.7356411749899364  0.3727185922485177  0.48913729566119457  1.0000
  C   C10       1.0  0.26436265217603955  0.6272813016595293  0.5108626456035523  1.0000
  C   C11       1.0  0.6582198719340937  0.1590891564971599  0.4937025003853607  1.0000
  C   C12       1.0  0.3417839897837993  0.8409125776875469  0.5062948191482731  1.0000
  C   C13       1.0  0.7734183187767343  0.06952841247908029  0.5328688166501365  1.0000
  C   C14       1.0  0.22658318581925127  0.9304724015673002  0.4671299918063881  1.0000
  C   C15       1.0  0.8275669017273728  0.8517177620733136  0.6831229310408702  1.0000
  C   C16       1.0  0.1724322630226638  0.1482830519730669  0.3168779284688839  1.0000
  C   C17       1.0  0.7725949101287454  0.7559635669694201  0.7924263739711178  1.0000
  C   C18       1.0  0.22740540726831426  0.24403632693862679  0.20757364708004636  1.0000
  C   C19       1.0  0.8636309812690115  0.6391750096873281  0.7831824213649129  1.0000
  C   C20       1.0  0.13636933612804109  0.36082488422071884  0.2168175996862516  1.0000
  C   C21       1.0  0.9090344227075348  0.4642613142251263  0.7150972861447612  1.0000
  C   C22       1.0  0.0909647247665433  0.5357385796829206  0.28490226203630437  1.0000
  C   C23       1.0  0.0247793202143143  0.4251701574981439  0.7613792009301932  1.0000
  C   C24       1.0  0.9752209626308284  0.5748278961332502  0.23862194345537086  1.0000
  C   C25       1.0  0.0604587674871979  0.4987140536406399  0.8209935957765708  1.0000
  C   C26       1.0  0.9395391755119888  0.5012839999907541  0.17900810126550226  1.0000
  C   C27       1.0  0.9794943427812229  0.6078967475034389  0.8314153034459437  1.0000
  C   C28       1.0  0.0205059400639129  0.39210130612795513  0.16858509174126377  1.0000
  C   C29       1.0  0.7387867143523579  0.08830843575366738  0.752993025504523  1.0000
  C   C30       1.0  0.26120892335280393  0.9116914581543795  0.24700810085967362  1.0000
  C   C31       1.0  0.6781970281983121  0.0439136017040624  0.8783158657701762  1.0000
  C   C32       1.0  0.3217997621538586  0.9560853720656579  0.12168592053213705  1.0000
  C   C33       1.0  0.6861220938831138  0.14872195795552298  0.9291743458336084  1.0000
  C   C34       1.0  0.313877036315013  0.8512770158141973  0.0708268878121886  1.0000
  C   C35       1.0  0.8147029758661972  0.25430415054083966  0.0046967599722194135  1.0000
  C   C36       1.0  0.1852961888838394  0.7456966635055406  0.9953040995375417  1.0000
  C   C37       1.0  0.7077807829401905  0.3493599606537714  0.009943061850172897  1.0000
  C   C38       1.0  0.29222073893175343  0.6506417735309356  0.990055559538341  1.0000
  C   C39       1.0  0.5835760376021427  0.3418893575686964  0.9734061712872019  1.0000
  C   C40       1.0  0.41642314442385236  0.6581123766160103  0.026592253559464055  1.0000
  C   C41       1.0  0.5732681417785771  0.24077351642751668  0.9324768635494535  1.0000
  C   C42       1.0  0.4267310229714596  0.7592272976188565  0.06752324676194378  1.0000
  Se  Se1       1.0  0.463448197803686  0.9173282255517419  0.7336075351806315  1.0000
  Se  Se2       1.0  0.5365509496703922  0.0826716683563049  0.26639201300043414  1.0000
  N   N1        1.0  0.4999507815284544  0.2786878162329884  0.62556255877994  1.0000
  N   N2        1.0  0.5000507230675311  0.7213129978133921  0.37443699887494114  1.0000
  N   N3        1.0  0.8289598233061071  0.5683630042406804  0.7254432424297691  1.0000
  N   N4        1.0  0.17104049409094563  0.43163688966736646  0.27455677862139544  1.0000
  N   N5        1.0  0.8048879771243519  0.15538836014192728  0.9662949627374148  1.0000
  N   N6        1.0  0.1951099831508003  0.8446106136278003  0.03370654723664052  1.0000
  Cl  Cl1       1.0  0.15428900726249142  0.20491940633846178  0.5813210781852406  1.0000
  Cl  Cl2       1.0  0.8457124627815843  0.7950795674312658  0.41867810440732717  1.0000
  Cl  Cl3       1.0  0.0655410128498986  0.9401964234176603  0.8123540423811589  1.0000
  Cl  Cl4       1.0  0.934458151900138  0.059804390628713094  0.1876453187318816  1.0000
  Cl  Cl5       1.0  0.2143946587789003  0.1837792282525328  0.8969257611567372  1.0000
  Cl  Cl6       1.0  0.785605641342201  0.8162197455171876  0.10307444696245233  1.0000
