data_image0
_chemical_formula_structural       Cd2H22C36N4O8
_chemical_formula_sum              "Cd2 H22 C36 N4 O8"
_cell_length_a       5.905788444625968
_cell_length_b       10.552964042381921
_cell_length_c       12.523963172285592
_cell_angle_alpha    106.37410197991416
_cell_angle_beta     93.11273161740836
_cell_angle_gamma    92.02826851316809

_space_group_name_H-M_alt    "P 1"
_space_group_IT_number       1

loop_
  _space_group_symop_operation_xyz
  'x, y, z'

loop_
  _atom_site_type_symbol
  _atom_site_label
  _atom_site_symmetry_multiplicity
  _atom_site_fract_x
  _atom_site_fract_y
  _atom_site_fract_z
  _atom_site_occupancy
  Cd  Cd1       1.0  0.64018217090846  0.5769319114174892  0.3910573164733009  1.0000
  Cd  Cd2       1.0  0.35981455012280605  0.42306889797083613  0.6089431736296478  1.0000
  H   H1        1.0  0.21275426474835507  0.5662983391609089  0.20277680442224275  1.0000
  H   H2        1.0  0.7872451886488461  0.43369869266575733  0.7972124132336591  1.0000
  H   H3        1.0  0.19976744955126688  0.585576899759005  0.00593044049266923  1.0000
  H   H4        1.0  0.800248614056713  0.41443291312126024  0.9940623097351848  1.0000
  H   H5        1.0  0.5293036908196739  0.6984260672210781  0.947896897876156  1.0000
  H   H6        1.0  0.47071973558356456  0.3015875333613637  0.05210413583959911  1.0000
  H   H7        1.0  0.8460875787334032  0.8033899935895834  0.08904261456970632  1.0000
  H   H8        1.0  0.15393184443808386  0.19661553276034033  0.9109659013637953  1.0000
  H   H9        1.0  0.9718848403074527  0.963175764782548  0.2450266707941111  1.0000
  H   H10       1.0  0.028103879413428994  0.0368289967331776  0.7549770433580463  1.0000
  H   H11       1.0  0.28411400111922086  0.0498459118067842  0.39187396661567686  1.0000
  H   H12       1.0  0.7158797171549836  0.9501578209732107  0.6081303891938036  1.0000
  H   H13       1.0  0.3739801221947231  0.9197189324459674  0.5295402892319317  1.0000
  H   H14       1.0  0.6260147137221992  0.08027989246840411  0.4704604649458874  1.0000
  H   H15       1.0  0.12807677720121546  0.7204601413210269  0.5216559512331217  1.0000
  H   H16       1.0  0.8719129373471617  0.2795387384017545  0.47834311646513344  1.0000
  H   H17       1.0  0.5142635125507339  0.10885640899462601  0.23894646996868127  1.0000
  H   H18       1.0  0.4857370403638653  0.8911472457175976  0.7610603995601439  1.0000
  H   H19       1.0  0.362445723987733  0.9479801329761702  0.06546964333958274  1.0000
  H   H20       1.0  0.637553914373427  0.05201352797852371  0.9345402970431423  1.0000
  H   H21       1.0  0.7762884580893256  0.18198999052553694  0.06529588637702942  1.0000
  H   H22       1.0  0.2237176275254882  0.8180039067243997  0.9346998676895526  1.0000
  C   C1        1.0  0.3481885312785309  0.6200045933316007  0.17482409398238738  1.0000
  C   C2        1.0  0.6518167065906083  0.37999828712924016  0.8251698981274062  1.0000
  C   C3        1.0  0.340430656317487  0.6306688653007485  0.0661857201958611  1.0000
  C   C4        1.0  0.659578094016588  0.3693349725080282  0.9338093807361718  1.0000
  C   C5        1.0  0.5232326479829652  0.6955582183260134  0.03407217419164971  1.0000
  C   C6        1.0  0.47677479441890813  0.3044485345847435  0.9659268244469035  1.0000
  C   C7        1.0  0.7007353494681253  0.7533456404417296  0.11245108379618068  1.0000
  C   C8        1.0  0.2992703490816169  0.24666008695273686  0.8875500189792691  1.0000
  C   C9        1.0  0.6955447141404958  0.7400796099151778  0.22037046957132841  1.0000
  C   C10       1.0  0.304456864181887  0.2599192117797601  0.7796288221269169  1.0000
  C   C11       1.0  0.8849769466745414  0.7959138829195496  0.30551466066919636  1.0000
  C   C12       1.0  0.1150164706282553  0.2040879469148109  0.6944852197764321  1.0000
  C   C13       1.0  0.01319473960690941  0.9101689782033731  0.30598118412335407  1.0000
  C   C14       1.0  0.9867953249401535  0.08983283827104323  0.6940202228018535  1.0000
  C   C15       1.0  0.18980574883259038  0.957580165481467  0.38762558475398384  1.0000
  C   C16       1.0  0.8101857833558694  0.042419679878946716  0.6123745597665151  1.0000
  C   C17       1.0  0.2366038853715935  0.8880904393165141  0.46497473123872635  1.0000
  C   C18       1.0  0.7633877142911274  0.11191042488022158  0.5350240723846583  1.0000
  C   C19       1.0  0.09983370274457569  0.7761927624370983  0.46102665034606366  1.0000
  C   C20       1.0  0.9001609734631513  0.22380511848928822  0.538971468529944  1.0000
  C   C21       1.0  0.3175075642231845  0.3277253452747857  0.3618029193375493  1.0000
  C   C22       1.0  0.6824857181310973  0.672274446886931  0.6381996429023007  1.0000
  C   C23       1.0  0.23126934910096955  0.2341497381104959  0.2522018274711614  1.0000
  C   C24       1.0  0.7687289318066346  0.7658490253154967  0.7478013764260114  1.0000
  C   C25       1.0  0.3507861312483342  0.1234780314488404  0.20049990088210026  1.0000
  C   C26       1.0  0.6492121006319921  0.8765196981711586  0.7995054391519718  1.0000
  C   C27       1.0  0.26364777218239493  0.0328453751793703  0.10175963644621792  1.0000
  C   C28       1.0  0.7363533828474401  0.9671473484673145  0.8982469053949063  1.0000
  C   C29       1.0  0.050814518885594885  0.04880717019293711  0.05137012782686411  1.0000
  C   C30       1.0  0.9491830683383424  0.9511846410148054  0.9486329194726582  1.0000
  C   C31       1.0  0.9374458853029137  0.16268996154776974  0.10225744536705861  1.0000
  C   C32       1.0  0.0625554168087348  0.8373058635168817  0.8977426880633744  1.0000
  C   C33       1.0  0.0242584986660646  0.25482995280576404  0.20047000163263115  1.0000
  C   C34       1.0  0.9757394322428538  0.7451658738686008  0.7995308630375889  1.0000
  C   C35       1.0  0.8883471772001739  0.3734018684903548  0.24836644477151995  1.0000
  C   C36       1.0  0.1116490156762282  0.626595075128023  0.7516282755628796  1.0000
  N   N1        1.0  0.5233657809106163  0.6716220510774777  0.24935604952451484  1.0000
  N   N2        1.0  0.4766357420708046  0.3283768155264681  0.7506408564543678  1.0000
  N   N3        1.0  0.9272687354466669  0.732613577519345  0.3836633308190685  1.0000
  N   N4        1.0  0.0727275986919409  0.26738432505668913  0.6163332295773645  1.0000
  O   O1        1.0  0.30834981860617455  0.45147005828940223  0.3745723372654553  1.0000
  O   O2        1.0  0.6916450357577373  0.5485287516553115  0.625429212152156  1.0000
  O   O3        1.0  0.387212193097234  0.2758123125344271  0.43715528331289744  1.0000
  O   O4        1.0  0.6127826797136607  0.7241864824406151  0.5628470613444919  1.0000
  O   O5        1.0  0.8167178788210874  0.38471185498512034  0.34566410399819614  1.0000
  O   O6        1.0  0.18327691388817866  0.6152880785835821  0.654330537843805  1.0000
  O   O7        1.0  0.8479533923329255  0.449506750863307  0.18944233196035754  1.0000
  O   O8        1.0  0.1520524597847412  0.5504862622773103  0.8105476058452653  1.0000
