data_image0
_chemical_formula_structural       Zn2H28C48N4O8
_chemical_formula_sum              "Zn2 H28 C48 N4 O8"
_cell_length_a       9.170712126205652
_cell_length_b       10.98310610637503
_cell_length_c       10.926525688518684
_cell_angle_alpha    118.71317435049124
_cell_angle_beta     104.50832317604512
_cell_angle_gamma    92.74242468939778

_space_group_name_H-M_alt    "P 1"
_space_group_IT_number       1

loop_
  _space_group_symop_operation_xyz
  'x, y, z'

loop_
  _atom_site_type_symbol
  _atom_site_label
  _atom_site_symmetry_multiplicity
  _atom_site_fract_x
  _atom_site_fract_y
  _atom_site_fract_z
  _atom_site_occupancy
  Zn  Zn1       1.0  0.47025314852930916  0.06222809123671167  0.3903800817281535  1.0000
  Zn  Zn2       1.0  0.5297480157992709  0.9377736348990238  0.6096223519710191  1.0000
  H   H1        1.0  0.8299688684188382  0.09214544867074177  0.4923976448833898  1.0000
  H   H2        1.0  0.17003095219945408  0.9078552150578217  0.5076030720001936  1.0000
  H   H3        1.0  0.023040748990503245  0.9743105917265493  0.3653390162132337  1.0000
  H   H4        1.0  0.9769572845784962  0.02568686655229869  0.6346625057407351  1.0000
  H   H5        1.0  0.9313554878300251  0.805608381829927  0.0957617708503591  1.0000
  H   H6        1.0  0.06864163695033909  0.1943901321879267  0.9042391593613388  1.0000
  H   H7        1.0  0.7152640256560048  0.70115057146117  0.8542068468264291  1.0000
  H   H8        1.0  0.2847375883245817  0.298853316389362  0.14579032976729417  1.0000
  H   H9        1.0  0.442456285101123  0.670114501827207  0.7224899494700735  1.0000
  H   H10       1.0  0.5575410655574015  0.3298850961600904  0.277507896318987  1.0000
  H   H11       1.0  0.1766944590086084  0.7190193368352809  0.7338436561390295  1.0000
  H   H12       1.0  0.8233049287923675  0.2809792149711824  0.26615502393140383  1.0000
  H   H13       1.0  0.010053426732710586  0.8398394312554271  0.8872262990245757  1.0000
  H   H14       1.0  0.9899463959899177  0.16016123869722065  0.11277350611918993  1.0000
  H   H15       1.0  0.1314722667927981  0.9919815074044536  0.1631856452426276  1.0000
  H   H16       1.0  0.8685286884923042  0.008019184554541396  0.83681257896059  1.0000
  H   H17       1.0  0.35225036833109863  0.4783534085728788  0.4073552294775879  1.0000
  H   H18       1.0  0.647744938871966  0.5216472169229788  0.5926445172495747  1.0000
  H   H19       1.0  0.17233217474127113  0.641668817950034  0.41258338290339214  1.0000
  H   H20       1.0  0.8276656045258973  0.3583328795111739  0.5874183231784684  1.0000
  H   H21       1.0  0.06081982316696606  0.2682126390426161  0.5310733062840498  1.0000
  H   H22       1.0  0.93917726056371  0.7317911607825137  0.46893019407185926  1.0000
  H   H23       1.0  0.5929485810900346  0.7251458501554066  0.289561166420988  1.0000
  H   H24       1.0  0.4070566638364638  0.2748538022909414  0.7104402006214698  1.0000
  H   H25       1.0  0.20022186510547604  0.387890717243607  0.8077121718813346  1.0000
  H   H26       1.0  0.7997824731367087  0.6121099971658309  0.1922876916790272  1.0000
  H   H27       1.0  0.12147580329042275  0.5649182123334808  0.016182713553504806  1.0000
  H   H28       1.0  0.878529659096898  0.4350824991859523  0.9838192160256084  1.0000
  C   C1        1.0  0.7975684005073302  0.0220354579183208  0.3732730525997995  1.0000
  C   C2        1.0  0.20242937875983805  0.9779662395428942  0.6267286534820612  1.0000
  C   C3        1.0  0.9032054388318611  0.9547743332436626  0.3023388034997225  1.0000
  C   C4        1.0  0.09679169015716838  0.045224193222367086  0.6976603032323254  1.0000
  C   C5        1.0  0.8530847258755897  0.864010899417849  0.15185198715186507  1.0000
  C   C6        1.0  0.14691396849323007  0.1359897609766207  0.8481475754527921  1.0000
  C   C7        1.0  0.6987028893405237  0.8441804283024722  0.07081465653734395  1.0000
  C   C8        1.0  0.30129715505159277  0.1558213131714368  0.9291838876634274  1.0000
  C   C9        1.0  0.6377905106634144  0.7548515975436484  0.9146218800591868  1.0000
  C   C10       1.0  0.36220662884729643  0.24514696004281686  0.0853726679737363  1.0000
  C   C11       1.0  0.4863761110518751  0.7362171499431296  0.8417310092721947  1.0000
  C   C12       1.0  0.5136257446045319  0.263782461380515  0.1582714536325937  1.0000
  C   C13       1.0  0.38330525387195985  0.8042980933945427  0.920511949782842  1.0000
  C   C14       1.0  0.6166927860100484  0.19569938355657257  0.07948683695165219  1.0000
  C   C15       1.0  0.22487267928653407  0.7862303118805016  0.8526195212222732  1.0000
  C   C16       1.0  0.7751271392274147  0.21377034562397057  0.14738210740113544  1.0000
  C   C17       1.0  0.1327830709520015  0.8533926166623403  0.9376164407559813  1.0000
  C   C18       1.0  0.8672161035968243  0.1466048885192137  0.06237985329813972  1.0000
  C   C19       1.0  0.19909888785802105  0.9384723319774008  0.09075384770235202  1.0000
  C   C20       1.0  0.800898456487495  0.06152724733762941  0.9092467333061833  1.0000
  C   C21       1.0  0.44002029565875483  0.8937111544182837  0.07550218448419313  1.0000
  C   C22       1.0  0.5599781791448989  0.10628844067900899  0.924497727323619  1.0000
  C   C23       1.0  0.6003817279345967  0.9157182243783452  0.15155581493115725  1.0000
  C   C24       1.0  0.39961831645751994  0.08428351709556377  0.8484427292696141  1.0000
  C   C25       1.0  0.313636125298018  0.25401587618620175  0.44771533355815063  1.0000
  C   C26       1.0  0.6863596599807166  0.7459815878726558  0.5522820563583012  1.0000
  C   C27       1.0  0.21403108190826708  0.36115236813554935  0.4658972665310587  1.0000
  C   C28       1.0  0.78596492083129  0.6388461549963932  0.5341006859220556  1.0000
  C   C29       1.0  0.24760438821372324  0.46904733718292135  0.43482970024729184  1.0000
  C   C30       1.0  0.752390701528519  0.5309522292398441  0.5651694839432081  1.0000
  C   C31       1.0  0.14939609647185387  0.5612763113886388  0.4403770694820111  1.0000
  C   C32       1.0  0.8506010346215117  0.4387222213014821  0.5596211255102047  1.0000
  C   C33       1.0  0.015699695970987134  0.5528252408431197  0.48155800162079027  1.0000
  C   C34       1.0  0.9842969591510454  0.44717645950809254  0.5184416384423116  1.0000
  C   C35       1.0  0.08525759138763077  0.35161301990733307  0.5077113907855235  1.0000
  C   C36       1.0  0.9147388399605701  0.6483876026985271  0.49229042196039796  1.0000
  C   C37       1.0  0.30307817130294973  0.7647364607363372  0.28689974793766027  1.0000
  C   C38       1.0  0.6969189471644055  0.23526203460925638  0.7131039174935196  1.0000
  C   C39       1.0  0.35352551211547467  0.655162621712712  0.16542011658241043  1.0000
  C   C40       1.0  0.6464790393788604  0.3448391393216355  0.8345821329942639  1.0000
  C   C41       1.0  0.5078427196759279  0.6493369359869304  0.1846285718241773  1.0000
  C   C42       1.0  0.4921604902124485  0.35066376886432943  0.8153710491970755  1.0000
  C   C43       1.0  0.5564760757145705  0.5478485180052883  0.0696316408328954  1.0000
  C   C44       1.0  0.44352848419710966  0.45215326792541066  0.930366961784479  1.0000
  C   C45       1.0  0.2860935170039268  0.46057053186427765  0.9134386114592487  1.0000
  C   C46       1.0  0.713912384513712  0.5394323102495093  0.08656261971353986  1.0000
  C   C47       1.0  0.24193614259070262  0.558202058148808  0.02844148701427676  1.0000
  C   C48       1.0  0.758066849836851  0.44179758762935956  0.9715575714703136  1.0000
  N   N1        1.0  0.650248311219947  0.0018116820781912985  0.2997057335134699  1.0000
  N   N2        1.0  0.3497515157113468  0.9981890003226326  0.7002922481506388  1.0000
  N   N3        1.0  0.3482044785289843  0.9578702743594856  0.1571907415832071  1.0000
  N   N4        1.0  0.6517962508779502  0.04212933363007208  0.8428105670426477  1.0000
  O   O1        1.0  0.44544090715474016  0.27543506565374537  0.4340908798847209  1.0000
  O   O2        1.0  0.5545539567093342  0.7245634167995832  0.5659113887284164  1.0000
  O   O3        1.0  0.2630397573003194  0.13995264504929847  0.4416210567866655  1.0000
  O   O4        1.0  0.7369526450213327  0.8600447965591153  0.5583746937726414  1.0000
  O   O5        1.0  0.1658742502903081  0.7509927290341096  0.2825161988794492  1.0000
  O   O6        1.0  0.8341449466558187  0.2490090877915492  0.7174992328436858  1.0000
  O   O7        1.0  0.41133421332148146  0.8731345060676075  0.3928900430122439  1.0000
  O   O8        1.0  0.5886780212930063  0.1268662690249585  0.6071124300616759  1.0000
