data_image0
_chemical_formula_structural       ZnH8C6N8O4
_chemical_formula_sum              "Zn1 H8 C6 N8 O4"
_cell_length_a       5.509390455219818
_cell_length_b       7.759522540690701
_cell_length_c       8.130670659140785
_cell_angle_alpha    121.78126804694344
_cell_angle_beta     101.42276679967402
_cell_angle_gamma    96.2909483201783

_space_group_name_H-M_alt    "P 1"
_space_group_IT_number       1

loop_
  _space_group_symop_operation_xyz
  'x, y, z'

loop_
  _atom_site_type_symbol
  _atom_site_label
  _atom_site_symmetry_multiplicity
  _atom_site_fract_x
  _atom_site_fract_y
  _atom_site_fract_z
  _atom_site_occupancy
  Zn  Zn1       1.0  1.114296993880385e-05  1.039164628479896e-05  0.999997395406396  1.0000
  H   H1        1.0  0.5786872576995987  0.30227920052783464  0.7318415425395699  1.0000
  H   H2        1.0  0.42131040531749164  0.6977175923340299  0.26815312703104877  1.0000
  H   H3        1.0  0.8091920598396739  0.20427353320402367  0.42040897843259023  1.0000
  H   H4        1.0  0.190809988152452  0.7957208139309271  0.5796048372823392  1.0000
  H   H5        1.0  0.18682310621191792  0.3214866755474546  0.8986402937784631  1.0000
  H   H6        1.0  0.8131761123483513  0.6785242392619539  0.10136637300993823  1.0000
  H   H7        1.0  0.1598995935264611  0.5322561846781965  0.8906895955193193  1.0000
  H   H8        1.0  0.8400999354081478  0.46773286127117336  0.10929790226539648  1.0000
  C   C1        1.0  0.47751914286489233  0.8894359856296956  0.9820972164002696  1.0000
  C   C2        1.0  0.5224739161042606  0.11057325076824039  0.01791388036131277  1.0000
  C   C3        1.0  0.4078758862502454  0.26002907327031716  0.6114433062105037  1.0000
  C   C4        1.0  0.5921251803470825  0.7399584348041159  0.3885412119793373  1.0000
  C   C5        1.0  0.012464744998375502  0.20943965419720464  0.45045643053870077  1.0000
  C   C6        1.0  0.9875389273675594  0.790551123920949  0.5495325178308194  1.0000
  N   N1        1.0  0.1435818655112087  0.1435015016958587  0.318156606373222  1.0000
  N   N2        1.0  0.8564050531870038  0.8564981990281597  0.6818501925195337  1.0000
  N   N3        1.0  0.39379482450278397  0.1738740465760245  0.418932399136061  1.0000
  N   N4        1.0  0.6062001460346096  0.8261215073839807  0.5810797280054205  1.0000
  N   N5        1.0  0.17223686237768024  0.2842727058936418  0.6370453291794221  1.0000
  N   N6        1.0  0.827756676528253  0.7157144975370003  0.3629391619643842  1.0000
  N   N7        1.0  0.09635834571523817  0.37108025285866114  0.8135956701132514  1.0000
  N   N8        1.0  0.903639728898149  0.6289337659969618  0.18641479361397015  1.0000
  O   O1        1.0  0.2518710187576687  0.8008394750309052  0.9536779465828716  1.0000
  O   O2        1.0  0.748150012835417  0.199163313193111  0.04633660825722071  1.0000
  O   O3        1.0  0.3310823009206771  0.1869402515205536  0.01678519682128149  1.0000
  O   O4        1.0  0.6689323667382255  0.8130728387477149  0.9832223414031278  1.0000
