data_image0
_chemical_formula_structural       K4H20C28O16
_chemical_formula_sum              "K4 H20 C28 O16"
_cell_length_a       3.8496347099676687
_cell_length_b       13.217629800450124
_cell_length_c       14.999069802027254
_cell_angle_alpha    90.00014589878784
_cell_angle_beta     89.99981736868726
_cell_angle_gamma    97.92330349813992

_space_group_name_H-M_alt    "P 1"
_space_group_IT_number       1

loop_
  _space_group_symop_operation_xyz
  'x, y, z'

loop_
  _atom_site_type_symbol
  _atom_site_label
  _atom_site_symmetry_multiplicity
  _atom_site_fract_x
  _atom_site_fract_y
  _atom_site_fract_z
  _atom_site_occupancy
  K   K1        1.0  0.9562117868417346  0.1051528366925609  0.14574743161340817  1.0000
  K   K2        1.0  0.5437728821917391  0.3948455537373193  0.6457469351895284  1.0000
  K   K3        1.0  0.04378175439566693  0.8948496249820721  0.8542506360721943  1.0000
  K   K4        1.0  0.45621285693741254  0.6051462170477465  0.354246465531105  1.0000
  H   H1        1.0  0.5109983568994638  0.9020635416462499  0.0221948541099692  1.0000
  H   H2        1.0  0.989001401952521  0.597936700004496  0.5221946537925035  1.0000
  H   H3        1.0  0.48899518431171185  0.09793892003401794  0.9778078805317205  1.0000
  H   H4        1.0  0.010999549207561214  0.4020596387175814  0.4778067474231875  1.0000
  H   H5        1.0  0.5006948431946937  0.6416461387175828  0.9493860617599807  1.0000
  H   H6        1.0  0.999322736370992  0.8583535789748495  0.44938242890931696  1.0000
  H   H7        1.0  0.49930129421921543  0.35835631992400613  0.050614672756601885  1.0000
  H   H8        1.0  0.0006841441394343003  0.141638931372384  0.5506116385114836  1.0000
  H   H9        1.0  0.2469940190436759  0.501089145028196  0.0510843002332493  1.0000
  H   H10       1.0  0.25302180793800494  0.9989105301640108  0.5510785339708233  1.0000
  H   H11       1.0  0.753003970851843  0.498911782875055  0.9489171009888506  1.0000
  H   H12       1.0  0.7469869318565046  0.0010857994364102002  0.4489121999134794  1.0000
  H   H13       1.0  0.9873944080151985  0.5379997974730557  0.1963903824657578  1.0000
  H   H14       1.0  0.5126208294376442  0.9620046656540925  0.6963867300653419  1.0000
  H   H15       1.0  0.012606178079302345  0.4620011273923269  0.8036096853392535  1.0000
  H   H16       1.0  0.48739422507156155  0.037999299426104506  0.30360533724103783  1.0000
  H   H17       1.0  0.011407045857218657  0.8040116037452522  0.2620118199440569  1.0000
  H   H18       1.0  0.4885889807910218  0.6959901295068391  0.7620105084609887  1.0000
  H   H19       1.0  0.9885846360923551  0.1959870386769964  0.7379902479860546  1.0000
  H   H20       1.0  0.511411977160293  0.3040115592091794  0.23798889263672143  1.0000
  C   C1        1.0  0.25848887148942623  0.8899087850951872  0.15259703060893057  1.0000
  C   C2        1.0  0.24150319251207011  0.6100926901458763  0.6525970608915657  1.0000
  C   C3        1.0  0.741500214257414  0.1100898603657328  0.8474070374462882  1.0000
  C   C4        1.0  0.7584955410783465  0.38990976546267575  0.3474063404559971  1.0000
  C   C5        1.0  0.25998189041177977  0.7831270342173084  0.12466784385770777  1.0000
  C   C6        1.0  0.2400208722695967  0.7168743614662961  0.6246661169061838  1.0000
  C   C7        1.0  0.7400157276269184  0.2168731298353066  0.8753342240716933  1.0000
  C   C8        1.0  0.7599849062153795  0.28312655732495534  0.375332617480673  1.0000
  C   C9        1.0  0.399148147388793  0.7594791877938079  0.040937234267730084  1.0000
  C   C10       1.0  0.1008603768973302  0.7405212358717819  0.5409350083223359  1.0000
  C   C11       1.0  0.6008528105437989  0.24052250092623242  0.9590655003700376  1.0000
  C   C12       1.0  0.8991413179838758  0.2594766305499618  0.45906372606273754  1.0000
  C   C13       1.0  0.3930975052205171  0.6580814863737673  0.0141501275276923  1.0000
  C   C14       1.0  0.10691614066213624  0.8419181027143736  0.5141481260981777  1.0000
  C   C15       1.0  0.6069116131433675  0.3419209570881351  0.9858519403995698  1.0000
  C   C16       1.0  0.8930840668180337  0.15807670829918413  0.48584860816001907  1.0000
  C   C17       1.0  0.25176257823196824  0.5802697706100657  0.07167233126874349  1.0000
  C   C18       1.0  0.2482537610508899  0.9197314819788075  0.5716683898427775  1.0000
  C   C19       1.0  0.7482409759033504  0.41973191507130286  0.928328403243924  1.0000
  C   C20       1.0  0.751755722434773  0.08026637532771728  0.4283250108749925  1.0000
  C   C21       1.0  0.11019252473059285  0.6003298099181649  0.15439820881187666  1.0000
  C   C22       1.0  0.38982362847601604  0.8996731700426112  0.6543947725257837  1.0000
  C   C23       1.0  0.8898128818863285  0.3996703450248589  0.8456031924063083  1.0000
  C   C24       1.0  0.6101802975423496  0.1003292794837662  0.34560062832350263  1.0000
  C   C25       1.0  0.11444239380346495  0.7019183954777121  0.1806879523302882  1.0000
  C   C26       1.0  0.38556789968300376  0.7980838901587932  0.6806856230332129  1.0000
  C   C27       1.0  0.885560416618226  0.2980817625023775  0.8193141155969739  1.0000
  C   C28       1.0  0.6144386225081251  0.2019185563353432  0.3193131113550649  1.0000
  O   O1        1.0  0.11541269861806569  0.9087958675385436  0.2268283806699003  1.0000
  O   O2        1.0  0.3845659219577939  0.5912065659041802  0.726830917639752  1.0000
  O   O3        1.0  0.8845700791903257  0.09120049243976779  0.7731750206773069  1.0000
  O   O4        1.0  0.6154190937302744  0.4087997271831653  0.27317581725783663  1.0000
  O   O5        1.0  0.39734448748546214  0.9622274238438068  0.1004004852639113  1.0000
  O   O6        1.0  0.1026537274003729  0.53777468319457  0.6004011325234231  1.0000
  O   O7        1.0  0.6026412651399937  0.03777504694765101  0.8996042495050175  1.0000
  O   O8        1.0  0.8973564997202461  0.46222470183013087  0.39960493564799277  1.0000
  O   O9        1.0  0.5359663061204714  0.8366592099706764  0.9858111934587086  1.0000
  O   O10       1.0  0.9640404792779479  0.6633406077849532  0.4858091483248756  1.0000
  O   O11       1.0  0.4640327993230143  0.1633440094893146  0.014192207889564696  1.0000
  O   O12       1.0  0.03595972817974064  0.3366542032334365  0.5141915861813827  1.0000
  O   O13       1.0  0.9834259714787665  0.7238629017380873  0.2618273190246753  1.0000
  O   O14       1.0  0.5165770301757888  0.7761394399212449  0.7618252428477915  1.0000
  O   O15       1.0  0.01657275533539602  0.2761342038733048  0.738175415608822  1.0000
  O   O16       1.0  0.4834276395299781  0.22386453731203906  0.23817349154297315  1.0000
