data_image0
_chemical_formula_structural       Ag4H20C28N12Cl4O12
_chemical_formula_sum              "Ag4 H20 C28 N12 Cl4 O12"
_cell_length_a       7.107293702069124
_cell_length_b       9.63119170283794
_cell_length_c       13.70276568081669
_cell_angle_alpha    95.55308518498883
_cell_angle_beta     89.99972093912447
_cell_angle_gamma    90.00045422444688

_space_group_name_H-M_alt    "P 1"
_space_group_IT_number       1

loop_
  _space_group_symop_operation_xyz
  'x, y, z'

loop_
  _atom_site_type_symbol
  _atom_site_label
  _atom_site_symmetry_multiplicity
  _atom_site_fract_x
  _atom_site_fract_y
  _atom_site_fract_z
  _atom_site_occupancy
  Ag  Ag1       1.0  0.9784306975644268  0.16501272061054814  0.06357913164494282  1.0000
  Ag  Ag2       1.0  0.4784083506238376  0.33498187687725794  0.4364139980732561  1.0000
  Ag  Ag3       1.0  0.021579472561768398  0.8349837721107607  0.9364144871221358  1.0000
  Ag  Ag4       1.0  0.5215891564674422  0.6650322394182027  0.563597661220449  1.0000
  H   H1        1.0  0.9692618831147826  0.3454544521647522  0.7451559313337486  1.0000
  H   H2        1.0  0.4692744180958144  0.15455596133774213  0.7548353864985131  1.0000
  H   H3        1.0  0.030742658948085498  0.6545305895886813  0.2548332228038319  1.0000
  H   H4        1.0  0.5307273100250498  0.8454581741715756  0.2451733550087952  1.0000
  H   H5        1.0  0.7883006050603995  0.9197197439506444  0.6644991118308642  1.0000
  H   H6        1.0  0.2882904712768806  0.5802842878041404  0.8354910631753399  1.0000
  H   H7        1.0  0.2117194141018643  0.08026535545197788  0.3354812889444787  1.0000
  H   H8        1.0  0.7116943727231443  0.41972666051881186  0.16452620876618346  1.0000
  H   H9        1.0  0.7582370541480401  0.1505435993730941  0.3766499509862911  1.0000
  H   H10       1.0  0.2582543552841656  0.3494592112993473  0.12334141087789872  1.0000
  H   H11       1.0  0.24174356889636064  0.8494560420038084  0.6233409729608683  1.0000
  H   H12       1.0  0.7417431517431085  0.6505444588164836  0.8766716936535703  1.0000
  H   H13       1.0  0.8556067522605915  0.3058877281979663  0.4073666145288684  1.0000
  H   H14       1.0  0.3556268555617592  0.19411977389993498  0.09262629068357602  1.0000
  H   H15       1.0  0.1443809057962042  0.6941098220418527  0.5926248902363369  1.0000
  H   H16       1.0  0.6443720584918181  0.8058859969770751  0.9073847741297317  1.0000
  H   H17       1.0  0.9148287505001774  0.39906389446287704  0.5739528274779035  1.0000
  H   H18       1.0  0.41485739867607657  0.10094622374035112  0.9260386092878011  1.0000
  H   H19       1.0  0.0851532795104504  0.6009294782499381  0.4260391094994632  1.0000
  H   H20       1.0  0.5851401084093126  0.8990647774235543  0.07397063874000054  1.0000
  C   C1        1.0  0.9004815714474289  0.10028125704447889  0.8154110386641806  1.0000
  C   C2        1.0  0.40048197124358614  0.399726677679311  0.6845831986468981  1.0000
  C   C3        1.0  0.09953281977806941  0.8997143173261081  0.18456354020688082  1.0000
  C   C4        1.0  0.5995113147297816  0.600282117102573  0.31544413690190254  1.0000
  C   C5        1.0  0.9170617966925149  0.2648450086136194  0.690702005158599  1.0000
  C   C6        1.0  0.4170718962621934  0.23516199212199507  0.8092892038179968  1.0000
  C   C7        1.0  0.08293852436320039  0.7351410811067397  0.3092864938480134  1.0000
  C   C8        1.0  0.5829199828307878  0.7648552632927519  0.19072121952054036  1.0000
  C   C9        1.0  0.8153918933890977  0.024982104965722805  0.6456356624296691  1.0000
  C   C10       1.0  0.3153915426658074  0.47502328172139147  0.8543586122063689  1.0000
  C   C11       1.0  0.18462109071588625  0.9750029512124103  0.354351303362357  1.0000
  C   C12       1.0  0.6846017433709618  0.5249866378484783  0.14565639707974046  1.0000
  C   C13       1.0  0.8135938268346053  0.19443054942901486  0.5241988675372229  1.0000
  C   C14       1.0  0.31360737370885516  0.30557588511945266  0.9757932969864171  1.0000
  C   C15       1.0  0.18640227323742659  0.8055617993465989  0.47579007733314443  1.0000
  C   C16       1.0  0.6863873193327094  0.694431962500474  0.024219375342113405  1.0000
  C   C17       1.0  0.879009881630637  0.12961468372485294  0.716902331837929  1.0000
  C   C18       1.0  0.3790118589213733  0.3703941920818323  0.7830898383663724  1.0000
  C   C19       1.0  0.12100028845006962  0.8703703532432455  0.2830875517389515  1.0000
  C   C20       1.0  0.620984241142146  0.6296188570290226  0.21692539384623197  1.0000
  C   C21       1.0  0.8856186508919351  0.2952640732255817  0.5954853591674978  1.0000
  C   C22       1.0  0.38563738163617245  0.20474380490779248  0.9045052633758178  1.0000
  C   C23       1.0  0.11437604215524289  0.7047251412122649  0.40450409222027883  1.0000
  C   C24       1.0  0.6143530904118961  0.7952651098814629  0.09550383603995984  1.0000
  C   C25       1.0  0.7842906629115376  0.05794536590383359  0.5506177644966642  1.0000
  C   C26       1.0  0.2842961032755725  0.44205777529575147  0.9493749705869946  1.0000
  C   C27       1.0  0.21571247219482356  0.9420438869617132  0.4493658513183264  1.0000
  C   C28       1.0  0.7156985897494437  0.5579521202749405  0.05064368592479702  1.0000
  N   N1        1.0  0.9151617538587756  0.07644863594538981  0.8973206887995107  1.0000
  N   N2        1.0  0.41515754767412727  0.4235541865316391  0.6026694976599458  1.0000
  N   N3        1.0  0.0848624862756608  0.9235457224525235  0.10268007578692825  1.0000
  N   N4        1.0  0.5848455874324187  0.5764495652096642  0.3973312062928188  1.0000
  N   N5        1.0  0.7666426972069614  0.23196530997622491  0.4311997435544087  1.0000
  N   N6        1.0  0.26665961169545943  0.2680375319006529  0.06879378827794373  1.0000
  N   N7        1.0  0.23334355384989888  0.7680332834375604  0.568791835522191  1.0000
  N   N8        1.0  0.7333407093385131  0.7319640614684461  0.9312177087398441  1.0000
  N   N9        1.0  0.6404854814669533  0.11947313320892768  0.1887562842056739  1.0000
  N   N10       1.0  0.1404746455289825  0.3805248465778562  0.31123795555048167  1.0000
  N   N11       1.0  0.3595260957143934  0.8805317145396713  0.8112364701478328  1.0000
  N   N12       1.0  0.8595256755258944  0.6194715981107279  0.6887629576818032  1.0000
  Cl  Cl1       1.0  0.7107685703168868  0.9292976053112842  0.4619356881985653  1.0000
  Cl  Cl2       1.0  0.21076250040345457  0.5707016006673271  0.038059493860458815  1.0000
  Cl  Cl3       1.0  0.2892317507827755  0.07069372430099459  0.5380495351301064  1.0000
  Cl  Cl4       1.0  0.789225157578862  0.42930516535092517  0.9619589397294492  1.0000
  O   O1        1.0  0.7829866268280413  0.09841005856046792  0.23984709123808307  1.0000
  O   O2        1.0  0.28298212436764203  0.4015845025118381  0.26014945765015096  1.0000
  O   O3        1.0  0.21702354328543544  0.9015833094280906  0.7601455751539847  1.0000
  O   O4        1.0  0.7170224176919928  0.5984150333167476  0.73985751407065  1.0000
  O   O5        1.0  0.47567850606299805  0.10465655063456583  0.21908263828036212  1.0000
  O   O6        1.0  0.9756690004572518  0.39534744935890137  0.28090678955413045  1.0000
  O   O7        1.0  0.5243302571742062  0.8953618536169757  0.7809118115498067  1.0000
  O   O8        1.0  0.024332727581843  0.6046396451382565  0.7190876193243485  1.0000
  O   O9        1.0  0.6637185624455313  0.15634052839598672  0.10108952357869332  1.0000
  O   O10       1.0  0.1636938449503589  0.34365549105547905  0.39890451680238936  1.0000
  O   O11       1.0  0.33629723572146025  0.8436590986745361  0.8989035886663715  1.0000
  O   O12       1.0  0.836295220075236  0.6563461502890817  0.6010996857732566  1.0000
