data_image0
_chemical_formula_structural       Mn2H36C36N8O10
_chemical_formula_sum              "Mn2 H36 C36 N8 O10"
_cell_length_a       9.345835107791354
_cell_length_b       9.503793408378948
_cell_length_c       11.430133075308483
_cell_angle_alpha    74.05969461336045
_cell_angle_beta     81.57878520161277
_cell_angle_gamma    65.50036627485402

_space_group_name_H-M_alt    "P 1"
_space_group_IT_number       1

loop_
  _space_group_symop_operation_xyz
  'x, y, z'

loop_
  _atom_site_type_symbol
  _atom_site_label
  _atom_site_symmetry_multiplicity
  _atom_site_fract_x
  _atom_site_fract_y
  _atom_site_fract_z
  _atom_site_occupancy
  Mn  Mn1       1.0  0.6925323156793793  0.8030325371833842  0.6074014551587011  1.0000
  Mn  Mn2       1.0  0.3074698988363451  0.19696584249062707  0.392598734430372  1.0000
  H   H1        1.0  0.2191943551920374  0.2351725139904914  0.1098812620049969  1.0000
  H   H2        1.0  0.7808070612259214  0.7648306472391584  0.8901196592736226  1.0000
  H   H3        1.0  0.1860474324600147  0.3928430466519189  0.5899612484496756  1.0000
  H   H4        1.0  0.813953097951085  0.6071541238810312  0.41003943518625624  1.0000
  H   H5        1.0  0.041222315040208464  0.41887159739204094  0.9616672040772156  1.0000
  H   H6        1.0  0.9587798363624171  0.5811351483827779  0.03833191177805154  1.0000
  H   H7        1.0  0.4820288040860773  0.054607708639729  0.8823906255902614  1.0000
  H   H8        1.0  0.5179736958261499  0.9453954673149954  0.11761103123343018  1.0000
  H   H9        1.0  0.03312112971136112  0.6858283600632262  0.43663552505027065  1.0000
  H   H10       1.0  0.9668806130190359  0.314171209983229  0.5633644453334696  1.0000
  H   H11       1.0  0.9502547393369338  0.17102010417065125  0.2840297272248122  1.0000
  H   H12       1.0  0.04974808688772464  0.8289794806008928  0.7159709787040001  1.0000
  H   H13       1.0  0.7064515920025158  0.1477835920870803  0.45307184496444813  1.0000
  H   H14       1.0  0.29354906723361285  0.8522159632342864  0.5469273898742201  1.0000
  H   H15       1.0  0.47932072284673677  0.8222888928761379  0.8760934193879136  1.0000
  H   H16       1.0  0.520681497218284  0.17770949213865347  0.12390764316699432  1.0000
  H   H17       1.0  0.31911470373684386  0.4923339534747342  0.8154729931866241  1.0000
  H   H18       1.0  0.6808823842533371  0.5076691541953551  0.18452585887754938  1.0000
  H   H19       1.0  0.5507933980785892  0.5272339297074567  0.6398609500500994  1.0000
  H   H20       1.0  0.44920369546089495  0.4727691833034058  0.36013877497990165  1.0000
  H   H21       1.0  0.13345272306640507  0.7397226652784354  0.9406908978422378  1.0000
  H   H22       1.0  0.8665460545776968  0.26028165687348803  0.05930833314091183  1.0000
  H   H23       1.0  0.26620850318835204  0.5676633855916863  0.03660793943102901  1.0000
  H   H24       1.0  0.7337901400814317  0.4323385464310405  0.9633918673835495  1.0000
  H   H25       1.0  0.2697037191831555  0.7822886824130748  0.3067572569595214  1.0000
  H   H26       1.0  0.7302969511515585  0.21771088358984517  0.6932437238108022  1.0000
  H   H27       1.0  0.19460756707496785  0.9779411582232739  0.21583539385160586  1.0000
  H   H28       1.0  0.8053937094193839  0.022059607536398598  0.7841652302926221  1.0000
  H   H29       1.0  0.021720381335292333  0.889383295227951  0.1170047042701938  1.0000
  H   H30       1.0  0.9782787392691147  0.11061745176311183  0.8829961947155525  1.0000
  H   H31       1.0  0.12809280698234454  0.6938196752691682  0.19873714851527066  1.0000
  H   H32       1.0  0.871907386017746  0.30618107576542297  0.8012627400838852  1.0000
  H   H33       1.0  0.2554601561809091  0.9055402728208009  0.9975244875478566  1.0000
  H   H34       1.0  0.7445380208528362  0.0944628549151503  0.002475973027209502  1.0000
  H   H35       1.0  0.3823476110744863  0.7306248083356692  0.09437496671118589  1.0000
  H   H36       1.0  0.6176525819256041  0.2693759426989217  0.9056249218879698  1.0000
  C   C1        1.0  0.9528558997272824  0.5638276847682776  0.7288377231397618  1.0000
  C   C2        1.0  0.047144888333860886  0.43617425534151993  0.271160062901643  1.0000
  C   C3        1.0  0.09938360400892779  0.42130366668000363  0.7713850060188321  1.0000
  C   C4        1.0  0.9006178013104462  0.5786994838680924  0.2286141693281323  1.0000
  C   C5        1.0  0.26379190278750286  0.22950212676899892  0.9368901592185067  1.0000
  C   C6        1.0  0.7362101086915159  0.7705022235358501  0.06310865950236177  1.0000
  C   C7        1.0  0.20803090058682017  0.3476065572033349  0.6867367799302642  1.0000
  C   C8        1.0  0.791968220017587  0.6523941897877279  0.31326411905548207  1.0000
  C   C9        1.0  0.12701118176205026  0.36244498223789634  0.896026456658511  1.0000
  C   C10       1.0  0.8729919132112369  0.6375593827920341  0.10397309760742963  1.0000
  C   C11       1.0  0.3455477805587961  0.2151939383252284  0.7274908666402241  1.0000
  C   C12       1.0  0.6544551800401806  0.7848080365755125  0.2725092634571523  1.0000
  C   C13       1.0  0.3736606523154861  0.1563953864031404  0.8520188789551638  1.0000
  C   C14       1.0  0.6263412303385183  0.8436065791132918  0.14798138856296816  1.0000
  C   C15       1.0  0.46198218282880527  0.1330208724716471  0.637984363826554  1.0000
  C   C16       1.0  0.5380163149680754  0.8669786587403295  0.362014272887805  1.0000
  C   C17       1.0  0.9764194462840974  0.814610947588733  0.4206300304078495  1.0000
  C   C18       1.0  0.023581830210261476  0.18538981817093972  0.5793705937363781  1.0000
  C   C19       1.0  0.9272442161786145  0.06949840970430192  0.3395494516734558  1.0000
  C   C20       1.0  0.07275766647538956  0.9305035558121236  0.660450815844669  1.0000
  C   C21       1.0  0.8110875370300903  0.056005040850124005  0.425035101704438  1.0000
  C   C22       1.0  0.1889137283656837  0.9439957142280022  0.5749637765081343  1.0000
  C   C23       1.0  0.46802576327662854  0.7374538028345794  0.8352861148280935  1.0000
  C   C24       1.0  0.5319744352727511  0.2625469535407916  0.1647146467368898  1.0000
  C   C25       1.0  0.38807463008415516  0.5634977330299479  0.8017542570952115  1.0000
  C   C26       1.0  0.6119240131856286  0.436504198992779  0.19824554971936686  1.0000
  C   C27       1.0  0.5027075602150788  0.5816434505026892  0.7163551234545479  1.0000
  C   C28       1.0  0.4972906057200817  0.4183596665517086  0.28364359118886284  1.0000
  C   C29       1.0  0.25143903476500634  0.6859154410988922  0.9784595870837122  1.0000
  C   C30       1.0  0.7485606864497496  0.3140865003081501  0.02154008231011062  1.0000
  C   C31       1.0  0.16766572036117106  0.8721959845077407  0.25443665262581305  1.0000
  C   C32       1.0  0.8323344781882085  0.12780477186762343  0.7455641089391704  1.0000
  C   C33       1.0  0.13709143448573968  0.8086023223986061  0.15569397223312356  1.0000
  C   C34       1.0  0.8629098420086193  0.19139844336107362  0.844306651911104  1.0000
  C   C35       1.0  0.2655314771544468  0.7880505019517444  0.054586091681549855  1.0000
  C   C36       1.0  0.7344697993399052  0.21195026380793547  0.9454145324626778  1.0000
  N   N1        1.0  0.8431139504184058  0.896492600002091  0.475394636694503  1.0000
  N   N2        1.0  0.15688577634563927  0.10350934674571734  0.5246059056651475  1.0000
  N   N3        1.0  0.03113131262095687  0.91567751237492  0.3380448960614544  1.0000
  N   N4        1.0  0.9688688859284227  0.08432324400044422  0.6619558655035361  1.0000
  N   N5        1.0  0.5518653151093744  0.6901898687900073  0.738140059684376  1.0000
  N   N6        1.0  0.4481348778907161  0.309810882244591  0.2618598289147868  1.0000
  N   N7        1.0  0.36763749860993755  0.6627826373082686  0.877014999377593  1.0000
  N   N8        1.0  0.632360667325223  0.3372204797461293  0.1229837152658178  1.0000
  O   O1        1.0  0.5778414115559868  0.004842541535666099  0.6802139967671508  1.0000
  O   O2        1.0  0.4221589900300984  0.9951522442088603  0.3197881356660375  1.0000
  O   O3        1.0  0.4401472370939246  0.1951506767109663  0.5245505624257589  1.0000
  O   O4        1.0  0.5598551228947031  0.8048501037737951  0.47545079726353384  1.0000
  O   O5        1.0  0.8913423290194443  0.5704263649839447  0.6338400500986694  1.0000
  O   O6        1.0  0.10865987439769492  0.4295720040085129  0.3661583935587416  1.0000
  O   O7        1.0  0.8968706308216878  0.6732277726333536  0.7873073384249948  1.0000
  O   O8        1.0  0.10312800134951051  0.3267741487078269  0.2126907224579284  1.0000
  O   O9        1.0  0.2956178448295431  0.16706335438300365  0.05679867462648501  1.0000
  O   O10       1.0  0.7043836948641412  0.8329421862942896  0.9431999248890435  1.0000
