data_image0
_chemical_formula_structural       Zn4H48C64N4O16
_chemical_formula_sum              "Zn4 H48 C64 N4 O16"
_cell_length_a       5.852135186279633
_cell_length_b       14.682071781663371
_cell_length_c       16.31336194568129
_cell_angle_alpha    97.37257644981072
_cell_angle_beta     90.00118136234545
_cell_angle_gamma    90.00031372339295

_space_group_name_H-M_alt    "P 1"
_space_group_IT_number       1

loop_
  _space_group_symop_operation_xyz
  'x, y, z'

loop_
  _atom_site_type_symbol
  _atom_site_label
  _atom_site_symmetry_multiplicity
  _atom_site_fract_x
  _atom_site_fract_y
  _atom_site_fract_z
  _atom_site_occupancy
  Zn  Zn1       1.0  0.6054312809744362  0.05727137455795629  0.6550146875426179  1.0000
  Zn  Zn2       1.0  0.10542676347107263  0.9427279581866158  0.8449889363583338  1.0000
  Zn  Zn3       1.0  0.3945701246882295  0.9427340452888019  0.34500596603540157  1.0000
  Zn  Zn4       1.0  0.8945695150851168  0.057262631152781296  0.15501125353063833  1.0000
  H   H1        1.0  0.04047387578729911  0.1398582693903592  0.597199366517181  1.0000
  H   H2        1.0  0.5404538141362922  0.8601368627514318  0.9028083221800076  1.0000
  H   H3        1.0  0.959568540998177  0.8601631290477625  0.4028314408376873  1.0000
  H   H4        1.0  0.45958176579617344  0.1398261147691855  0.09718241039323773  1.0000
  H   H5        1.0  0.6810930976231832  0.89938615158195  0.5213624062330596  1.0000
  H   H6        1.0  0.18110799888017234  0.10060794515965908  0.9786430402064996  1.0000
  H   H7        1.0  0.3189373576239377  0.10063041376696445  0.4786666999461318  1.0000
  H   H8        1.0  0.8189378335794475  0.8993583463772692  0.02134250007220118  1.0000
  H   H9        1.0  0.13174913389971724  0.6145878710712651  0.296878146402598  1.0000
  H   H10       1.0  0.631719121455106  0.3854361473722462  0.2031056970380121  1.0000
  H   H11       1.0  0.8682710673943819  0.3854210194025355  0.7031128059554634  1.0000
  H   H12       1.0  0.36825152470326133  0.6145689519799118  0.7968683286945508  1.0000
  H   H13       1.0  0.22734232287262304  0.45069680371771165  0.30601982283246804  1.0000
  H   H14       1.0  0.7273467369613654  0.5493204506959941  0.19395601440600532  1.0000
  H   H15       1.0  0.7726556640487915  0.5493064609885321  0.693964445555821  1.0000
  H   H16       1.0  0.27265466728292864  0.4506812949447152  0.8060213605296553  1.0000
  H   H17       1.0  0.5997585390982821  0.4116571045645685  0.3689057732326262  1.0000
  H   H18       1.0  0.09977407733396866  0.5883406761995146  0.13107282928550032  1.0000
  H   H19       1.0  0.4002326129640537  0.5883476924536594  0.631086003007276  1.0000
  H   H20       1.0  0.900252958866972  0.4116476279527318  0.8689167133070868  1.0000
  H   H21       1.0  0.8750639743220463  0.535090499806813  0.4168541667147353  1.0000
  H   H22       1.0  0.37505230101457  0.4648947498285523  0.083144021521214  1.0000
  H   H23       1.0  0.12493401319170526  0.4649111157332371  0.5831489459853287  1.0000
  H   H24       1.0  0.6249696092162865  0.5350890260255241  0.9168579513652662  1.0000
  H   H25       1.0  0.780055067831704  0.6986201419375532  0.4040755773499428  1.0000
  H   H26       1.0  0.28001091594990163  0.30136981345125236  0.0959304186829328  1.0000
  H   H27       1.0  0.2199497550026664  0.3013843394855654  0.5959333349631566  1.0000
  H   H28       1.0  0.719969983591213  0.69861599579945  0.9040705276614461  1.0000
  H   H29       1.0  0.3758130530671906  0.7876607671279745  0.5479179267183625  1.0000
  H   H30       1.0  0.8758083024670853  0.2123352227235458  0.9520871471122521  1.0000
  H   H31       1.0  0.6241627202019586  0.21235234920939658  0.4520783456128471  1.0000
  H   H32       1.0  0.1241623448802613  0.7876597647740693  0.04792635015345327  1.0000
  H   H33       1.0  0.15666469393552526  0.6465274188246821  0.4978723924266647  1.0000
  H   H34       1.0  0.6566725399304119  0.3534677945235457  0.0021388268316328966  1.0000
  H   H35       1.0  0.8433127880446423  0.35348497110830823  0.5021219692049783  1.0000
  H   H36       1.0  0.34329810745392564  0.6465251727698696  0.9978763112462091  1.0000
  H   H37       1.0  0.779367428234714  0.6181579582400614  0.5610443472500606  1.0000
  H   H38       1.0  0.27937389905324755  0.3818384543660115  0.9389607469034049  1.0000
  H   H39       1.0  0.22061176245863126  0.3818502985274818  0.4389489951368192  1.0000
  H   H40       1.0  0.7206138356701645  0.6181555814762518  0.061040394733566906  1.0000
  H   H41       1.0  0.6233468619096812  0.7316859252788674  0.6748688800027765  1.0000
  H   H42       1.0  0.12335621889959475  0.26831738011767203  0.8251260555228372  1.0000
  H   H43       1.0  0.3766220760340318  0.26832568522959116  0.32512111325133475  1.0000
  H   H44       1.0  0.8766588560540359  0.7316765099989478  0.1748683276901986  1.0000
  H   H45       1.0  0.8387819478726899  0.8728788652668056  0.7218320299483453  1.0000
  H   H46       1.0  0.3387878028011572  0.12712561338178568  0.7781583067775558  1.0000
  H   H47       1.0  0.16118869897770344  0.1271301046439319  0.27816260870395143  1.0000
  H   H48       1.0  0.6612323986650497  0.8728683960044136  0.22184160614937554  1.0000
  C   C1        1.0  0.023144974152913313  0.07779360097506331  0.5532871093354715  1.0000
  C   C2        1.0  0.5231526201807029  0.9221986552875308  0.9467165042261174  1.0000
  C   C3        1.0  0.9768735198125785  0.9222326172493495  0.4467447846612913  1.0000
  C   C4        1.0  0.47687783315717525  0.07776210325116037  0.053266652981172107  1.0000
  C   C5        1.0  0.17546319240394584  0.05613598722044339  0.48831336350729526  1.0000
  C   C6        1.0  0.6754688667703307  0.943860640202004  0.011697505233811967  1.0000
  C   C7        1.0  0.8245706805782548  0.9438861508635907  0.5117199689343863  1.0000
  C   C8        1.0  0.32457696563944444  0.0561028914725341  0.9882871507409094  1.0000
  C   C9        1.0  0.383993071070755  0.7635123798825773  0.34395677600681307  1.0000
  C   C10       1.0  0.8839013313390398  0.23649777381378093  0.15605127517446252  1.0000
  C   C11       1.0  0.6160237133888062  0.23649767428793916  0.6560563625980792  1.0000
  C   C12       1.0  0.1160419747569108  0.7634994036985744  0.8439366866413069  1.0000
  C   C13       1.0  0.44830581561349453  0.666295362467984  0.35085497316438824  1.0000
  C   C14       1.0  0.9482681154538641  0.3337085312261792  0.1491406239022055  1.0000
  C   C15       1.0  0.5516938807308025  0.333711059643825  0.6491486118547771  1.0000
  C   C16       1.0  0.051709366366075905  0.6662873922919843  0.850852732780446  1.0000
  C   C17       1.0  0.293629212403907  0.5960865164501  0.3231894676802157  1.0000
  C   C18       1.0  0.7935977977596026  0.403930533284658  0.17680027371363147  1.0000
  C   C19       1.0  0.7063841539565987  0.4039224932760914  0.6768070143507076  1.0000
  C   C20       1.0  0.20638310148073916  0.596072797653818  0.8231870666695615  1.0000
  C   C21       1.0  0.3474552003753076  0.5047444592498138  0.32910701920015134  1.0000
  C   C22       1.0  0.8474572918227711  0.4952705129924339  0.17087490178614934  1.0000
  C   C23       1.0  0.6525564569219998  0.495263678302166  0.6708807936017751  1.0000
  C   C24       1.0  0.1525594918054126  0.5047301243920044  0.8291146264696396  1.0000
  C   C25       1.0  0.5556502471565566  0.48294524299361524  0.36396120747730987  1.0000
  C   C26       1.0  0.05565132499607022  0.5170552901157704  0.13602350641655653  1.0000
  C   C27       1.0  0.44435799280501703  0.5170596335573094  0.6360342552854092  1.0000
  C   C28       1.0  0.9443620409066968  0.48293705442523566  0.8639627545048614  1.0000
  C   C29       1.0  0.7110240121775963  0.5525493162721417  0.3911620230372109  1.0000
  C   C30       1.0  0.2110205523167608  0.4474406503974037  0.10882144828268281  1.0000
  C   C31       1.0  0.2889722663651499  0.4474562601657083  0.6088341215685062  1.0000
  C   C32       1.0  0.7889979400830569  0.5525449866396741  0.8911715108515281  1.0000
  C   C33       1.0  0.6588196226616249  0.6439784503268766  0.384230368287902  1.0000
  C   C34       1.0  0.15877417678206746  0.35601781115919806  0.11576564024915112  1.0000
  C   C35       1.0  0.34118349116206304  0.3560299654913308  0.6157703471094467  1.0000
  C   C36       1.0  0.8412118488899554  0.6439692256394594  0.884228682541746  1.0000
  C   C37       1.0  0.7565922064664792  0.07689071248164228  0.8320934647229452  1.0000
  C   C38       1.0  0.25659480719868816  0.9231095425622087  0.6679020474520245  1.0000
  C   C39       1.0  0.243427995282751  0.9231075758373919  0.16791422597231792  1.0000
  C   C40       1.0  0.7433912188072399  0.07689543996765737  0.3320983305201111  1.0000
  C   C41       1.0  0.12499512033205926  0.8379426308819831  0.6397808584607534  1.0000
  C   C42       1.0  0.6249973585332  0.16205751100445548  0.8602260391946148  1.0000
  C   C43       1.0  0.8749806530384137  0.1620671449511022  0.3602193773787549  1.0000
  C   C44       1.0  0.3750040467290746  0.8379346901722542  0.13978534505120171  1.0000
  C   C45       1.0  0.21174551817855305  0.7744302463035877  0.5756295992729579  1.0000
  C   C46       1.0  0.7117562809737594  0.22556585271442486  0.9243695013247547  1.0000
  C   C47       1.0  0.7882217113071449  0.22558362293105455  0.4243698125557672  1.0000
  C   C48       1.0  0.28824854155671187  0.7744234295885163  0.07563362570038382  1.0000
  C   C49       1.0  0.08812075558962114  0.6954567972671128  0.547792084046833  1.0000
  C   C50       1.0  0.5881191549570703  0.3045350518165009  0.9522162086068138  1.0000
  C   C51       1.0  0.9118652702629931  0.30455217266572987  0.4522025546582142  1.0000
  C   C52       1.0  0.4118651625496243  0.695455802532855  0.047796269455155  1.0000
  C   C53       1.0  0.8766100542925915  0.6795938533650343  0.5833909114785243  1.0000
  C   C54       1.0  0.3766260965866907  0.3204069851301624  0.9166164834360375  1.0000
  C   C55       1.0  0.12337597144851743  0.32041572371241495  0.4166001082356417  1.0000
  C   C56       1.0  0.6233958139603929  0.6795913164426891  0.08339182167578231  1.0000
  C   C57       1.0  0.7883712820889459  0.742971864861417  0.6466810325706975  1.0000
  C   C58       1.0  0.2883942355797872  0.25703328810777737  0.8533151699860613  1.0000
  C   C59       1.0  0.21160107344780954  0.25703772544774484  0.3533106015072748  1.0000
  C   C60       1.0  0.7116242571040845  0.7429675347981257  0.1466829600254016  1.0000
  C   C61       1.0  0.9117209309419396  0.8221992485073174  0.6744423366360693  1.0000
  C   C62       1.0  0.41171352962280156  0.1778055589966812  0.825554030088995  1.0000
  C   C63       1.0  0.08824458966122253  0.17781046105424278  0.3255548271147718  1.0000
  C   C64       1.0  0.5882776228356905  0.8221940495807019  0.17445133781046715  1.0000
  N   N1        1.0  0.8483069707958181  0.0213913410849358  0.5645662995708349  1.0000
  N   N2        1.0  0.34829856733597364  0.9786051636075471  0.9354343521588788  1.0000
  N   N3        1.0  0.15172348440681563  0.9786265578154243  0.4354610983228967  1.0000
  N   N4        1.0  0.6517438475826013  0.0213625012299872  0.06455132305474363  1.0000
  O   O1        1.0  0.5347376455439843  0.8265599688263234  0.3692913838847361  1.0000
  O   O2        1.0  0.03465785530445231  0.17344046673192542  0.13072322492609353  1.0000
  O   O3        1.0  0.4652825566571083  0.17344543779608299  0.6307286553470492  1.0000
  O   O4        1.0  0.9652991211518583  0.8265547568526586  0.8692694498022038  1.0000
  O   O5        1.0  0.1934481623755745  0.7825165597491831  0.315068826135203  1.0000
  O   O6        1.0  0.6933938669551483  0.21750668670818377  0.18493496666216205  1.0000
  O   O7        1.0  0.8065446995218369  0.21749848647526449  0.684953386450701  1.0000
  O   O8        1.0  0.30654602132477043  0.7824937252926885  0.81504411634797  1.0000
  O   O9        1.0  0.9056742479793558  0.051757884942468  0.8821315310318739  1.0000
  O   O10       1.0  0.40566035556829416  0.9482429310236212  0.6178711478695504  1.0000
  O   O11       1.0  0.0943527888599789  0.9482437968961149  0.11787465382133182  1.0000
  O   O12       1.0  0.5943410497502201  0.05176703036529769  0.3821376898076921  1.0000
  O   O13       1.0  0.7178362283399836  0.028893161193472797  0.7627037565197627  1.0000
  O   O14       1.0  0.21783890564629632  0.971105807938308  0.7373005710102947  1.0000
  O   O15       1.0  0.28215321553026484  0.9710949863062905  0.23731029489861302  1.0000
  O   O16       1.0  0.7821368676989879  0.028899861229582796  0.2626998743999991  1.0000
