data_image0
_chemical_formula_structural       CuH20C18N10O2
_chemical_formula_sum              "Cu1 H20 C18 N10 O2"
_cell_length_a       7.542964282673652
_cell_length_b       8.12821277612409
_cell_length_c       10.541538859578063
_cell_angle_alpha    89.83557498955592
_cell_angle_beta     110.21908247873544
_cell_angle_gamma    112.82848897366867

_space_group_name_H-M_alt    "P 1"
_space_group_IT_number       1

loop_
  _space_group_symop_operation_xyz
  'x, y, z'

loop_
  _atom_site_type_symbol
  _atom_site_label
  _atom_site_symmetry_multiplicity
  _atom_site_fract_x
  _atom_site_fract_y
  _atom_site_fract_z
  _atom_site_occupancy
  Cu  Cu1       1.0  0.9999992472255883  0.9999908704079278  0.9999974318181231  1.0000
  H   H1        1.0  0.8328557306772167  0.45867134546006855  0.49364018032857615  1.0000
  H   H2        1.0  0.16713531014228522  0.5413196606007064  0.5063592149505496  1.0000
  H   H3        1.0  0.5910408062303175  0.2902704383532324  0.3887549288320783  1.0000
  H   H4        1.0  0.40894998049067516  0.7097150293174863  0.6112368049261434  1.0000
  H   H5        1.0  0.16905101541881606  0.29427777030382873  0.2535652129931449  1.0000
  H   H6        1.0  0.8309509004823283  0.7057185152254919  0.7464337747770884  1.0000
  H   H7        1.0  0.3990820284856156  0.7002739216297373  0.032542851904274514  1.0000
  H   H8        1.0  0.6009274113775193  0.2997439685955286  0.9674559598202634  1.0000
  H   H9        1.0  0.23235827533621745  0.3880045186732986  0.7862034508861768  1.0000
  H   H10       1.0  0.7676308336433237  0.6120055408361438  0.21379839676561832  1.0000
  H   H11       1.0  0.05216300599077788  0.4792880877108845  0.7818973080724163  1.0000
  H   H12       1.0  0.9478526086945962  0.5207095237343753  0.2181113884283761  1.0000
  H   H13       1.0  0.980619210204566  0.24288952574374184  0.780106415748044  1.0000
  H   H14       1.0  0.019384493394063923  0.7571217222918776  0.21989679709405857  1.0000
  H   H15       1.0  0.3843014050349326  0.7397964601149313  0.34318699811620235  1.0000
  H   H16       1.0  0.6156968755434633  0.26020941342567033  0.6568149926089148  1.0000
  H   H17       1.0  0.6181379732657251  0.7430455325438957  0.33775676401452165  1.0000
  H   H18       1.0  0.38186628427332897  0.2569521587645839  0.66224749609313  1.0000
  H   H19       1.0  0.4727279244045306  0.5736177475337884  0.4127361563054066  1.0000
  H   H20       1.0  0.527273962455439  0.4263840075170153  0.5872656832076828  1.0000
  C   C1        1.0  0.6970654864742513  0.11961972827718635  0.2503150275411627  1.0000
  C   C2        1.0  0.3029165254344619  0.8803524006141432  0.7496842126614354  1.0000
  C   C3        1.0  0.7811985101171075  0.045155117302663  0.1817865997192385  1.0000
  C   C4        1.0  0.218814550211988  0.9548437749161778  0.8182148834709224  1.0000
  C   C5        1.0  0.48235345853662887  0.05315588162659421  0.21193759288648548  1.0000
  C   C6        1.0  0.5176443562882866  0.946853808424244  0.7880472140747798  1.0000
  C   C7        1.0  0.8373256178621065  0.2699280864230645  0.36224242375178767  1.0000
  C   C8        1.0  0.16265620891498853  0.7300522123162098  0.63775868917606  1.0000
  C   C9        1.0  0.18567347899658423  0.40748523793028824  0.9737648091061715  1.0000
  C   C10       1.0  0.8143459405043458  0.5925204479890526  0.026242854478148586  1.0000
  C   C11       1.0  0.32378914784248997  0.5715243065489946  0.062157371499431194  1.0000
  C   C12       1.0  0.6762175790561146  0.4285018492454499  0.9378474946079435  1.0000
  C   C13       1.0  0.34218476260026875  0.5354000257785856  0.19389974431997098  1.0000
  C   C14       1.0  0.6578218238467103  0.46460299800899924  0.8061003000061291  1.0000
  C   C15       1.0  0.10790643918318922  0.3762980619163018  0.8219009223579264  1.0000
  C   C16       1.0  0.8920983856986455  0.6237064354768692  0.1781053760360934  1.0000
  C   C17       1.0  0.4603746315569097  0.6540920348803283  0.3290445000642492  1.0000
  C   C18       1.0  0.5396266298779152  0.34591385312875644  0.6709610046481771  1.0000
  N   N1        1.0  0.7479204993490001  0.3385862004647466  0.42576840356150575  1.0000
  N   N2        1.0  0.2520674183170258  0.6614102331015986  0.5742284055619393  1.0000
  N   N3        1.0  0.8583739597181292  0.9820365855028754  0.1282297214226276  1.0000
  N   N4        1.0  0.1416334521423863  0.017963545473634202  0.8717591105583793  1.0000
  N   N5        1.0  0.30353690649254617  0.003235742867389002  0.1864687885265042  1.0000
  N   N6        1.0  0.6964545608271067  0.9967565584354433  0.8135269074293136  1.0000
  N   N7        1.0  0.12411107892954483  0.27699426486143613  0.0480936851003761  1.0000
  N   N8        1.0  0.8758991689725235  0.7230156070267526  0.9519138354106218  1.0000
  N   N9        1.0  0.22207153443643793  0.35661222608728593  0.1812605395379876  1.0000
  N   N10       1.0  0.7779439517452643  0.6433935689796257  0.8187509916436682  1.0000
  O   O1        1.0  0.03179229509334649  0.33123740011350833  0.39535045201473196  1.0000
  O   O2        1.0  0.9681795382525847  0.6687523612840849  0.6046399022041058  1.0000
