data_image0
_chemical_formula_structural       Zn4Mo2H16C24N4O18
_chemical_formula_sum              "Zn4 Mo2 H16 C24 N4 O18"
_cell_length_a       7.641147379089866
_cell_length_b       9.652606105131921
_cell_length_c       10.550735384835525
_cell_angle_alpha    94.23414757477629
_cell_angle_beta     105.22044737713615
_cell_angle_gamma    105.63721887875519

_space_group_name_H-M_alt    "P 1"
_space_group_IT_number       1

loop_
  _space_group_symop_operation_xyz
  'x, y, z'

loop_
  _atom_site_type_symbol
  _atom_site_label
  _atom_site_symmetry_multiplicity
  _atom_site_fract_x
  _atom_site_fract_y
  _atom_site_fract_z
  _atom_site_occupancy
  Zn  Zn1       1.0  0.7867645125764184  0.2736634442937246  0.8380098339119189  1.0000
  Zn  Zn2       1.0  0.21323545660920462  0.7263362901619032  0.1619890455536322  1.0000
  Zn  Zn3       1.0  0.18869904128820278  0.3895978191837557  0.3757535048033206  1.0000
  Zn  Zn4       1.0  0.811300479532271  0.6104008384515538  0.6242471174850054  1.0000
  Mo  Mo1       1.0  0.16027683474302992  0.4243803752351454  0.707253462712899  1.0000
  Mo  Mo2       1.0  0.8397240115042168  0.5756215493769048  0.2927476165029575  1.0000
  H   H1        1.0  0.9031600067339128  0.9337601680670605  0.1883502590823484  1.0000
  H   H2        1.0  0.09683993310181187  0.06624285140495088  0.8116497647018125  1.0000
  H   H3        1.0  0.6438677065397869  0.7150028616725236  0.04895178556525085  1.0000
  H   H4        1.0  0.3561344944841381  0.28499904489988387  0.9510486062595266  1.0000
  H   H5        1.0  0.43745791724956723  0.740732066177003  0.8330792576118997  1.0000
  H   H6        1.0  0.56254519346399  0.2592687394494817  0.1669212420786011  1.0000
  H   H7        1.0  0.250823753784985  0.7943926537245146  0.6686387899533772  1.0000
  H   H8        1.0  0.7491762055662933  0.205607098989006  0.33136293221010515  1.0000
  H   H9        1.0  0.08384234283469975  0.8609712785254825  0.4590218036711137  1.0000
  H   H10       1.0  0.9161576165165783  0.1390284741880379  0.5409799184923687  1.0000
  H   H11       1.0  0.22191370834008955  0.1056641911227487  0.3970890046208809  1.0000
  H   H12       1.0  0.778084019172887  0.8943333894739849  0.6029112051833679  1.0000
  H   H13       1.0  0.5939370066760148  0.4471639118188193  0.8750545195564006  1.0000
  H   H14       1.0  0.4060620560980936  0.5528369174967763  0.12494330447744773  1.0000
  H   H15       1.0  0.8181911905498608  0.5316922799275263  0.9257833190935901  1.0000
  H   H16       1.0  0.18180786894613024  0.4683085554740245  0.07421545250623755  1.0000
  C   C1        1.0  0.9928490672699722  0.2122582582222775  0.11728933646844554  1.0000
  C   C2        1.0  0.007146382817374774  0.7877436959465882  0.8827078593498857  1.0000
  C   C3        1.0  0.8405521891440629  0.0735607332290655  0.04355321365187593  1.0000
  C   C4        1.0  0.15944551557524278  0.9264401202121277  0.956446245339038  1.0000
  C   C5        1.0  0.8113138231354712  0.9419444782370475  0.093019197939313  1.0000
  C   C6        1.0  0.18868611342213631  0.0580585473209325  0.9069817734108272  1.0000
  C   C7        1.0  0.666610182477484  0.8206252218349804  0.015065183705921505  1.0000
  C   C8        1.0  0.33339066376976223  0.17937670277707699  0.9849358955099351  1.0000
  C   C9        1.0  0.5510748884795619  0.8349492684021271  0.8934659109074521  1.0000
  C   C10       1.0  0.44892687073543397  0.1650515491780311  0.10653432860814861  1.0000
  C   C11       1.0  0.5868998612896519  0.9712622183210156  0.8509392406195108  1.0000
  C   C12       1.0  0.4130987563974103  0.028737528088292694  0.1490593786711402  1.0000
  C   C13       1.0  0.4742778879413549  0.0019036936355973997  0.7246604656851263  1.0000
  C   C14       1.0  0.5257216328791117  0.9980949639997122  0.2753401566031998  1.0000
  C   C15       1.0  0.3077036715964567  0.9009180352171384  0.642173407832509  1.0000
  C   C16       1.0  0.6922981038559756  0.09907952169049139  0.3578294776283928  1.0000
  C   C17       1.0  0.21388354873973725  0.9387068946753414  0.5240140995305255  1.0000
  C   C18       1.0  0.7861155237155728  0.061290686139649594  0.4759882655805826  1.0000
  C   C19       1.0  0.28884946164127706  0.0741310664779533  0.49016069789207267  1.0000
  C   C20       1.0  0.711150055901079  0.925867597243325  0.5098408719622329  1.0000
  C   C21       1.0  0.45380766586826843  0.1711401145334008  0.5784223384341376  1.0000
  C   C22       1.0  0.5461905001755271  0.8288585611415442  0.4215789712452678  1.0000
  C   C23       1.0  0.5405639931648238  0.3191729734948795  0.5447157810470389  1.0000
  C   C24       1.0  0.45943688571043145  0.6808256600148257  0.45528320628422164  1.0000
  N   N1        1.0  0.7315823505395399  0.08536615119398762  0.924878663417552  1.0000
  N   N2        1.0  0.2684167056783267  0.9146346902935251  0.07512105574825514  1.0000
  N   N3        1.0  0.5420638013563633  0.13532767788444747  0.6934728326938997  1.0000
  N   N4        1.0  0.4579357227422136  0.8646709736649001  0.306526842028447  1.0000
  O   O1        1.0  0.3943678964268429  0.4684568854775931  0.810799888765175  1.0000
  O   O2        1.0  0.6056338073664661  0.5315504960493698  0.18920169182167978  1.0000
  O   O3        1.0  0.14713411501031  0.3423474580891863  0.5458805708437212  1.0000
  O   O4        1.0  0.8528708118044009  0.6576511517314145  0.45412109214419183  1.0000
  O   O5        1.0  0.007977058636257067  0.2919231791700411  0.7727466445836841  1.0000
  O   O6        1.0  0.9920242554916996  0.7080765555038369  0.22725439018871907  1.0000
  O   O7        1.0  0.08877111127187476  0.5840594976631123  0.69561449860678  1.0000
  O   O8        1.0  0.9112283834768037  0.41594243890261146  0.3043863204341761  1.0000
  O   O9        1.0  0.014979656368843996  0.31882298114027213  0.05487858189408713  1.0000
  O   O10       1.0  0.9850185195092891  0.6811756762767872  0.9451198850873798  1.0000
  O   O11       1.0  0.7219441237885532  0.43575465611548475  0.9212151734159594  1.0000
  O   O12       1.0  0.27805449717662606  0.5642450842078616  0.07878249830871203  1.0000
  O   O13       1.0  0.690992871050547  0.4007356515854709  0.6329904725202271  1.0000
  O   O14       1.0  0.30901119181500997  0.5992607437348525  0.3670052004534627  1.0000
  O   O15       1.0  0.46537863218866693  0.3506767919933793  0.43404566148768725  1.0000
  O   O16       1.0  0.5346204566572226  0.6493207583917951  0.5659519657935237  1.0000
  O   O17       1.0  0.0848997540606078  0.2097645507831558  0.23674748177451488  1.0000
  O   O18       1.0  0.9150907513569708  0.7902352734341777  0.7632505240327279  1.0000
