data_image0
_chemical_formula_structural       Zr12H32C96S24O64
_chemical_formula_sum              "Zr12 H32 C96 S24 O64"
_cell_length_a       16.47512477923028
_cell_length_b       16.475063327944163
_cell_length_c       23.29453677654522
_cell_angle_alpha    90.00148233135512
_cell_angle_beta     90.00272690702245
_cell_angle_gamma    90.00269776177974

_space_group_name_H-M_alt    "P 1"
_space_group_IT_number       1

loop_
  _space_group_symop_operation_xyz
  'x, y, z'

loop_
  _atom_site_type_symbol
  _atom_site_label
  _atom_site_symmetry_multiplicity
  _atom_site_fract_x
  _atom_site_fract_y
  _atom_site_fract_z
  _atom_site_occupancy
  Zr  Zr1       1.0  0.3925457016373386  0.39254737836756703  0.4999643337858047  1.0000
  Zr  Zr2       1.0  0.607446253592876  0.6074675463994126  0.5000476174725393  1.0000
  Zr  Zr3       1.0  0.4999561919698579  0.4999566190957836  0.607421933219868  1.0000
  Zr  Zr4       1.0  0.5000466870265471  0.5000206728014049  0.39256297291008485  1.0000
  Zr  Zr5       1.0  0.3925671506330417  0.6074430635697611  0.5000075115912851  1.0000
  Zr  Zr6       1.0  0.6074478688263839  0.3925494033836898  0.49999499557524274  1.0000
  Zr  Zr7       1.0  0.1074116610294595  0.8925011523954823  0.9999882183647772  1.0000
  Zr  Zr8       1.0  0.8925778650045189  0.1074882788639187  3.1269295845999926e-06  1.0000
  Zr  Zr9       1.0  0.10749246038152191  0.1074370199219246  4.572055177480001e-05  1.0000
  Zr  Zr10      1.0  0.8925019220998395  0.892583974249746  0.999942620116656  1.0000
  Zr  Zr11      1.0  0.999989234724211  0.9999585382623905  0.10744043459070701  1.0000
  Zr  Zr12      1.0  3.974501720449999e-05  3.27149931749e-05  0.892558209232817  1.0000
  H   H1        1.0  0.331054118180532  0.49998075002159237  0.5844239995093121  1.0000
  H   H2        1.0  0.5000198755815859  0.6689479096646946  0.41557506353889556  1.0000
  H   H3        1.0  0.6689168114460742  0.4999947746510641  0.5844623115415788  1.0000
  H   H4        1.0  0.5000046363375361  0.3310815289014145  0.41553677078096046  1.0000
  H   H5        1.0  0.16891675837342038  0.9999488710631753  0.08446398192020153  1.0000
  H   H6        1.0  0.8310526932691147  2.7786065857100004e-05  0.08442519536763633  1.0000
  H   H7        1.0  3.781950432820001e-05  0.1689538827022119  0.9155724466509627  1.0000
  H   H8        1.0  0.9999869566478667  0.8310817071299398  0.9155373800485693  1.0000
  H   H9        1.0  0.8896497687279137  0.3713203085151592  0.4995354935021582  1.0000
  H   H10       1.0  0.11035004710151242  0.6286800327990675  0.4995925595172396  1.0000
  H   H11       1.0  0.3713205546922751  0.8896515011810492  0.500407254015478  1.0000
  H   H12       1.0  0.6286811407814029  0.1103506930060476  0.5004645555566398  1.0000
  H   H13       1.0  0.6298977455791643  0.368882533632906  0.7592168817051573  1.0000
  H   H14       1.0  0.8692305147118164  0.13021378702862313  0.7408255722038819  1.0000
  H   H15       1.0  0.369203147760949  0.6302310077104281  0.24078388489459004  1.0000
  H   H16       1.0  0.12987462750013637  0.8689046101989961  0.2591730480857706  1.0000
  H   H17       1.0  0.36974017559656164  0.6307655388184019  0.7592148992021637  1.0000
  H   H18       1.0  0.13112302394952738  0.870152898315851  0.7408220659309354  1.0000
  H   H19       1.0  0.6311452681021876  0.37013255960433616  0.24078162090628308  1.0000
  H   H20       1.0  0.8697599916590448  0.1307439860074666  0.2591697319882798  1.0000
  H   H21       1.0  0.7596111917130273  0.7587088289224724  0.3695883539157237  1.0000
  H   H22       1.0  0.7411172750475856  0.740571161067777  0.13048116876510113  1.0000
  H   H23       1.0  0.2412711752386727  0.24040657527210393  0.6304111548276411  1.0000
  H   H24       1.0  0.2597669128019433  0.2585454570941366  0.8695166228791962  1.0000
  H   H25       1.0  0.6300447313356444  0.6309598288482476  0.7591402934269953  1.0000
  H   H26       1.0  0.8690488408399589  0.8699147331478585  0.7408160237779456  1.0000
  H   H27       1.0  0.36906773634063234  0.3699291232429828  0.24086048961063974  1.0000
  H   H28       1.0  0.13005877117411302  0.1309790746682822  0.25918561779280946  1.0000
  H   H29       1.0  0.6103695223243831  0.12867919955851193  0.9995917476083065  1.0000
  H   H30       1.0  0.3896323785217888  0.8713230441954777  0.9995330099269143  1.0000
  H   H31       1.0  0.128621877037645  0.38964524434700826  0.0006166023887317  1.0000
  H   H32       1.0  0.8713759125627835  0.6103617240676797  0.0002559269867604001  1.0000
  C   C1        1.0  0.227342140355077  0.5003682278587291  0.49797151507283405  1.0000
  C   C2        1.0  0.49963008490909994  0.7726595535298059  0.5020250311972206  1.0000
  C   C3        1.0  0.7726581788661876  0.4996356989812298  0.4980755580690329  1.0000
  C   C4        1.0  0.5003650374301074  0.22734026893667897  0.501927328876171  1.0000
  C   C5        1.0  0.3655002870305424  0.3614470755677672  0.6361281390771368  1.0000
  C   C6        1.0  0.3618329749595404  0.3658644437242842  0.3634903717078545  1.0000
  C   C7        1.0  0.6385552742529229  0.6345017994418286  0.36387268195635875  1.0000
  C   C8        1.0  0.6341408952556336  0.6381588685434495  0.6365095286128196  1.0000
  C   C9        1.0  0.3658357956353697  0.6381179549800821  0.6365513754664747  1.0000
  C   C10       1.0  0.6340894746135746  0.3618151654329084  0.6365512158753861  1.0000
  C   C11       1.0  0.638181108974159  0.3658994767778908  0.36344393802738745  1.0000
  C   C12       1.0  0.36188663424718476  0.6341699380161431  0.3634481816567786  1.0000
  C   C13       1.0  0.13404086244582197  0.8617729019569822  0.1365194012240423  1.0000
  C   C14       1.0  0.8658853553251901  0.13815649390534904  0.13651822928869714  1.0000
  C   C15       1.0  0.8619303904234457  0.1342055246046954  0.8634791375948938  1.0000
  C   C16       1.0  0.13814126133971166  0.8658736846965452  0.863481377337287  1.0000
  C   C17       1.0  0.27265656974140035  0.9996281163845427  0.9980717868093691  1.0000
  C   C18       1.0  0.9996612114101497  0.7273385287698702  0.0019393785339545007  1.0000
  C   C19       1.0  0.7273421925852331  0.0003758918677761  0.997971561485173  1.0000
  C   C20       1.0  0.0003397169263337  0.27266728223437303  0.0020205700806599004  1.0000
  C   C21       1.0  0.13419074485386065  0.1381198450887169  0.1365419744920473  1.0000
  C   C22       1.0  0.1385908185292379  0.1344725675685581  0.8638370100817384  1.0000
  C   C23       1.0  0.8617970856443833  0.8658980046905144  0.8634570674431858  1.0000
  C   C24       1.0  0.8654641358770335  0.8614866259732068  0.13615951818388797  1.0000
  C   C25       1.0  0.9126750293837915  0.433161585917766  0.49963647025137464  1.0000
  C   C26       1.0  0.08732721995381351  0.5668351166797905  0.4996607211465901  1.0000
  C   C27       1.0  0.8617622512209238  0.49999471856444433  0.499104340471412  1.0000
  C   C28       1.0  0.13823874496210925  0.5000031766334772  0.4990269122986463  1.0000
  C   C29       1.0  0.005215601689414501  0.5426657571057802  0.5000549190438904  1.0000
  C   C30       1.0  0.9947860666720416  0.45733460143221566  0.500012410036149  1.0000
  C   C31       1.0  0.43316341814358594  0.9126744151711536  0.5003381026919911  1.0000
  C   C32       1.0  0.5668388785718436  0.0873253480325005  0.5003649977822989  1.0000
  C   C33       1.0  0.4999957255948929  0.8617620835573091  0.5009715280790914  1.0000
  C   C34       1.0  0.5000060033766545  0.1382377009589959  0.5008975110035723  1.0000
  C   C35       1.0  0.5426653404362938  0.005215224186535701  0.4999877858823469  1.0000
  C   C36       1.0  0.4573338955153972  0.9947863457845542  0.4999447476133555  1.0000
  C   C37       1.0  0.6725191444986436  0.3266593686575945  0.7398105164482871  1.0000
  C   C38       1.0  0.8267942475878415  0.1726220845557336  0.7602276494182265  1.0000
  C   C39       1.0  0.6799287447553725  0.3182202588814961  0.6809345273144063  1.0000
  C   C40       1.0  0.8182768916417302  0.1799953149967735  0.8191040394421307  1.0000
  C   C41       1.0  0.7739803649168806  0.22612238190141912  0.7312612307999444  1.0000
  C   C42       1.0  0.7260954065848041  0.27391295598015125  0.7687833940727277  1.0000
  C   C43       1.0  0.326758382893459  0.6726289864988644  0.2601906840087694  1.0000
  C   C44       1.0  0.17248388669295883  0.8266674845080786  0.23977011677850876  1.0000
  C   C45       1.0  0.31825073778590246  0.6799718682400948  0.3190653567776281  1.0000
  C   C46       1.0  0.17989712778931022  0.8181846724138424  0.18089455659128362  1.0000
  C   C47       1.0  0.22606318378426243  0.7739338183446096  0.2687378431481805  1.0000
  C   C48       1.0  0.2739414652700276  0.7261365673748942  0.23121696755755045  1.0000
  C   C49       1.0  0.3273541965885158  0.6732235067683378  0.739803585160715  1.0000
  C   C50       1.0  0.1733347965481329  0.8275207234386885  0.7602247897425799  1.0000
  C   C51       1.0  0.32003714561469815  0.6817557605052116  0.6809292205879062  1.0000
  C   C52       1.0  0.1817529264235773  0.8200446373268733  0.8191039046466031  1.0000
  C   C53       1.0  0.22607753299266883  0.773953204125327  0.731255304519536  1.0000
  C   C54       1.0  0.2738405833294594  0.7260365343846544  0.7687747676479334  1.0000
  C   C55       1.0  0.673360075752207  0.327501598833031  0.2601886376321687  1.0000
  C   C56       1.0  0.8273758339094854  0.17320498903131926  0.23976614513894395  1.0000
  C   C57       1.0  0.6817721365695489  0.320061324198285  0.31906345990963564  1.0000
  C   C58       1.0  0.8200727448193774  0.1817991548389557  0.18089135208234103  1.0000
  C   C59       1.0  0.7738652551701719  0.22600830500137192  0.268733464021537  1.0000
  C   C60       1.0  0.7261131306961203  0.2739359006257445  0.23121528903260474  1.0000
  C   C61       1.0  0.74013449483315  0.7394141932951612  0.3271469970559765  1.0000
  C   C62       1.0  0.7605369176686239  0.7599386325633688  0.17291479819730435  1.0000
  C   C63       1.0  0.6818303859202928  0.6799980320631392  0.3191676359476361  1.0000
  C   C64       1.0  0.8199972878915534  0.8182070255513665  0.18088429470493855  1.0000
  C   C65       1.0  0.7312326404950511  0.7313265820687178  0.22608487948637196  1.0000
  C   C66       1.0  0.7687049549431961  0.7687424603026328  0.27396703640965114  1.0000
  C   C67       1.0  0.2605682115613633  0.2598851209384918  0.6728499346350533  1.0000
  C   C68       1.0  0.2401755003219606  0.23936189583124454  0.8270808458126598  1.0000
  C   C69       1.0  0.32000915915253364  0.3181626183424839  0.6808305923144433  1.0000
  C   C70       1.0  0.18183740173248708  0.1799712270687976  0.8191122164956468  1.0000
  C   C71       1.0  0.26871500587609637  0.26872840188509173  0.7739098999845311  1.0000
  C   C72       1.0  0.23124087060125478  0.23131555851371394  0.7260286016287908  1.0000
  C   C73       1.0  0.6725606867366454  0.6732911166701925  0.739750154245364  1.0000
  C   C74       1.0  0.8267004069277705  0.827409853735958  0.7602147498948926  1.0000
  C   C75       1.0  0.679977362516823  0.6817927613511755  0.6808730323646657  1.0000
  C   C76       1.0  0.8181778485570065  0.8200626550146948  0.819089288014297  1.0000
  C   C77       1.0  0.7739362035100612  0.7738853733699782  0.7312181615569388  1.0000
  C   C78       1.0  0.7260763081639824  0.7260629619943445  0.7687420262066169  1.0000
  C   C79       1.0  0.3267277998143996  0.327420602061416  0.2602536351296153  1.0000
  C   C80       1.0  0.17258383085115273  0.17330247189711662  0.23979032726975194  1.0000
  C   C81       1.0  0.3181955288895041  0.32003394953751757  0.3191277434393954  1.0000
  C   C82       1.0  0.179999898498636  0.1817531304403559  0.18091449276796115  1.0000
  C   C83       1.0  0.22610309429067854  0.22607735224382708  0.26878477503129267  1.0000
  C   C84       1.0  0.273969059351586  0.2738943010080135  0.231263486145032  1.0000
  C   C85       1.0  0.5873315209997259  0.06684095987074562  0.9996616261841853  1.0000
  C   C86       1.0  0.4126703856240113  0.9331625009643574  0.9996339868740024  1.0000
  C   C87       1.0  0.6382412250518  1.0233706028400001e-05  0.9990261001758756  1.0000
  C   C88       1.0  0.36175942825941837  0.9999907778225322  0.9991014277950543  1.0000
  C   C89       1.0  0.4947805518313403  0.9573378628503874  9.7879206038e-06  1.0000
  C   C90       1.0  0.5052202453766553  0.04266605596010461  5.4397435931700014e-05  1.0000
  C   C91       1.0  0.0668049750324542  0.41267799133963473  0.000423452963318  1.0000
  C   C92       1.0  0.933199485998287  0.5873326161709684  0.0002889531761525001  1.0000
  C   C93       1.0  0.9999505966680932  0.3617696645511188  0.0009478242989900001  1.0000
  C   C94       1.0  5.329622984360001e-05  0.6382367152694997  0.0009219347058647004  1.0000
  C   C95       1.0  0.9573378345836261  0.505215820916078  0.9999337280241465  1.0000
  C   C96       1.0  0.0426680784874236  0.4947978888259782  1.8106914367999997e-06  1.0000
  S   S1        1.0  0.913076342927127  0.5923045333565611  0.4995722523561597  1.0000
  S   S2        1.0  0.08691800310108991  0.40769580401281763  0.4993471679613393  1.0000
  S   S3        1.0  0.592303356040503  0.9130830217668021  0.5006524458141756  1.0000
  S   S4        1.0  0.40769531176098883  0.0869258529381298  0.5004288549483178  1.0000
  S   S5        1.0  0.7521716543870199  0.24689196442098188  0.6603985156463283  1.0000
  S   S6        1.0  0.7468722352578326  0.252153368201455  0.8396490877987264  1.0000
  S   S7        1.0  0.24678963121765216  0.7520807547455776  0.3396018180302392  1.0000
  S   S8        1.0  0.2520781245136092  0.7468059972167467  0.1603525334274067  1.0000
  S   S9        1.0  0.24794885050807383  0.7532447634827193  0.6603925157361132  1.0000
  S   S10       1.0  0.2530066106970779  0.7477368014587569  0.8396405879604529  1.0000
  S   S11       1.0  0.7530804495961902  0.24779719198087946  0.33959756883149345  1.0000
  S   S12       1.0  0.748037864356263  0.25332943347186887  0.16034906779947994  1.0000
  S   S13       1.0  0.6608995824882911  0.6599113258208077  0.2473592757558478  1.0000
  S   S14       1.0  0.8401402547004578  0.8390487938192237  0.25269350711586475  1.0000
  S   S15       1.0  0.34014787800308  0.3390426261048632  0.752638946433315  1.0000
  S   S16       1.0  0.16089567355329853  0.1599172974016057  0.7473051442754723  1.0000
  S   S17       1.0  0.7521605069204114  0.7531837956845633  0.6603447646974419  1.0000
  S   S18       1.0  0.7467109181745782  0.7479420500038217  0.8396145560641771  1.0000
  S   S19       1.0  0.246788081267887  0.24786964360956187  0.33965816351301475  1.0000
  S   S20       1.0  0.2522455604126463  0.25309560809672865  0.16039094784592586  1.0000
  S   S21       1.0  0.586915497816868  0.9076996244269748  0.9993456310916288  1.0000
  S   S22       1.0  0.41307971930594084  0.09230140142911843  0.9995722108509856  1.0000
  S   S23       1.0  0.9076544609787405  0.4130977865637533  0.00047924896382060003  1.0000
  S   S24       1.0  0.0923494056286103  0.586913434726327  0.0006057767295076002  1.0000
  O   O1        1.0  0.262517170245097  0.43095323548323716  0.49784526214548225  1.0000
  O   O2        1.0  0.5690448202996023  0.7374843904832177  0.5021507996268397  1.0000
  O   O3        1.0  0.7374825354568842  0.5690512947554185  0.4980069155083484  1.0000
  O   O4        1.0  0.4309503085541664  0.26251543552466944  0.5019951680743022  1.0000
  O   O5        1.0  0.4179114081278784  0.4135983476453333  0.6533223707586231  1.0000
  O   O6        1.0  0.41390789260565697  0.4180836688233356  0.3463739783150786  1.0000
  O   O7        1.0  0.5864075742964303  0.5820871050848807  0.34667544730177724  1.0000
  O   O8        1.0  0.5819203068466622  0.5860895634954844  0.6536220573587103  1.0000
  O   O9        1.0  0.34879845666723247  0.655391796666649  0.584264738038691  1.0000
  O   O10       1.0  0.6511676051227583  0.3445788655899946  0.5842674125913734  1.0000
  O   O11       1.0  0.6554199685964478  0.34882897741429986  0.41572886356630084  1.0000
  O   O12       1.0  0.3446100180762528  0.6512089653712466  0.41573283836585523  1.0000
  O   O13       1.0  0.5818367384454107  0.4138510734936176  0.653632500140752  1.0000
  O   O14       1.0  0.5861433118684617  0.41815631199329323  0.3463631405748232  1.0000
  O   O15       1.0  0.4139888365293558  0.5819780329472977  0.3463595955822286  1.0000
  O   O16       1.0  0.4180223055855592  0.5860128678765124  0.6536390453734953  1.0000
  O   O17       1.0  0.3485204130464794  0.34435504396972044  0.5839716909080794  1.0000
  O   O18       1.0  0.6511646023500858  0.6553898097126732  0.584223464039873  1.0000
  O   O19       1.0  0.6556504709143454  0.651480935834442  0.4160278431778082  1.0000
  O   O20       1.0  0.34461079159126473  0.34883744245460246  0.4157755762358661  1.0000
  O   O21       1.0  0.5696090445964188  0.26243190236121455  0.5020116673480501  1.0000
  O   O22       1.0  0.2624342477938555  0.5696100622776257  0.49795685560876296  1.0000
  O   O23       1.0  0.4303903299814777  0.737567922058453  0.502042004105384  1.0000
  O   O24       1.0  0.7375672819418568  0.4303902209015292  0.4979906233525001  1.0000
  O   O25       1.0  0.50003449583631  0.37916797441558714  0.43950677994880044  1.0000
  O   O26       1.0  0.6208289632473268  0.49996649707240687  0.5604919332385309  1.0000
  O   O27       1.0  0.5000189439479996  0.6208775164184248  0.43956007600928615  1.0000
  O   O28       1.0  0.3791251778861167  0.49998144310794157  0.5604432198397691  1.0000
  O   O29       1.0  0.49996710506462705  0.5891800139778881  0.5446239048666613  1.0000
  O   O30       1.0  0.41082641133296244  0.5000306468863017  0.45537877552326494  1.0000
  O   O31       1.0  0.5892299180811307  0.5000251364747613  0.4554423072174104  1.0000
  O   O32       1.0  0.49997322114789716  0.4107709869093413  0.5445557335117286  1.0000
  O   O33       1.0  0.1510643648727168  0.8445244612770113  0.08423602619476611  1.0000
  O   O34       1.0  0.8489044652667986  0.15543640671598521  0.08423245143691102  1.0000
  O   O35       1.0  0.8447090093390557  0.15125790676702877  0.9157633660705573  1.0000
  O   O36       1.0  0.15532488574746142  0.848781939843903  0.9157684481782484  1.0000
  O   O37       1.0  0.2375010868288925  0.06906940746811331  0.998009879449377  1.0000
  O   O38       1.0  0.9304079339157595  0.7624117259148236  0.0019552760065551  1.0000
  O   O39       1.0  0.7624982764060348  0.9309370253808639  0.9978514519503963  1.0000
  O   O40       1.0  0.069594818409719  0.23759530073716212  0.0020948225429933  1.0000
  O   O41       1.0  0.0819355588540063  0.0860748180454607  0.15363819003997753  1.0000
  O   O42       1.0  0.08642612472080911  0.08208275938605418  0.8466659617663626  1.0000
  O   O43       1.0  0.9138956756073285  0.918095986535121  0.8463634263703528  1.0000
  O   O44       1.0  0.9178922513015948  0.9136184748662617  0.15333786642109004  1.0000
  O   O45       1.0  0.15576067309751102  0.15145291960404708  0.9159883090039573  1.0000
  O   O46       1.0  0.8445184538373098  0.848887390449157  0.9157396954598627  1.0000
  O   O47       1.0  0.8484181016316159  0.8443915580142374  0.08400779101083343  1.0000
  O   O48       1.0  0.15126786526533212  0.15532590144344746  0.08425719844599663  1.0000
  O   O49       1.0  0.23755110578386518  0.930409951827869  0.9979791249638695  1.0000
  O   O50       1.0  0.9309376095450473  0.2374680834035487  0.0021003027869639  1.0000
  O   O51       1.0  0.7624500806322345  0.0695934474384998  0.9979513213568939  1.0000
  O   O52       1.0  0.06906636051706981  0.7625359104838837  0.0020644149051634  1.0000
  O   O53       1.0  0.08613320582026059  0.918151157477368  0.8463795455990283  1.0000
  O   O54       1.0  0.08181908351632931  0.9138428018802148  0.15362086272606496  1.0000
  O   O55       1.0  0.9180445515354521  0.08602530653131171  0.15362907989833022  1.0000
  O   O56       1.0  0.9140028496912012  0.0819856975519855  0.8463742379265113  1.0000
  O   O57       1.0  0.999961581287657  0.8791687582745596  0.9395048125811204  1.0000
  O   O58       1.0  9.272958985210001e-05  0.12088288377697148  0.9395566014852225  1.0000
  O   O59       1.0  0.8791207175651082  1.5732418368900004e-05  0.060437546967101206  1.0000
  O   O60       1.0  0.12082891064655853  0.9999394098163847  0.0604944623597206  1.0000
  O   O61       1.0  3.273586119689999e-05  0.08918165780423952  0.04462286713753371  1.0000
  O   O62       1.0  0.9999115750337212  0.9107668337846277  0.04455877896600671  1.0000
  O   O63       1.0  0.910823429541054  7.897829094359998e-05  0.9553758172601621  1.0000
  O   O64       1.0  0.08923134290603228  0.9999774934132902  0.9554389649275098  1.0000
