data_image0
_chemical_formula_structural       Ag4H16C20S4N4O12
_chemical_formula_sum              "Ag4 H16 C20 S4 N4 O12"
_cell_length_a       5.101617390378078
_cell_length_b       10.812850547800577
_cell_length_c       12.714639151541995
_cell_angle_alpha    112.47733371310987
_cell_angle_beta     90.00131592410894
_cell_angle_gamma    89.99996601172134

_space_group_name_H-M_alt    "P 1"
_space_group_IT_number       1

loop_
  _space_group_symop_operation_xyz
  'x, y, z'

loop_
  _atom_site_type_symbol
  _atom_site_label
  _atom_site_symmetry_multiplicity
  _atom_site_fract_x
  _atom_site_fract_y
  _atom_site_fract_z
  _atom_site_occupancy
  Ag  Ag1       1.0  0.7778798411872219  0.9453969676695951  0.8728715015618038  1.0000
  Ag  Ag2       1.0  0.27789080281862516  0.054603983385355506  0.627123871602457  1.0000
  Ag  Ag3       1.0  0.22206851299030464  0.054611668163978826  0.12713396480390324  1.0000
  Ag  Ag4       1.0  0.7221281168966058  0.9454047229816002  0.37287060722582777  1.0000
  H   H1        1.0  0.36497457962180146  0.5872335448521185  0.020434965841666  1.0000
  H   H2        1.0  0.864970644926615  0.4127664709827599  0.47956708716139224  1.0000
  H   H3        1.0  0.6349992568034893  0.4127590171616902  0.979574649133852  1.0000
  H   H4        1.0  0.13499535032271842  0.5872312209162729  0.5204245532959035  1.0000
  H   H5        1.0  0.031687214094340305  0.5021103769351996  0.8656744184641668  1.0000
  H   H6        1.0  0.5316984066381494  0.4979113837091164  0.6343397253278198  1.0000
  H   H7        1.0  0.9682709410925769  0.4978841766844228  0.13433742484667732  1.0000
  H   H8        1.0  0.46829699147343723  0.5021032623421819  0.365666932585981  1.0000
  H   H9        1.0  0.9781066079322404  0.6240949658510859  0.7313438795274864  1.0000
  H   H10       1.0  0.4781135102779502  0.3759108580991112  0.7686612065076517  1.0000
  H   H11       1.0  0.021900551174468305  0.3758905953334947  0.2686626452648753  1.0000
  H   H12       1.0  0.5219112903980802  0.6240997494429835  0.23134962808330783  1.0000
  H   H13       1.0  0.2786249783557652  0.8130148828193953  0.752394261996223  1.0000
  H   H14       1.0  0.7785961860084  0.18697304040839674  0.747599976579224  1.0000
  H   H15       1.0  0.7213880607013508  0.18695876371644726  0.2475933983627527  1.0000
  H   H16       1.0  0.22140901278695682  0.8130346148135458  0.252402021325608  1.0000
  C   C1        1.0  0.49516254956138545  0.7427821455385841  0.9657119712897498  1.0000
  C   C2        1.0  0.9951722394389863  0.2572198430016216  0.5342778503164071  1.0000
  C   C3        1.0  0.5048465696012273  0.25720945592119193  0.03429103570795181  1.0000
  C   C4        1.0  0.0048427598667971005  0.7427818624515012  0.46571353813187233  1.0000
  C   C5        1.0  0.3409682030688829  0.6337935512011869  0.9589680620025335  1.0000
  C   C6        1.0  0.8409585110499762  0.36620764120831245  0.5410350416338973  1.0000
  C   C7        1.0  0.6590507169544538  0.36620606208644807  0.04103679506312831  1.0000
  C   C8        1.0  0.15904080716277494  0.6337970265381047  0.4589636136125321  1.0000
  C   C9        1.0  0.15348990334105392  0.5876971430089313  0.8728511523290693  1.0000
  C   C10       1.0  0.6534988541945099  0.41231619859974705  0.627155820880759  1.0000
  C   C11       1.0  0.8464878532292915  0.41230348108584985  0.12715246417588594  1.0000
  C   C12       1.0  0.34650634465513264  0.5876924474162594  0.372848076083919  1.0000
  C   C13       1.0  0.12581215154006034  0.6534212101284994  0.7982513813715856  1.0000
  C   C14       1.0  0.6258059304571547  0.3465760122408455  0.7017468900320553  1.0000
  C   C15       1.0  0.8742008876291508  0.3465574255642352  0.2017402803314283  1.0000
  C   C16       1.0  0.3742031887370771  0.6534296211886643  0.29825758857974455  1.0000
  C   C17       1.0  0.29107765085285564  0.7606861292080326  0.8102600485968312  1.0000
  C   C18       1.0  0.7910767828623765  0.23931285998282453  0.689737944708881  1.0000
  C   C19       1.0  0.7089177470869289  0.23929847131564952  0.18973986796906675  1.0000
  C   C20       1.0  0.20893037607289247  0.7606948002702156  0.3102632683555698  1.0000
  S   S1        1.0  0.7192109608416857  0.8112557504051031  0.08386391502995146  1.0000
  S   S2        1.0  0.21918946806096787  0.18874056035915746  0.41614188770333277  1.0000
  S   S3        1.0  0.28078051648911645  0.18873292387221602  0.9161263310382638  1.0000
  S   S4        1.0  0.7808059298597598  0.8112731250579587  0.5838581620461555  1.0000
  N   N1        1.0  0.47565282698170824  0.804211412313457  0.8920765109440155  1.0000
  N   N2        1.0  0.9756335612829689  0.195780468991785  0.6079113803842375  1.0000
  N   N3        1.0  0.524356291699192  0.19575121483914165  0.10790909615373323  1.0000
  N   N4        1.0  0.024361836576424895  0.8042262104937594  0.39208636385671286  1.0000
  O   O1        1.0  0.925916793389547  0.8797893539482828  0.045639904400985615  1.0000
  O   O2        1.0  0.42591330634822816  0.12022202349868394  0.4543546430224056  1.0000
  O   O3        1.0  0.07407468400258921  0.12020632626060751  0.9543526471757673  1.0000
  O   O4        1.0  0.5740938523577911  0.8798037374599874  0.5456391560299353  1.0000
  O   O5        1.0  0.8099927868280049  0.6976258878662663  0.10877641334113974  1.0000
  O   O6        1.0  0.30994810818874197  0.3023668771619442  0.3912219678594298  1.0000
  O   O7        1.0  0.19002025264948944  0.302369727045182  0.8912263414092436  1.0000
  O   O8        1.0  0.6900316085443735  0.697646783086313  0.6087820060608848  1.0000
  O   O9        1.0  0.5566690437249804  0.9061623296145106  0.17654540322988063  1.0000
  O   O10       1.0  0.05668348896835341  0.09384927136175493  0.32346159659903856  1.0000
  O   O11       1.0  0.4433145931915875  0.09384033137490633  0.8234533780676898  1.0000
  O   O12       1.0  0.943362873322073  0.906167391580006  0.6765433657486285  1.0000
