data_image0
_chemical_formula_structural       Cd4H104C132O48
_chemical_formula_sum              "Cd4 H104 C132 O48"
_cell_length_a       16.231356405268727
_cell_length_b       16.230966155099626
_cell_length_c       27.39672712403342
_cell_angle_alpha    83.8959295769632
_cell_angle_beta     83.89472152770028
_cell_angle_gamma    72.86693616617595

_space_group_name_H-M_alt    "P 1"
_space_group_IT_number       1

loop_
  _space_group_symop_operation_xyz
  'x, y, z'

loop_
  _atom_site_type_symbol
  _atom_site_label
  _atom_site_symmetry_multiplicity
  _atom_site_fract_x
  _atom_site_fract_y
  _atom_site_fract_z
  _atom_site_occupancy
  Cd  Cd1       1.0  0.07372371522266259  0.6534913088711035  0.8175995626830923  1.0000
  Cd  Cd2       1.0  0.3464903063621064  0.926285574010919  0.6824042451436725  1.0000
  Cd  Cd3       1.0  0.9262793960221886  0.34651276630549444  0.1824037272353536  1.0000
  Cd  Cd4       1.0  0.6535076420028146  0.07371456402794514  0.3175955233060036  1.0000
  H   H1        1.0  0.32433339355979734  0.6732196710276169  0.9074205663919767  1.0000
  H   H2        1.0  0.38709082436444936  0.6742890444009648  0.986359737718814  1.0000
  H   H3        1.0  0.17093178333362155  0.6038266551902683  0.0662820878076431  1.0000
  H   H4        1.0  0.1069725329500884  0.6070293759937186  0.9863081379951735  1.0000
  H   H5        1.0  0.36477897968125467  0.7408288722106705  0.0582509408637577  1.0000
  H   H6        1.0  0.43854501804846546  0.6367227298499502  0.07386985835071867  1.0000
  H   H7        1.0  0.35478713879737  0.6304525730698742  0.20884585297261535  1.0000
  H   H8        1.0  0.32222213986984377  0.5855515306195754  0.15950851240433644  1.0000
  H   H9        1.0  0.34910542647237724  0.4870543872126589  0.2213467500625157  1.0000
  H   H10       1.0  0.3943347296557036  0.34135476080394517  0.2591703236043372  1.0000
  H   H11       1.0  0.6559475045575527  0.31069287371202137  0.1930432994069022  1.0000
  H   H12       1.0  0.6089370391346023  0.45924118369069344  0.15385152542683034  1.0000
  H   H13       1.0  0.22088184257035695  0.7382466742938762  0.1398917383049465  1.0000
  H   H14       1.0  0.26461521917707387  0.7799605607609267  0.18650580390355737  1.0000
  H   H15       1.0  0.13546366118674774  0.8766949238250633  0.187587250859039  1.0000
  H   H16       1.0  0.047078425165786114  0.0265051421563314  0.20360860497007846  1.0000
  H   H17       1.0  0.19699668991437852  0.12814596116130164  0.08588315519403267  1.0000
  H   H18       1.0  0.28422411520747204  0.9796706669612262  0.0697565413427981  1.0000
  H   H19       1.0  0.4967909702795055  0.6950486313944778  0.141453528405826  1.0000
  H   H20       1.0  0.42806370583873143  0.8014388496405331  0.12499986039696859  1.0000
  H   H21       1.0  0.3747379603972122  0.81606827635985  0.28322873544966837  1.0000
  H   H22       1.0  0.44836073228673723  0.906410060746779  0.32214568025256796  1.0000
  H   H23       1.0  0.6276412324167354  0.8953428112725773  0.1949858628144554  1.0000
  H   H24       1.0  0.5566720972955252  0.8050818612526031  0.15557174079989974  1.0000
  H   H25       1.0  0.44396592136178015  0.2293326899217974  0.2791283866468318  1.0000
  H   H26       1.0  0.15493547564761198  0.2229096074441514  0.12837422236379575  1.0000
  H   H27       1.0  0.32678386703866386  0.6756544408407594  0.5925801776773196  1.0000
  H   H28       1.0  0.3257136725967485  0.612901925929478  0.5136389020820076  1.0000
  H   H29       1.0  0.39616895785172807  0.8290724354750411  0.4337234129944036  1.0000
  H   H30       1.0  0.39296354295107966  0.893028271501315  0.5137004479129956  1.0000
  H   H31       1.0  0.259178497594668  0.6352108092485623  0.44175176106625696  1.0000
  H   H32       1.0  0.3632854963257729  0.5614516669640897  0.42612792125922977  1.0000
  H   H33       1.0  0.3695433766509808  0.6452163652354131  0.291154943120631  1.0000
  H   H34       1.0  0.4144435302196215  0.6777830934978369  0.3404910585324216  1.0000
  H   H35       1.0  0.5129433564761499  0.6508967877081987  0.2786483315472025  1.0000
  H   H36       1.0  0.6586464502255751  0.6056647070701262  0.2408296218143135  1.0000
  H   H37       1.0  0.6893052557877868  0.34404927424792225  0.3069582458861858  1.0000
  H   H38       1.0  0.5407542227364175  0.39106195183422454  0.34614444783560566  1.0000
  H   H39       1.0  0.2617555720112463  0.7791179529525254  0.36010947381967634  1.0000
  H   H40       1.0  0.2200273984962706  0.7353809520009237  0.3135018433771748  1.0000
  H   H41       1.0  0.12330569698676902  0.8645403113266211  0.31242813007610687  1.0000
  H   H42       1.0  0.9734986379819547  0.9529176643634755  0.2964065719895785  1.0000
  H   H43       1.0  0.8718610622360928  0.8029913786238935  0.41412793553855914  1.0000
  H   H44       1.0  0.020335030786362996  0.7157707543855096  0.43025655490293246  1.0000
  H   H45       1.0  0.3049599024156038  0.5032008040576555  0.35854888258072026  1.0000
  H   H46       1.0  0.1985655339499885  0.5719289729809847  0.3749984476795447  1.0000
  H   H47       1.0  0.18394979162069805  0.6252552481211994  0.21677255056379605  1.0000
  H   H48       1.0  0.09359999648261662  0.5516409529791774  0.1778564249062669  1.0000
  H   H49       1.0  0.1046594724734149  0.3723577391221298  0.3050144158920247  1.0000
  H   H50       1.0  0.19493244288723596  0.4433150676031232  0.34442693409336295  1.0000
  H   H51       1.0  0.7706738862921156  0.5560304163761102  0.22088018771990642  1.0000
  H   H52       1.0  0.7770941833347181  0.8450603835798417  0.371632079897779  1.0000
  H   H53       1.0  0.6756502648250944  0.32678464065282486  0.09258303722709368  1.0000
  H   H54       1.0  0.6129032237443541  0.3257134485313315  0.013641940035384395  1.0000
  H   H55       1.0  0.8290679637062794  0.3961739835808871  0.9337255872547272  1.0000
  H   H56       1.0  0.893016156853399  0.3929738631000533  0.013702917016736585  1.0000
  H   H57       1.0  0.6352196019959422  0.25917227952002264  0.941750198402424  1.0000
  H   H58       1.0  0.5614568123593741  0.36327930375058787  0.9261314216151744  1.0000
  H   H59       1.0  0.6452146622982512  0.3695482116476614  0.7911562265541789  1.0000
  H   H60       1.0  0.6777803069759472  0.4144478409857869  0.8404928786584733  1.0000
  H   H61       1.0  0.6509021988046868  0.5129410095807218  0.7786527502482767  1.0000
  H   H62       1.0  0.6056729777906612  0.6586364494001273  0.7408224633236529  1.0000
  H   H63       1.0  0.3440590179740255  0.6893110260488202  0.8069510530859741  1.0000
  H   H64       1.0  0.39106684221550847  0.5407664810019384  0.8461475119437974  1.0000
  H   H65       1.0  0.779119214626725  0.2617474980469224  0.8601114709087199  1.0000
  H   H66       1.0  0.7353820687815756  0.22004036594860568  0.8134950527905572  1.0000
  H   H67       1.0  0.8645348321101524  0.12330187100752006  0.8124159551898343  1.0000
  H   H68       1.0  0.952925817693128  0.9734910686867124  0.796398701305385  1.0000
  H   H69       1.0  0.8029960396080328  0.8718514034684336  0.9141166823087231  1.0000
  H   H70       1.0  0.7157647549216507  0.020326654142735382  0.9302416828230661  1.0000
  H   H71       1.0  0.5032076940026683  0.3049587008854289  0.8585469056179063  1.0000
  H   H72       1.0  0.5719317092691513  0.19856699052042612  0.875000101027048  1.0000
  H   H73       1.0  0.625258161303485  0.18394169970044771  0.7167705978885976  1.0000
  H   H74       1.0  0.5516360138454246  0.09359848091273906  0.6778540621424012  1.0000
  H   H75       1.0  0.3723586500852392  0.10465857257547385  0.8050151931835714  1.0000
  H   H76       1.0  0.443325874606309  0.19492134932036725  0.8444285896291247  1.0000
  H   H77       1.0  0.5560545811453753  0.7706606285698567  0.7208745428064276  1.0000
  H   H78       1.0  0.8450605456864937  0.77708929188173  0.8716238926973076  1.0000
  H   H79       1.0  0.6732147697138233  0.32434432666313007  0.4074167072669964  1.0000
  H   H80       1.0  0.6742804972052953  0.3871019081364225  0.4863572201883101  1.0000
  H   H81       1.0  0.6038303224247556  0.17093162456058764  0.566276800226241  1.0000
  H   H82       1.0  0.6070421375256105  0.10697074728329178  0.4863011517299752  1.0000
  H   H83       1.0  0.7408175606015276  0.3647899563056143  0.5582455204937274  1.0000
  H   H84       1.0  0.6367157838184243  0.43855614374292895  0.573871614547727  1.0000
  H   H85       1.0  0.6304559316067897  0.3547871129359165  0.708843474839085  1.0000
  H   H86       1.0  0.5855551163009522  0.32221934259685997  0.6595074519717129  1.0000
  H   H87       1.0  0.48706111289494197  0.34909842971504207  0.721346604040903  1.0000
  H   H88       1.0  0.34136237950246345  0.3943253373481068  0.7591715640512361  1.0000
  H   H89       1.0  0.31069059766654306  0.6559433593743478  0.6930449645001173  1.0000
  H   H90       1.0  0.45923601306086687  0.6089368857510922  0.6538510643000562  1.0000
  H   H91       1.0  0.7382294773612444  0.22088363185037002  0.6398876311082162  1.0000
  H   H92       1.0  0.7799725204321035  0.2646119309369157  0.6864923709793587  1.0000
  H   H93       1.0  0.8766922402791408  0.13545432737413418  0.6875690171137308  1.0000
  H   H94       1.0  0.026501274275872795  0.04708557861668082  0.7035940163475444  1.0000
  H   H95       1.0  0.12813308579565333  0.19702158079372364  0.5858746285927905  1.0000
  H   H96       1.0  0.9796577777918999  0.28422790880062365  0.5697399221573176  1.0000
  H   H97       1.0  0.6950489450740351  0.4967941365457875  0.6414542268044271  1.0000
  H   H98       1.0  0.8014375626467043  0.4280647208646969  0.6249995657789995  1.0000
  H   H99       1.0  0.8160662261744136  0.37473824074724854  0.7832276926958599  1.0000
  H   H100      1.0  0.9064109445866962  0.4483596612935584  0.8221422468422332  1.0000
  H   H101      1.0  0.8953366092596937  0.6276460989661531  0.6949834276473081  1.0000
  H   H102      1.0  0.8050712794718534  0.55667902258908  0.6555724841219046  1.0000
  H   H103      1.0  0.22933483107507877  0.4439515883608039  0.779122171048982  1.0000
  H   H104      1.0  0.22290268537797434  0.15495071971147925  0.6283627708133181  1.0000
  C   C1        1.0  0.17132279688891566  0.6444096252049291  0.8948601426867739  1.0000
  C   C2        1.0  0.211504967923311  0.64081148003514  0.9419684131726455  1.0000
  C   C3        1.0  0.29065370237513133  0.6586577442097762  0.9423729150402946  1.0000
  C   C4        1.0  0.3258127542421859  0.6594247501660746  0.9866858477913707  1.0000
  C   C5        1.0  0.2813442387452767  0.6405213679858265  0.0310730110892052  1.0000
  C   C6        1.0  0.20344423391943423  0.6195691061565185  0.031153062501175603  1.0000
  C   C7        1.0  0.1685553250423197  0.6208677447703155  0.9869371544558162  1.0000
  C   C8        1.0  0.3736948277832326  0.6808191264406532  0.08253362547446838  1.0000
  C   C9        1.0  0.3621185036508763  0.7010606445544313  0.1368708473451079  1.0000
  C   C10       1.0  0.3683395940333086  0.6173873694881779  0.16971714211354075  1.0000
  C   C11       1.0  0.47593046872822947  0.48225879943598954  0.18438923043679267  1.0000
  C   C12       1.0  0.4159171168943487  0.4487979585804637  0.21440840543903755  1.0000
  C   C13       1.0  0.44297802973222394  0.3647173735732565  0.23572573542741537  1.0000
  C   C14       1.0  0.5288354063976541  0.3136504727411663  0.22811383699421836  1.0000
  C   C15       1.0  0.5885144383396508  0.34887512098156764  0.19843466268330445  1.0000
  C   C16       1.0  0.562392099442981  0.43223822669379086  0.17660845924768148  1.0000
  C   C17       1.0  0.5602839352880551  0.22592939517495847  0.2517784732050074  1.0000
  C   C18       1.0  0.2725881036348953  0.7649288167709897  0.14779428736650863  1.0000
  C   C19       1.0  0.21712121493146697  0.9194983951669614  0.12826199764462126  1.0000
  C   C20       1.0  0.1498942210424659  0.931730413391115  0.16595139989540536  1.0000
  C   C21       1.0  0.10037752323711402  0.015423873285307393  0.1749996283757298  1.0000
  C   C22       1.0  0.11759092898051902  0.08742681193822222  0.14765979031377438  1.0000
  C   C23       1.0  0.1842141598114679  0.07389809477022877  0.109461757399977  1.0000
  C   C24       1.0  0.23307989683230093  0.9910794905240081  0.09954127079187458  1.0000
  C   C25       1.0  0.0644221755740659  0.17490935064313362  0.1593149535968266  1.0000
  C   C26       1.0  0.43221614410059334  0.7407302967286142  0.14807808613553416  1.0000
  C   C27       1.0  0.46094035978195796  0.8054884853653591  0.2173121236681936  1.0000
  C   C28       1.0  0.430946725682567  0.833044184095982  0.2645269339888259  1.0000
  C   C29       1.0  0.47138572597357614  0.8830126337739516  0.2858837535205652  1.0000
  C   C30       1.0  0.5423170395050648  0.9061020696359778  0.26075046993256723  1.0000
  C   C31       1.0  0.5724868138506096  0.8769836747367421  0.21408847693714245  1.0000
  C   C32       1.0  0.5325097629406059  0.8266974436504383  0.19205611316554178  1.0000
  C   C33       1.0  0.5827251256338853  0.9635295705941119  0.2830604380882916  1.0000
  C   C34       1.0  0.3555801140470294  0.828673886399301  0.6051450047679623  1.0000
  C   C35       1.0  0.3591835136814794  0.788488443998304  0.5580366923980975  1.0000
  C   C36       1.0  0.34134116649881463  0.709338916560647  0.5576297765244502  1.0000
  C   C37       1.0  0.340574225714704  0.6741826180829663  0.5133142652287289  1.0000
  C   C38       1.0  0.35947551739469225  0.7186538697172935  0.46892932811262966  1.0000
  C   C39       1.0  0.38042645596761554  0.7965580913250181  0.4688524293012931  1.0000
  C   C40       1.0  0.37912740472556555  0.8314433019057716  0.5130678166366777  1.0000
  C   C41       1.0  0.3191858973997768  0.6262994815940673  0.4174673921030133  1.0000
  C   C42       1.0  0.29893735616737876  0.6378814636379885  0.36312973174468505  1.0000
  C   C43       1.0  0.3826109699628759  0.6316628682377754  0.3302812084246014  1.0000
  C   C44       1.0  0.5177390502082488  0.5240702188503336  0.31560831441572645  1.0000
  C   C45       1.0  0.5512016516360632  0.5840814649652516  0.28558933961554084  1.0000
  C   C46       1.0  0.6352837760342496  0.5570216172077951  0.26427402913427755  1.0000
  C   C47       1.0  0.6863488354485556  0.47116525034522266  0.271887957515723  1.0000
  C   C48       1.0  0.6511200774820692  0.41148493302206673  0.3015668926836739  1.0000
  C   C49       1.0  0.5677561485136452  0.4376070373242843  0.3233902511495187  1.0000
  C   C50       1.0  0.7740717519353809  0.4397105704520641  0.24822639174244193  1.0000
  C   C51       1.0  0.23506940317923156  0.7274074982982344  0.35221377145448673  1.0000
  C   C52       1.0  0.08050516321863203  0.7828811250801309  0.37175377698445533  1.0000
  C   C53       1.0  0.068272942745125  0.8501108583757215  0.3340644149119426  1.0000
  C   C54       1.0  0.9845834787370792  0.8996239462763216  0.3250153524956899  1.0000
  C   C55       1.0  0.9125803729402835  0.8824056379699745  0.3523554752913967  1.0000
  C   C56       1.0  0.926108203148104  0.8157826477511207  0.39055226539598914  1.0000
  C   C57       1.0  0.008927865189967596  0.7669195919145082  0.4004733722927867  1.0000
  C   C58       1.0  0.8251029790224109  0.935569144927037  0.34069251709774306  1.0000
  C   C59       1.0  0.2592816596097265  0.5677742535527558  0.351922411756007  1.0000
  C   C60       1.0  0.19452799502366963  0.5390505655057682  0.28268688581037077  1.0000
  C   C61       1.0  0.16697311874948184  0.5690461335576132  0.23547341429043195  1.0000
  C   C62       1.0  0.11699822761995193  0.5286128190754482  0.21411816124660274  1.0000
  C   C63       1.0  0.09390193168709261  0.45768347160425554  0.23925101865687273  1.0000
  C   C64       1.0  0.1230226791043023  0.4275098484335301  0.2859123226433765  1.0000
  C   C65       1.0  0.17331528721631173  0.46748224137117944  0.30794233213490674  1.0000
  C   C66       1.0  0.03646866776483651  0.41728349755837263  0.2169439598182379  1.0000
  C   C67       1.0  0.8286678816832664  0.35559186522212377  0.10514761365160298  1.0000
  C   C68       1.0  0.7884818219433639  0.35918871798313756  0.058038529389747906  1.0000
  C   C69       1.0  0.7093350860283325  0.341344373732589  0.0576323544083905  1.0000
  C   C70       1.0  0.6741806116979987  0.34057789989919485  0.013317683827942474  1.0000
  C   C71       1.0  0.7186477975015536  0.35948041132818515  0.9689317352591829  1.0000
  C   C72       1.0  0.7965516408456281  0.38043330564376276  0.9688547266047889  1.0000
  C   C73       1.0  0.8314360299231823  0.3791354121748682  0.013070109557702407  1.0000
  C   C74       1.0  0.6263056591624263  0.3191826324653278  0.9174699328009622  1.0000
  C   C75       1.0  0.6378820388137285  0.2989393403738489  0.8631287885084615  1.0000
  C   C76       1.0  0.6316622368181726  0.38261527436146275  0.8302844697523637  1.0000
  C   C77       1.0  0.5240739699917611  0.5177430952463667  0.8156111852525427  1.0000
  C   C78       1.0  0.5840885986698652  0.5512004854360413  0.785591033102783  1.0000
  C   C79       1.0  0.5570303279007333  0.6352785260096568  0.7642696820366692  1.0000
  C   C80       1.0  0.4711749266788204  0.6863448844808318  0.7718796772768071  1.0000
  C   C81       1.0  0.4114933632543584  0.65112837935893  0.8015603721620861  1.0000
  C   C82       1.0  0.4376117734699748  0.5677676001553422  0.8233899482631485  1.0000
  C   C83       1.0  0.4397284083194678  0.7740648449180156  0.7482109767718084  1.0000
  C   C84       1.0  0.7274078461932377  0.2350694013437861  0.8522071541968755  1.0000
  C   C85       1.0  0.7828721612284042  0.08049877684879904  0.8717378151941657  1.0000
  C   C86       1.0  0.8501030225042144  0.06826802974481447  0.8340503242400529  1.0000
  C   C87       1.0  0.8996235801465033  0.9845752236254981  0.8250040409966245  1.0000
  C   C88       1.0  0.8824075421103997  0.9125687411075636  0.852343849455778  1.0000
  C   C89       1.0  0.8157792025795773  0.9260996733022322  0.890539119019273  1.0000
  C   C90       1.0  0.7669102603527732  0.008918658754012756  0.9004579336862975  1.0000
  C   C91       1.0  0.9355782798411739  0.8250881081343384  0.8406877447394692  1.0000
  C   C92       1.0  0.5677805505133692  0.2592757542610969  0.8519228895410008  1.0000
  C   C93       1.0  0.539057621000673  0.1945171733002199  0.7826891685206334  1.0000
  C   C94       1.0  0.5690493373936931  0.16696329419831096  0.7354739984712424  1.0000
  C   C95       1.0  0.528611644146416  0.11699386323569165  0.7141160660310959  1.0000
  C   C96       1.0  0.457682262090124  0.09390201168825028  0.7392486457673896  1.0000
  C   C97       1.0  0.4275130913009875  0.12301956114720988  0.7859124772402166  1.0000
  C   C98       1.0  0.46748949557353825  0.17330598484748796  0.8079448656757859  1.0000
  C   C99       1.0  0.41727286092405086  0.03647426442035602  0.7169394925602859  1.0000
  C   C100      1.0  0.6444236234118179  0.171321438483517  0.39485434556686977  1.0000
  C   C101      1.0  0.6408189607019639  0.2115097354936565  0.4419625715037866  1.0000
  C   C102      1.0  0.6586568258344273  0.29066309480272423  0.44236879258387046  1.0000
  C   C103      1.0  0.6594206058245434  0.3258222580595601  0.48668176449717027  1.0000
  C   C104      1.0  0.6405173684568908  0.2813534079182531  0.5310681371454393  1.0000
  C   C105      1.0  0.6195708768466377  0.20344592920722693  0.5311478918514821  1.0000
  C   C106      1.0  0.6208750776513908  0.1685561051805848  0.48693174522499305  1.0000
  C   C107      1.0  0.6808101927704939  0.3737061943377213  0.5825310812961104  1.0000
  C   C108      1.0  0.7010619503158252  0.36211957353693697  0.6368673586150064  1.0000
  C   C109      1.0  0.6173902919760792  0.36833943603493674  0.6697160719627391  1.0000
  C   C110      1.0  0.48226021852558193  0.475927731598084  0.684388945645068  1.0000
  C   C111      1.0  0.44880212046665957  0.415912674900362  0.7144075177181219  1.0000
  C   C112      1.0  0.3647224964561957  0.4429704465493245  0.7357264558262457  1.0000
  C   C113      1.0  0.3136560647111395  0.5288259000834402  0.7281159372152501  1.0000
  C   C114      1.0  0.3488758052844716  0.5885089494831989  0.6984355181417213  1.0000
  C   C115      1.0  0.43223595569001827  0.5623905412080176  0.676608513496518  1.0000
  C   C116      1.0  0.22593561263722964  0.560277858138008  0.7517826279165263  1.0000
  C   C117      1.0  0.7649246373876509  0.2725846203993425  0.6477822639995807  1.0000
  C   C118      1.0  0.9194889013288048  0.2171146764006552  0.6282431523489719  1.0000
  C   C119      1.0  0.9317256575889135  0.14988665314896096  0.6659336354335037  1.0000
  C   C120      1.0  0.015415183770528503  0.10038094500717422  0.6749837539280108  1.0000
  C   C121      1.0  0.08741832864762962  0.11760417078733097  0.6476444571312284  1.0000
  C   C122      1.0  0.07388852921523181  0.18422648996509847  0.609448540579443  1.0000
  C   C123      1.0  0.9910655855813674  0.23308253305605595  0.5995254373437717  1.0000
  C   C124      1.0  0.1748976966780944  0.06443829072205183  0.6593045164318028  1.0000
  C   C125      1.0  0.740726611861149  0.43222034037755463  0.6480767319908124  1.0000
  C   C126      1.0  0.8054822159159158  0.4609428403335301  0.7173118520445242  1.0000
  C   C127      1.0  0.8330397084957754  0.430948360957892  0.7645247572476918  1.0000
  C   C128      1.0  0.8830107575499753  0.47138591785039824  0.7858799885742371  1.0000
  C   C129      1.0  0.9061031963077468  0.5423182730413243  0.7607471773271187  1.0000
  C   C130      1.0  0.8769798108225332  0.5724901759981338  0.7140872052780692  1.0000
  C   C131      1.0  0.8266903830486498  0.5325124985735171  0.6920573100482412  1.0000
  C   C132      1.0  0.9635332585731717  0.5827235102855753  0.7830552194247387  1.0000
  O   O1        1.0  0.08990394034347561  0.6511211849703642  0.8982297852635597  1.0000
  O   O2        1.0  0.21652524925750072  0.6411731300798778  0.8539967644669912  1.0000
  O   O3        1.0  0.3084197312535722  0.6404179159937871  0.07685581738471828  1.0000
  O   O4        1.0  0.45529734067363853  0.5633120344104938  0.1614597484074096  1.0000
  O   O5        1.0  0.6367309499555985  0.18240830508226946  0.2493354291622154  1.0000
  O   O6        1.0  0.5025376871901913  0.19014797764255315  0.2788642886619996  1.0000
  O   O7        1.0  0.2703056483955422  0.8416992041303929  0.11595555880377617  1.0000
  O   O8        1.0  0.09584578177971541  0.24245733524561794  0.1432682961132627  1.0000
  O   O9        1.0  0.9931557131879318  0.19002531279389254  0.18274350088849894  1.0000
  O   O10       1.0  0.41569902763565386  0.7579554891867916  0.19900553571893909  1.0000
  O   O11       1.0  0.6490234098823962  0.9810084208233292  0.25970105596920934  1.0000
  O   O12       1.0  0.5490813244308512  0.9940159349565932  0.32385336431483575  1.0000
  O   O13       1.0  0.34887071412912013  0.9100950142664961  0.601777914227739  1.0000
  O   O14       1.0  0.358811482535593  0.7834695318739904  0.6460084337336696  1.0000
  O   O15       1.0  0.35957851780163014  0.6915831260304941  0.423145737604706  1.0000
  O   O16       1.0  0.43668744912196195  0.5447041787692726  0.3385368971912115  1.0000
  O   O17       1.0  0.8175906284095691  0.3632617003729735  0.2506695670418893  1.0000
  O   O18       1.0  0.8098553296531463  0.4974562930925261  0.22114209787267203  1.0000
  O   O19       1.0  0.15830753709943934  0.7296981814262439  0.38405724148959297  1.0000
  O   O20       1.0  0.7575531299127364  0.9041477929029613  0.3567339242826293  1.0000
  O   O21       1.0  0.809994452338458  0.006832116230065002  0.3172571465106912  1.0000
  O   O22       1.0  0.24206268945872728  0.5842870143432249  0.3009936310770485  1.0000
  O   O23       1.0  0.01898379838517881  0.35098800160744054  0.24030391394759928  1.0000
  O   O24       1.0  0.005983853824432099  0.4509293868111044  0.17615090917983164  1.0000
  O   O25       1.0  0.9100849186707195  0.34889015057432  0.10177717012317797  1.0000
  O   O26       1.0  0.7834660235466517  0.3588244565652018  0.14601153668897374  1.0000
  O   O27       1.0  0.6915820254300871  0.3595803851501456  0.9231471295834195  1.0000
  O   O28       1.0  0.5447070918274051  0.4366910736738563  0.8385416969221777  1.0000
  O   O29       1.0  0.36328151490153  0.8175866658952062  0.7506481334307152  1.0000
  O   O30       1.0  0.49748111435468456  0.8098424984672052  0.7211242848153245  1.0000
  O   O31       1.0  0.7296877575201819  0.15829982701746553  0.8840437863741144  1.0000
  O   O32       1.0  0.9041490044602797  0.7575438368251071  0.8567279372539714  1.0000
  O   O33       1.0  0.0068447089143504  0.8099751617480919  0.8172626861489859  1.0000
  O   O34       1.0  0.5842970416595606  0.24205077570550065  0.8009943671008839  1.0000
  O   O35       1.0  0.35097581931953675  0.01899375879159491  0.7403007224330123  1.0000
  O   O36       1.0  0.45091407513364606  0.0059880602646628514  0.6761463330896119  1.0000
  O   O37       1.0  0.6511420416101644  0.08989879903791116  0.3982235838126796  1.0000
  O   O38       1.0  0.6411818634247766  0.2165251707605619  0.35399151486600294  1.0000
  O   O39       1.0  0.6404105344117781  0.30843023185889257  0.5768523357958627  1.0000
  O   O40       1.0  0.5633118582485325  0.4552980789038514  0.6614608569684959  1.0000
  O   O41       1.0  0.18241788553871882  0.6367237600687546  0.7493453924936943  1.0000
  O   O42       1.0  0.1901552006014882  0.5025262265690744  0.7788674358284452  1.0000
  O   O43       1.0  0.8416858666060351  0.27028804158669556  0.6159347679479054  1.0000
  O   O44       1.0  0.24244375212514066  0.09586210408256332  0.6432595309479934  1.0000
  O   O45       1.0  0.19000823566765493  0.9931766432864108  0.6827371503246695  1.0000
  O   O46       1.0  0.7579519879876601  0.4157007146849594  0.6990055375518478  1.0000
  O   O47       1.0  0.981019414121505  0.649018613912368  0.7596955818076692  1.0000
  O   O48       1.0  0.9940167952257041  0.5490804614495916  0.8238489153106556  1.0000
