data_image0
_chemical_formula_structural       Ni2H22C26N4O12
_chemical_formula_sum              "Ni2 H22 C26 N4 O12"
_cell_length_a       8.077142091198086
_cell_length_b       9.930894436299846
_cell_length_c       10.80522475589274
_cell_angle_alpha    113.31599725557854
_cell_angle_beta     103.4445148347688
_cell_angle_gamma    98.14411959582112

_space_group_name_H-M_alt    "P 1"
_space_group_IT_number       1

loop_
  _space_group_symop_operation_xyz
  'x, y, z'

loop_
  _atom_site_type_symbol
  _atom_site_label
  _atom_site_symmetry_multiplicity
  _atom_site_fract_x
  _atom_site_fract_y
  _atom_site_fract_z
  _atom_site_occupancy
  Ni  Ni1       1.0  0.19620310172489744  0.12761977239758687  0.8633097172071018  1.0000
  Ni  Ni2       1.0  0.8038012141230838  0.8723722273852417  0.13668024391894576  1.0000
  H   H1        1.0  0.6462579387487181  0.9501335322279729  0.4206657081082028  1.0000
  H   H2        1.0  0.35371728927844975  0.049878502978813806  0.5793458875350481  1.0000
  H   H3        1.0  0.4052536846009289  0.756293035323651  0.41894369016746674  1.0000
  H   H4        1.0  0.594729056915405  0.2437143967095494  0.5810508892287131  1.0000
  H   H5        1.0  0.45336825791468277  0.6986968913961604  0.6292044318637336  1.0000
  H   H6        1.0  0.5466171697368266  0.301295645702382  0.3707786504443931  1.0000
  H   H7        1.0  0.534801649570028  0.0885828648970701  0.9701743071375049  1.0000
  H   H8        1.0  0.46520946427261833  0.9114180812607486  0.029823873292571194  1.0000
  H   H9        1.0  0.8433314776543597  0.1993226141793372  0.9963067690244852  1.0000
  H   H10       1.0  0.15667513103817046  0.8006876255794639  0.003693111524406054  1.0000
  H   H11       1.0  0.038295150080692536  0.3472265593468791  0.9239593626679934  1.0000
  H   H12       1.0  0.9617093850055624  0.6527963664965881  0.07604205372262386  1.0000
  H   H13       1.0  0.957327022021346  0.45965371868368265  0.841454477421287  1.0000
  H   H14       1.0  0.042671955909867255  0.5403680996260435  0.15855571800262427  1.0000
  H   H15       1.0  0.6519595061657811  0.4984489298328611  0.8311804663957431  1.0000
  H   H16       1.0  0.3480382351612691  0.5015658699530263  0.16884357681014717  1.0000
  H   H17       1.0  0.3464782925384143  0.3734047780272363  0.8084876208905598  1.0000
  H   H18       1.0  0.653526129320838  0.6266030901683521  0.19152395090712562  1.0000
  H   H19       1.0  0.10471870620643398  0.7537318299732477  0.7358130375492992  1.0000
  H   H20       1.0  0.8952904054021503  0.24626336201047389  0.264190065262099  1.0000
  H   H21       1.0  0.15444960390981077  0.7935625503601786  0.6212463859853657  1.0000
  H   H22       1.0  0.845557480991914  0.20640755045307202  0.37874153930290777  1.0000
  C   C1        1.0  0.9495516072273985  0.11498589104552082  0.6213719781562119  1.0000
  C   C2        1.0  0.05044588929393973  0.8850164611485881  0.37863354340787947  1.0000
  C   C3        1.0  0.8155268166837005  0.9934542378888556  0.621211337544921  1.0000
  C   C4        1.0  0.18447785986204218  0.006546769559712103  0.378795896111903  1.0000
  C   C5        1.0  0.6596984263304791  0.9183854958503307  0.5071301658459505  1.0000
  C   C6        1.0  0.3402871774195759  0.0816194315248282  0.4928769578604316  1.0000
  C   C7        1.0  0.5284568176796469  0.8111248087270511  0.5065203542532687  1.0000
  C   C8        1.0  0.47153905597233603  0.1888799957463405  0.49347467618478896  1.0000
  C   C9        1.0  0.5550928110538964  0.7771915033580113  0.6219594840211896  1.0000
  C   C10       1.0  0.4448959769434424  0.2228076513785382  0.3780423756150029  1.0000
  C   C11       1.0  0.7129185482468614  0.8475635824824652  0.7321565530483483  1.0000
  C   C12       1.0  0.2870699262375922  0.1524230673471578  0.2678323047025088  1.0000
  C   C13       1.0  0.565494427366417  0.1791192984042312  0.9402920176464419  1.0000
  C   C14       1.0  0.4345165133281981  0.8208850399169876  0.05971201169170846  1.0000
  C   C15       1.0  0.7374937098485362  0.24183761429134173  0.954406600107056  1.0000
  C   C16       1.0  0.2625065417054629  0.7581727536258925  0.04559589395270793  1.0000
  C   C17       1.0  0.7732278686363687  0.35728026892339676  0.9133882734036334  1.0000
  C   C18       1.0  0.22677043793954982  0.6427243925823732  0.08661454324040121  1.0000
  C   C19       1.0  0.957648978993234  0.42824818294498357  0.9282714843102224  1.0000
  C   C20       1.0  0.042358070555423004  0.5717711313472337  0.07173922905356996  1.0000
  C   C21       1.0  0.6302551381416065  0.40696803184653874  0.8620610594643523  1.0000
  C   C22       1.0  0.36974843792937406  0.5930410338311135  0.1379480266485516  1.0000
  C   C23       1.0  0.46105215989387466  0.3400451706619664  0.8506332110912567  1.0000
  C   C24       1.0  0.5389525853590486  0.6599558941017565  0.14936850280910377  1.0000
  C   C25       1.0  0.7652116535241973  0.8085346642919616  0.8553063475335493  1.0000
  C   C26       1.0  0.23479774574436624  0.19145723105362583  0.14468170677567832  1.0000
  N   N1        1.0  0.4283126400889543  0.22660711883114  0.8882249150649172  1.0000
  N   N2        1.0  0.5716853759716258  0.7733964835440618  0.11177005444505282  1.0000
  N   N3        1.0  0.8389223429401724  0.954019057548848  0.7307131878823582  1.0000
  N   N4        1.0  0.16107676204881474  0.045965050373432306  0.2692738544608488  1.0000
  O   O1        1.0  0.1115408838145129  0.15813531715475904  0.7041199570238418  1.0000
  O   O2        1.0  0.8884536029876742  0.8418658800632457  0.29589293018543833  1.0000
  O   O3        1.0  0.8996176350508237  0.16866571283256357  0.5370990190126435  1.0000
  O   O4        1.0  0.10037563528939594  0.8313355558692592  0.4629099750936446  1.0000
  O   O5        1.0  0.9798145596704086  0.0183104504490075  0.8474334425570689  1.0000
  O   O6        1.0  0.020191262869403287  0.9816482569666363  0.1525472747957651  1.0000
  O   O7        1.0  0.20519158841376856  0.7853177064349737  0.7090728289666615  1.0000
  O   O8        1.0  0.7948122535094413  0.2146502280342447  0.2909100150356849  1.0000
  O   O9        1.0  0.7183578862676614  0.8877439412470312  0.962503614207229  1.0000
  O   O10       1.0  0.2816329854070432  0.11224607240868073  0.03748783914475951  1.0000
  O   O11       1.0  0.8421852401438842  0.7061804611738369  0.8402641058003439  1.0000
  O   O12       1.0  0.15785374662801388  0.29381983893516406  0.15973048683279958  1.0000
