data_image0
_chemical_formula_structural       Cd2H24C38S4N16
_chemical_formula_sum              "Cd2 H24 C38 S4 N16"
_cell_length_a       8.524343578289228
_cell_length_b       8.948255519464345
_cell_length_c       13.206915317220059
_cell_angle_alpha    88.06273987669914
_cell_angle_beta     81.88178866440924
_cell_angle_gamma    80.76078500959083

_space_group_name_H-M_alt    "P 1"
_space_group_IT_number       1

loop_
  _space_group_symop_operation_xyz
  'x, y, z'

loop_
  _atom_site_type_symbol
  _atom_site_label
  _atom_site_symmetry_multiplicity
  _atom_site_fract_x
  _atom_site_fract_y
  _atom_site_fract_z
  _atom_site_occupancy
  Cd  Cd1       1.0  0.7565091560670111  0.26644905786739065  0.5262325571142412  1.0000
  Cd  Cd2       1.0  0.24349177999152977  0.7335514326602494  0.4737669957028814  1.0000
  H   H1        1.0  0.37405959711927045  0.5318149991213161  0.27028051518777835  1.0000
  H   H2        1.0  0.6259435213215243  0.46817982772303424  0.7297204618848737  1.0000
  H   H3        1.0  0.9197303701021368  0.762317315145886  0.3664538917843956  1.0000
  H   H4        1.0  0.08027154068113164  0.2376843049848674  0.6335470684487987  1.0000
  H   H5        1.0  0.8096635625239658  0.6758771234146935  0.21622114148448904  1.0000
  H   H6        1.0  0.1903363602076951  0.3241290137937725  0.7837799125782537  1.0000
  H   H7        1.0  0.9940080933253412  0.5084314966407391  0.08783749576289779  1.0000
  H   H8        1.0  0.0059934218510235724  0.4915724023099772  0.9121619435786456  1.0000
  H   H9        1.0  0.642082741005126  0.1835708625758343  0.8097827956089533  1.0000
  H   H10       1.0  0.35791624213114664  0.8164273615500052  0.19021470001528945  1.0000
  H   H11       1.0  0.8764185148485241  0.9780355751681354  0.7642533793132386  1.0000
  H   H12       1.0  0.12357946925339289  0.021961468985495003  0.23574801236968312  1.0000
  H   H13       1.0  0.9841210353483446  0.814576362755858  0.9064905478509999  1.0000
  H   H14       1.0  0.0158767474773214  0.18542181361217303  0.0935108410253491  1.0000
  H   H15       1.0  0.8554955310734373  0.8686121475501878  0.08641375648106482  1.0000
  H   H16       1.0  0.144502827397254  0.13138943004533132  0.9135882765589471  1.0000
  H   H17       1.0  0.34557472471191636  0.144730489419338  0.2658853294613692  1.0000
  H   H18       1.0  0.6544230650593477  0.8552677013398552  0.7341145441364816  1.0000
  H   H19       1.0  0.4818255013167345  0.10942347894700082  0.4224975623991938  1.0000
  H   H20       1.0  0.5181797817409972  0.8905725036715142  0.5775032017551709  1.0000
  H   H21       1.0  0.83745887329232  0.35120464370623955  0.2942901308230219  1.0000
  H   H22       1.0  0.16254148364838983  0.6487924383983241  0.705709535469687  1.0000
  H   H23       1.0  0.7125851715180431  0.4014381224413982  0.1322903540101805  1.0000
  H   H24       1.0  0.28740964505847444  0.5985634342056515  0.8677104789189016  1.0000
  C   C1        1.0  0.25002674894608395  0.5578373160077491  0.2552636177291276  1.0000
  C   C2        1.0  0.7499732054421172  0.44216203052561553  0.7447360429504357  1.0000
  C   C3        1.0  0.9963761295538023  0.6898187099169277  0.3084945986092649  1.0000
  C   C4        1.0  0.003625791647877505  0.31018293180058276  0.6915040887061751  1.0000
  C   C5        1.0  0.9358173782708405  0.6414535487046467  0.22469208957758016  1.0000
  C   C6        1.0  0.06418295395893381  0.3585503384661948  0.7753074548198172  1.0000
  C   C7        1.0  0.03847816442138447  0.5475786879443377  0.15406826639430446  1.0000
  C   C8        1.0  0.9615223760302527  0.45242408140327944  0.8459297655311745  1.0000
  C   C9        1.0  0.199930948603587  0.5036310318366689  0.1685739173541876  1.0000
  C   C10       1.0  0.800067621561766  0.4963694351312071  0.8314258455746497  1.0000
  C   C11       1.0  0.3066077207917957  0.41270891705659823  0.0892211864971983  1.0000
  C   C12       1.0  0.6933906480973066  0.5872926821256856  0.9107785736250662  1.0000
  C   C13       1.0  0.498090109145835  0.25611332005595244  0.0006142267644407077  1.0000
  C   C14       1.0  0.5019062894569757  0.7438859767465902  0.9993872643611894  1.0000
  C   C15       1.0  0.6341678163627974  0.13626909361131112  0.9720292231422575  1.0000
  C   C16       1.0  0.36582838790936734  0.8637313497968079  0.02797074989829441  1.0000
  C   C17       1.0  0.6955868812129326  0.11279833955974543  0.8684975079665166  1.0000
  C   C18       1.0  0.3044156472903127  0.8871999127101518  0.13150043012940674  1.0000
  C   C19       1.0  0.8241909711642491  0.9968748368301308  0.8439224610705693  1.0000
  C   C20       1.0  0.17580918450020278  0.003123377488833499  0.1560772024155668  1.0000
  C   C21       1.0  0.8836863037882949  0.906426868367355  0.9224618606644199  1.0000
  C   C22       1.0  0.1163134389052445  0.09357358879364602  0.077540070126318  1.0000
  C   C23       1.0  0.8128266620183383  0.9374325412032931  0.02308677645049069  1.0000
  C   C24       1.0  0.1871724803192407  0.0625713197964899  0.9769143882812655  1.0000
  C   C25       1.0  0.520115040199677  0.275852557321187  0.18827323603827043  1.0000
  C   C26       1.0  0.47988233660067436  0.7241478762800497  0.811728904864175  1.0000
  C   C27       1.0  0.4538809616372674  0.19270649035587442  0.26946454041171825  1.0000
  C   C28       1.0  0.5461154369655503  0.807292806446668  0.7305369507139119  1.0000
  C   C29       1.0  0.5307650340762109  0.1720445086093109  0.3564476275703329  1.0000
  C   C30       1.0  0.46923670708734033  0.8279514530607347  0.643551936473095  1.0000
  C   C31       1.0  0.7285809449424008  0.30717952588470615  0.2844085695979288  1.0000
  C   C32       1.0  0.2714156514638688  0.692818631507848  0.7155936819735302  1.0000
  C   C33       1.0  0.6605485285832131  0.3341579171842995  0.19481832466549057  1.0000
  C   C34       1.0  0.33944885168993716  0.6658425236125256  0.8051830585977058  1.0000
  C   C35       1.0  0.12356493500559647  0.10821465547878263  0.4239718109512012  1.0000
  C   C36       1.0  0.8764404856139977  0.8918006317109218  0.5760263174060398  1.0000
  C   C37       1.0  0.37118073279810204  0.3845179513315529  0.5645656714145773  1.0000
  C   C38       1.0  0.6288174556515573  0.6154848232386457  0.4354295400656127  1.0000
  S   S1        1.0  0.0539324118220961  0.2881280949486823  0.421035890543088  1.0000
  S   S2        1.0  0.946066334908579  0.711878044871071  0.5789637532970104  1.0000
  S   S3        1.0  0.45954092264295093  0.24528349906273667  0.6295294755743939  1.0000
  S   S4        1.0  0.5404645790550405  0.7547113873193114  0.3704675031902909  1.0000
  N   N1        1.0  0.1502675566940397  0.6488640407680537  0.3230280102815613  1.0000
  N   N2        1.0  0.8497349648636005  0.3511341971106675  0.6769714430928602  1.0000
  N   N3        1.0  0.28333283521776315  0.4220742874331905  0.991384934096672  1.0000
  N   N4        1.0  0.7166665153416716  0.5779284557433685  0.00861471816315879  1.0000
  N   N5        1.0  0.4022971885282658  0.3249140490388386  0.9363398554986091  1.0000
  N   N6        1.0  0.5976992066017531  0.675085240568116  0.0636623932662701  1.0000
  N   N7        1.0  0.4427122901883678  0.3087447373458758  0.09865675143782231  1.0000
  N   N8        1.0  0.5572852878882344  0.6912545640409676  0.9013453922712031  1.0000
  N   N9        1.0  0.6916174983082045  0.05021015379437439  0.04832832031756601  1.0000
  N   N10       1.0  0.30838166139339046  0.9497937431833425  0.9516690562179377  1.0000
  N   N11       1.0  0.6650283372618021  0.22875298467781147  0.36437736934888687  1.0000
  N   N12       1.0  0.3349722140095536  0.7712429508211757  0.6356238150289073  1.0000
  N   N13       1.0  0.17843219790570694  0.9779383978883587  0.42321465760671373  1.0000
  N   N14       1.0  0.8215792046340482  0.022056518610746402  0.5767848264356843  1.0000
  N   N15       1.0  0.30666216717765593  0.4827090110890139  0.5158444282513841  1.0000
  N   N16       1.0  0.6933427380385028  0.5172824308920241  0.48415645218513964  1.0000
