data_image0
_chemical_formula_structural       MnZn2H68C104N8O12
_chemical_formula_sum              "Mn1 Zn2 H68 C104 N8 O12"
_cell_length_a       13.350017171981397
_cell_length_b       14.15865790402953
_cell_length_c       16.86120255379148
_cell_angle_alpha    67.28114533277869
_cell_angle_beta     66.10602332392214
_cell_angle_gamma    73.62332419179009

_space_group_name_H-M_alt    "P 1"
_space_group_IT_number       1

loop_
  _space_group_symop_operation_xyz
  'x, y, z'

loop_
  _atom_site_type_symbol
  _atom_site_label
  _atom_site_symmetry_multiplicity
  _atom_site_fract_x
  _atom_site_fract_y
  _atom_site_fract_z
  _atom_site_occupancy
  Mn  Mn1       1.0  0.4999976568311053  3.854423951598315e-06  0.4999990284512918  1.0000
  Zn  Zn1       1.0  0.9161272909523746  0.4319586041319212  0.04319897450893961  1.0000
  Zn  Zn2       1.0  0.08387210297046004  0.5680391268053456  0.9568049469876739  1.0000
  H   H1        1.0  0.018068425181112974  0.21669001899989135  0.2849743992438079  1.0000
  H   H2        1.0  0.9819293334747384  0.7833030317969971  0.7150314722914503  1.0000
  H   H3        1.0  0.12518455146544477  0.11932732693425412  0.39274751569085  1.0000
  H   H4        1.0  0.874813496680225  0.8806735007831323  0.6072552636422587  1.0000
  H   H5        1.0  0.40661918829506033  0.26927067427266854  0.1973839074173185  1.0000
  H   H6        1.0  0.593380464856814  0.730726378839826  0.8026153987554566  1.0000
  H   H7        1.0  0.2988882745308813  0.3678115559881263  0.09225737426998394  1.0000
  H   H8        1.0  0.7011088672288321  0.6321816395231464  0.9077409281408606  1.0000
  H   H9        1.0  0.39223182759786107  0.0519370916305775  0.21755593867914777  1.0000
  H   H10       1.0  0.607768943934694  0.9480622231757536  0.7824464778948723  1.0000
  H   H11       1.0  0.5571573518785937  0.8884261669627026  0.21995646862372809  1.0000
  H   H12       1.0  0.44284728202491397  0.11157567361757974  0.7800368661548093  1.0000
  H   H13       1.0  0.8026032947038214  0.6873663956346336  0.4278910058916806  1.0000
  H   H14       1.0  0.19739814356000093  0.3126383496212385  0.5721101171434739  1.0000
  H   H15       1.0  0.8164746546748912  0.7033171503787872  0.578518936871319  1.0000
  H   H16       1.0  0.18351986836668735  0.296685190504043  0.42148385669715077  1.0000
  H   H17       1.0  0.5676360666857858  0.6785608549345457  0.36053117048673033  1.0000
  H   H18       1.0  0.43236200863353247  0.3214344578105681  0.6394774629260382  1.0000
  H   H19       1.0  0.669704453407746  0.5708067012307297  0.2554230784587547  1.0000
  H   H20       1.0  0.33029056645946736  0.42918785043887914  0.7445837575523199  1.0000
  H   H21       1.0  0.9374472119701734  0.7483869033104896  0.1299588194245159  1.0000
  H   H22       1.0  0.06254165181659486  0.2516107466656123  0.8700447832806758  1.0000
  H   H23       1.0  0.8380908589355156  0.8538144569592064  0.23718997462025726  1.0000
  H   H24       1.0  0.16190772409902365  0.14618968371947008  0.762801528695789  1.0000
  H   H25       1.0  0.8104184753099161  0.44110528178511293  0.9202621568643606  1.0000
  H   H26       1.0  0.18958256825261785  0.55889248475836  0.07974065652954475  1.0000
  H   H27       1.0  0.704705945172911  0.33106128259173334  0.904822162429987  1.0000
  H   H28       1.0  0.2952997624777893  0.6689390094712876  0.09517191769216993  1.0000
  H   H29       1.0  0.7010248761107433  0.1256247059021973  0.1722717168341887  1.0000
  H   H30       1.0  0.2989610097190081  0.8743853304311742  0.8277283627881715  1.0000
  H   H31       1.0  0.8073336459687468  0.24352259531081438  0.17665107515101408  1.0000
  H   H32       1.0  0.19266385605888564  0.7564720157872672  0.8233537978476306  1.0000
  H   H33       1.0  0.7372925807231351  0.8482784756715488  0.06472708403182284  1.0000
  H   H34       1.0  0.26272687830519453  0.1517172518008749  0.9352695509126149  1.0000
  H   H35       1.0  0.3578209814911303  0.26269681616608415  0.9603337821227313  1.0000
  H   H36       1.0  0.6421866447421037  0.7372879935227559  0.03966391767456666  1.0000
  H   H37       1.0  0.923447785984571  0.20625534332224754  0.8332874101063227  1.0000
  H   H38       1.0  0.0765327988002084  0.7937421045461835  0.16672293654586665  1.0000
  H   H39       1.0  0.04468432985584767  0.0602531565889066  0.9082929970975256  1.0000
  H   H40       1.0  0.9553032902216854  0.9397543401514029  0.09171920570315001  1.0000
  H   H41       1.0  0.0329150875305614  0.8794263981099634  0.9319981906459347  1.0000
  H   H42       1.0  0.9670882878046924  0.12057684652759089  0.06800161938966212  1.0000
  H   H43       1.0  0.9049122479889387  0.8429251523889363  0.8775931185565042  1.0000
  H   H44       1.0  0.09508790144584367  0.1570725421789376  0.12241295661401348  1.0000
  H   H45       1.0  0.7825060578847243  0.986852596028804  0.8048271868685004  1.0000
  H   H46       1.0  0.2174912773244131  0.013142765124037203  0.19517869115365016  1.0000
  H   H47       1.0  0.7922813526379002  0.2709689646036679  0.7552769866884503  1.0000
  H   H48       1.0  0.20772657691513527  0.729027408140084  0.24472118939777224  1.0000
  H   H49       1.0  0.6423938372584387  0.117312294363991  0.7919913382450687  1.0000
  H   H50       1.0  0.3576156213210595  0.8826849001557305  0.20800492961178205  1.0000
  H   H51       1.0  0.6213137611485492  0.25989054054569033  0.7418226001810667  1.0000
  H   H52       1.0  0.3786941838062461  0.7401058442363961  0.2581749741884353  1.0000
  H   H53       1.0  0.5459834125178842  0.36787314897520673  0.47748954082439354  1.0000
  H   H54       1.0  0.4540147768444029  0.6321286695635849  0.5225022091977465  1.0000
  H   H55       1.0  0.6607376514854122  0.2031525473412472  0.532224518881641  1.0000
  H   H56       1.0  0.3392537581268868  0.7968545233616809  0.4677718266389165  1.0000
  H   H57       1.0  0.7266829051581567  0.0712155004113555  0.4506919911022038  1.0000
  H   H58       1.0  0.2733078833854065  0.9287946066256225  0.5493065693622016  1.0000
  H   H59       1.0  0.6724745979091223  0.1045438706380111  0.3164372851420439  1.0000
  H   H60       1.0  0.3275211667271804  0.8954608282453053  0.6835638050938897  1.0000
  H   H61       1.0  0.554785030188583  0.2694412870141393  0.2626074051260616  1.0000
  H   H62       1.0  0.4452157157420942  0.7305597686683639  0.737384987160489  1.0000
  H   H63       1.0  0.4697072470768758  0.4403727830979848  0.2644793727299514  1.0000
  H   H64       1.0  0.5302954687868179  0.5596361091878846  0.7355076158182997  1.0000
  H   H65       1.0  0.4081294936561049  0.48660279784196103  0.4447405589275776  1.0000
  H   H66       1.0  0.5918666215907323  0.5133966388740703  0.5552537493368275  1.0000
  H   H67       1.0  0.36339478042517465  0.5660121175004207  0.3446088795858842  1.0000
  H   H68       1.0  0.6366013794551505  0.4339911294267011  0.6553877937361534  1.0000
  C   C1        1.0  0.08712610332717216  0.3623108078081502  0.12000812879941236  1.0000
  C   C2        1.0  0.9128701458201501  0.6377000595411461  0.8799932746378828  1.0000
  C   C3        1.0  0.15127286443986776  0.29932381750548137  0.18326492305475034  1.0000
  C   C4        1.0  0.8487223089021754  0.7006792852160476  0.816738622344232  1.0000
  C   C5        1.0  0.10279252597770487  0.2282574131278708  0.2672709339682199  1.0000
  C   C6        1.0  0.8972060980604721  0.7717449987129685  0.7327299919185605  1.0000
  C   C7        1.0  0.16253465009444304  0.17435114332558044  0.32689927548666725  1.0000
  C   C8        1.0  0.8374667733103532  0.825645159223356  0.673099722710063  1.0000
  C   C9        1.0  0.27193150347542877  0.18941297279992145  0.30232625865542667  1.0000
  C   C10       1.0  0.7280675275786661  0.8105824600741232  0.697676706113839  1.0000
  C   C11       1.0  0.3209087721661774  0.2587890646198261  0.21721988909688858  1.0000
  C   C12       1.0  0.6790929838465728  0.74120108124707  0.782778542705486  1.0000
  C   C13       1.0  0.260831372249882  0.3139508313339264  0.1583590490646287  1.0000
  C   C14       1.0  0.7391729557330037  0.6860385637150158  0.841639423285436  1.0000
  C   C15       1.0  0.3381604601099041  0.13126306076306093  0.3638020716823149  1.0000
  C   C16       1.0  0.6618332899598794  0.8687299913058127  0.6362020572342927  1.0000
  C   C17       1.0  0.4193574291621188  0.05056440439945221  0.34100679013724994  1.0000
  C   C18       1.0  0.5806434039774544  0.949434958560204  0.6589932195698722  1.0000
  C   C19       1.0  0.43783476308202296  0.0165889426011887  0.265113082460509  1.0000
  C   C20       1.0  0.5621711252171618  0.9834143855414937  0.7348835611292229  1.0000
  C   C21       1.0  0.5208301843788946  0.9343401608245189  0.2662501233755562  1.0000
  C   C22       1.0  0.47917299593515844  0.06566469226754632  0.7337462812565432  1.0000
  C   C23       1.0  0.554251480477866  0.9172983840902234  0.3425116634019646  1.0000
  C   C24       1.0  0.4457495333101916  0.08270401494909409  0.6574909097727326  1.0000
  C   C25       1.0  0.6378607355839419  0.8397478249808547  0.36517278650881474  1.0000
  C   C26       1.0  0.36214022022695497  0.16026006495405912  0.6348251360196641  1.0000
  C   C27       1.0  0.670961285206857  0.8244709790886376  0.4384881032893872  1.0000
  C   C28       1.0  0.3290417734649154  0.17553000360068438  0.5615089448686987  1.0000
  C   C29       1.0  0.7555975570518498  0.7437977978418076  0.4635803434677825  1.0000
  C   C30       1.0  0.24440217153702545  0.25620308955844  0.5364201243291689  1.0000
  C   C31       1.0  0.7626461753291448  0.7519520337085412  0.5394916971439867  1.0000
  C   C32       1.0  0.2373493460226115  0.24804492436928885  0.46051068014391916  1.0000
  C   C33       1.0  0.6822070881005828  0.8378142724146542  0.560991958946758  1.0000
  C   C34       1.0  0.31778763153396034  0.16218268591756407  0.4390100698174209  1.0000
  C   C35       1.0  0.6973171921552248  0.7721568533930422  0.30593626082271913  1.0000
  C   C36       1.0  0.302678195239629  0.227850191961231  0.6940630307499376  1.0000
  C   C37       1.0  0.6495428606872551  0.6927510140919181  0.3107352841543829  1.0000
  C   C38       1.0  0.35045042075958577  0.30724896879042524  0.6892692127466374  1.0000
  C   C39       1.0  0.7057469351719303  0.6330378321429393  0.25203712825705793  1.0000
  C   C40       1.0  0.2942502640222173  0.3669583031413381  0.7479685513551501  1.0000
  C   C41       1.0  0.8098990702074214  0.6531900530174187  0.18702261689214345  1.0000
  C   C42       1.0  0.19009649371974285  0.3468014021264738  0.8129850127587018  1.0000
  C   C43       1.0  0.8573653634493322  0.7326883387112416  0.18210034750580928  1.0000
  C   C44       1.0  0.14262797857548284  0.2673070357519194  0.8179031861809702  1.0000
  C   C45       1.0  0.8020035711341008  0.7911133677701443  0.2415812949909508  1.0000
  C   C46       1.0  0.19799473726964578  0.20889143869497673  0.7584154253656621  1.0000
  C   C47       1.0  0.8713275679426927  0.5916803970280001  0.12178548563301207  1.0000
  C   C48       1.0  0.12867742259887646  0.4083173200901555  0.8782214772464414  1.0000
  C   C49       1.0  0.7839228747819788  0.3705210944130712  0.9741095581354101  1.0000
  C   C50       1.0  0.21608270862562762  0.6294744447707856  0.025890779373192285  1.0000
  C   C51       1.0  0.7257615228363576  0.3096542441935952  0.9660237417290816  1.0000
  C   C52       1.0  0.27424112573236664  0.6903397477449931  0.03397559850448319  1.0000
  C   C53       1.0  0.6947757592403148  0.22030260128632054  0.03817739589587887  1.0000
  C   C54       1.0  0.30522761663766557  0.7796922126826332  0.9618196875845727  1.0000
  C   C55       1.0  0.7231331569220597  0.19524708541165137  0.11565004444425858  1.0000
  C   C56       1.0  0.2768650000649443  0.8047584831465641  0.8843470792191327  1.0000
  C   C57       1.0  0.7820029036796042  0.26029891210495754  0.1181619392652138  1.0000
  C   C58       1.0  0.21800128774557231  0.7396996877440146  0.8818390612300532  1.0000
  C   C59       1.0  0.6799371791775214  0.048258601353474304  0.048335980055064516  1.0000
  C   C60       1.0  0.3200766918604215  0.9517391611196403  0.951672409718526  1.0000
  C   C61       1.0  0.5393550776252738  0.20430503762855076  0.006896220157017302  1.0000
  C   C62       1.0  0.46065093443068156  0.7956899561521878  0.9930928831437811  1.0000
  C   C63       1.0  0.6635122209503377  0.8806584692271642  0.04484948610179647  1.0000
  C   C64       1.0  0.3364936919216816  0.11933846146683179  0.955158625428055  1.0000
  C   C65       1.0  0.622368863648667  0.9857637435242953  0.033477289960018045  1.0000
  C   C66       1.0  0.37763804856258076  0.014232460937208206  0.9665289616366052  1.0000
  C   C67       1.0  0.5270564060180688  0.031459683289107  0.00704866230599071  1.0000
  C   C68       1.0  0.47295445577303497  0.9685373542235003  0.9929561249157215  1.0000
  C   C69       1.0  0.48396283270562174  0.13786440990825352  0.9945298495602016  1.0000
  C   C70       1.0  0.5160427507019847  0.8621311292756033  0.005470487948400698  1.0000
  C   C71       1.0  0.38903691025088694  0.18069844069638924  0.9692575250984703  1.0000
  C   C72       1.0  0.6109670389187868  0.8192970749195967  0.030743318796112508  1.0000
  C   C73       1.0  0.9189358340191517  0.12631772512368403  0.8435135388741203  1.0000
  C   C74       1.0  0.08105552472898125  0.8736791138428046  0.15649311296237303  1.0000
  C   C75       1.0  0.9869445871832524  0.0451495368176111  0.8852874372964121  1.0000
  C   C76       1.0  0.013053702188884025  0.9548497185602474  0.1147169422900376  1.0000
  C   C77       1.0  0.9806502981173821  0.9430685066571699  0.8985944468982366  1.0000
  C   C78       1.0  0.019354150965057198  0.0569331894631233  0.1014061084809867  1.0000
  C   C79       1.0  0.907425223635549  0.9226893172560794  0.8689021592315528  1.0000
  C   C80       1.0  0.09258076884606226  0.07730855610600432  0.131097329854228  1.0000
  C   C81       1.0  0.8388995581274868  0.0038732213807293075  0.8280206139219074  1.0000
  C   C82       1.0  0.161103057036918  0.9961198640047687  0.17198554360555815  1.0000
  C   C83       1.0  0.8421878238791295  0.10728592806764682  0.8157425856873457  1.0000
  C   C84       1.0  0.15781783653726209  0.8927096713078698  0.18425474323763782  1.0000
  C   C85       1.0  0.7675644031484408  0.19486450836230768  0.7773241754115789  1.0000
  C   C86       1.0  0.23244437432708048  0.805131900242053  0.22267254404820844  1.0000
  C   C87       1.0  0.6728234124110272  0.19030304409180593  0.7697561850241001  1.0000
  C   C88       1.0  0.3271844437630944  0.8096988075092213  0.2302379421326321  1.0000
  C   C89       1.0  0.5722112671237268  0.30976316883707966  0.4426167601826307  1.0000
  C   C90       1.0  0.42779303780168476  0.690250367474164  0.5573700834771529  1.0000
  C   C91       1.0  0.6376203207779979  0.2175826394478975  0.4730171706825884  1.0000
  C   C92       1.0  0.36237600694987276  0.7824245139969719  0.526977053963286  1.0000
  C   C93       1.0  0.6740483352622418  0.14295468008081974  0.42783744016521297  1.0000
  C   C94       1.0  0.32594771783483617  0.8570531391504872  0.5721620015212352  1.0000
  C   C95       1.0  0.643600993905551  0.16198646899405136  0.3522377002554791  1.0000
  C   C96       1.0  0.3563899922600341  0.8380229120648296  0.647758651751971  1.0000
  C   C97       1.0  0.5778080964487272  0.25476461375143344  0.3219187838567308  1.0000
  C   C98       1.0  0.42219378689424736  0.7452442547121622  0.6780690596012349  1.0000
  C   C99       1.0  0.5405428061277673  0.33017844204673  0.3665980293225886  1.0000
  C   C100      1.0  0.45945393067410817  0.6698310455763591  0.6333953469004642  1.0000
  C   C101      1.0  0.47193176579143165  0.4266727085595008  0.33230125536167787  1.0000
  C   C102      1.0  0.5280628994958078  0.5733352797172486  0.6676890652431738  1.0000
  C   C103      1.0  0.4123382590660469  0.49668344218673616  0.37596671636588036  1.0000
  C   C104      1.0  0.5876609280636983  0.503321424215649  0.6240273439308484  1.0000
  N   N1        1.0  0.491691074806411  0.9893232044387761  0.3880061857143885  1.0000
  N   N2        1.0  0.5083012689082336  0.010677552829392296  0.6119977642529478  1.0000
  N   N3        1.0  0.6261546523473313  0.8825144124832037  0.4984419648689736  1.0000
  N   N4        1.0  0.37384474520536765  0.11748885750299112  0.5015548991145308  1.0000
  N   N5        1.0  0.8116055519302633  0.346345749356928  0.048910133616928364  1.0000
  N   N6        1.0  0.18840156050380585  0.6536506116028916  0.951088295662295  1.0000
  N   N7        1.0  0.6361200546606935  0.1555699935883581  0.03131855364531334  1.0000
  N   N8        1.0  0.3638763879924624  0.844421521492798  0.9686864159456476  1.0000
  O   O1        1.0  0.997657405418714  0.33405715540028075  0.13295223574506562  1.0000
  O   O2        1.0  0.0023163810143742906  0.6659745986958397  0.8670756579954997  1.0000
  O   O3        1.0  0.12803054179003936  0.4409022806604029  0.05765408168621629  1.0000
  O   O4        1.0  0.871994655616376  0.5590859931457146  0.9423318387749403  1.0000
  O   O5        1.0  0.960527905630279  0.6219100513784356  0.06044783882586564  1.0000
  O   O6        1.0  0.03948284211785585  0.37808048034050057  0.9395738317864825  1.0000
  O   O7        1.0  0.8302155960632901  0.5147213537061931  0.13267943931808893  1.0000
  O   O8        1.0  0.16977223306856357  0.4852936035342028  0.8673066559311591  1.0000
  O   O9        1.0  0.7619561961415611  0.012998654291585901  0.07282206379097295  1.0000
  O   O10       1.0  0.23804861580961056  0.9870053398919368  0.9271794483155913  1.0000
  O   O11       1.0  0.5055302116663184  0.2971253094920527  0.9982854049856655  1.0000
  O   O12       1.0  0.49448072007698574  0.7028659929345412  0.0016974072326476678  1.0000
