data_image0
_chemical_formula_structural       U3H10C4O14
_chemical_formula_sum              "U3 H10 C4 O14"
_cell_length_a       6.974097992076721
_cell_length_b       7.260614542454417
_cell_length_c       8.340462985720942
_cell_angle_alpha    107.069753024958
_cell_angle_beta     96.91251337317935
_cell_angle_gamma    111.77643823014589

_space_group_name_H-M_alt    "P 1"
_space_group_IT_number       1

loop_
  _space_group_symop_operation_xyz
  'x, y, z'

loop_
  _atom_site_type_symbol
  _atom_site_label
  _atom_site_symmetry_multiplicity
  _atom_site_fract_x
  _atom_site_fract_y
  _atom_site_fract_z
  _atom_site_occupancy
  U   U1        1.0  0.9999889343428593  0.49997821375972507  0.9999877896964618  1.0000
  U   U2        1.0  0.46786607330698626  0.3605994522784215  0.1557827999681223  1.0000
  U   U3        1.0  0.5321328029418028  0.6393915156620479  0.8442094007629705  1.0000
  H   H1        1.0  0.0633569447940658  0.2547128403366941  0.5001918193023371  1.0000
  H   H2        1.0  0.9366488512604934  0.7452941379846367  0.49981106094855937  1.0000
  H   H3        1.0  0.91622596276018  0.0082464277531002  0.32324292656728204  1.0000
  H   H4        1.0  0.0837791226189566  0.9917556717851995  0.6767502668545688  1.0000
  H   H5        1.0  0.7773351228638745  0.1520944445641348  0.4280699986955697  1.0000
  H   H6        1.0  0.22266022062942176  0.8478982287048423  0.5719318843857337  1.0000
  H   H7        1.0  0.4152523916700447  0.2284684795970833  0.4647059282959631  1.0000
  H   H8        1.0  0.5847527454251562  0.7715401890661936  0.5353057067156897  1.0000
  H   H9        1.0  0.317649773743014  0.006364202809372401  0.2924848405896725  1.0000
  H   H10       1.0  0.6823682711505727  0.9936476352540354  0.7075276276395143  1.0000
  C   C1        1.0  0.951590640208096  0.28024873789588156  0.2634684285690909  1.0000
  C   C2        1.0  0.04840811025117379  0.7197551501329755  0.7365413939707963  1.0000
  C   C3        1.0  0.9238481952386053  0.16715074135770183  0.38735556637463736  1.0000
  C   C4        1.0  0.0761526725676234  0.8328514692885705  0.6126468433632795  1.0000
  O   O1        1.0  0.13473462032370526  0.7586075801857675  0.1816624294256926  1.0000
  O   O2        1.0  0.8652734276043503  0.2413913288842622  0.8183302462972223  1.0000
  O   O3        1.0  0.5783368340299049  0.6098351367650707  0.34753814223371643  1.0000
  O   O4        1.0  0.42165822887865545  0.39016704931393054  0.6524613073403813  1.0000
  O   O5        1.0  0.35045490502026405  0.10269782731375439  0.9817969520511128  1.0000
  O   O6        1.0  0.6495421407087322  0.8973090732513713  0.018197876447032947  1.0000
  O   O7        1.0  0.11032870036572723  0.3115276254537136  0.1950147413439538  1.0000
  O   O8        1.0  0.8896600961070719  0.6884633744870642  0.8049789001966873  1.0000
  O   O9        1.0  0.8221255958988538  0.3558660596523141  0.22208114853695096  1.0000
  O   O10       1.0  0.17787999993975492  0.6441570278742077  0.7779401474679021  1.0000
  O   O11       1.0  0.3142116991378145  0.49547738982315076  0.9964055801457476  1.0000
  O   O12       1.0  0.6857800913312957  0.5045071896272617  0.0035831382437620488  1.0000
  O   O13       1.0  0.42294008647969866  0.15973112635998635  0.3442301860256052  1.0000
  O   O14       1.0  0.5770550194079149  0.8402711006243067  0.6557728750555255  1.0000
