data_image0
_chemical_formula_structural       Co4H68C120N12O24
_chemical_formula_sum              "Co4 H68 C120 N12 O24"
_cell_length_a       10.035232700535184
_cell_length_b       12.459205611171576
_cell_length_c       29.39013461061451
_cell_angle_alpha    89.99853070420826
_cell_angle_beta     89.99881912341169
_cell_angle_gamma    109.97559285879036

_space_group_name_H-M_alt    "P 1"
_space_group_IT_number       1

loop_
  _space_group_symop_operation_xyz
  'x, y, z'

loop_
  _atom_site_type_symbol
  _atom_site_label
  _atom_site_symmetry_multiplicity
  _atom_site_fract_x
  _atom_site_fract_y
  _atom_site_fract_z
  _atom_site_occupancy
  Co  Co1       1.0  0.04355966931754548  0.3615111463143349  0.05956781446145949  1.0000
  Co  Co2       1.0  0.4564462656430379  0.638496906703537  0.5595716514035444  1.0000
  Co  Co3       1.0  0.9564410777488918  0.6384918862822744  0.9404357130971588  1.0000
  Co  Co4       1.0  0.5435655704587036  0.36150644140114696  0.4404311956121346  1.0000
  H   H1        1.0  0.4040690140633387  0.8559114896594833  0.8080774898252016  1.0000
  H   H2        1.0  0.09590998522494941  0.14407118155862259  0.3080705880581859  1.0000
  H   H3        1.0  0.5959078901872062  0.14408917659893916  0.19191821207891016  1.0000
  H   H4        1.0  0.9040739678405245  0.8559685175287655  0.6919121840938516  1.0000
  H   H5        1.0  0.7192513715961298  0.2743610827202119  0.9553300049114029  1.0000
  H   H6        1.0  0.7807610501765225  0.7256235240698315  0.45533159556753583  1.0000
  H   H7        1.0  0.28075075733595883  0.7256377686117547  0.0446670579111128  1.0000
  H   H8        1.0  0.2192517942554701  0.2743798529310126  0.5446661476908687  1.0000
  H   H9        1.0  0.3015194915866815  0.3029017204253178  0.9482068802870385  1.0000
  H   H10       1.0  0.1984946576650373  0.6970831125149742  0.4482110945042449  1.0000
  H   H11       1.0  0.6984736094061219  0.6970918090098904  0.05179120334897649  1.0000
  H   H12       1.0  0.8015205087558999  0.30292370698339977  0.5517924329803208  1.0000
  H   H13       1.0  0.5403816352338922  0.38027619697044185  0.07208471213167658  1.0000
  H   H14       1.0  0.9596216932796936  0.6197353828288001  0.5720917971355914  1.0000
  H   H15       1.0  0.4596105025653258  0.6197122400218688  0.9279140520367049  1.0000
  H   H16       1.0  0.040382010634274955  0.380275331379977  0.4279124108698155  1.0000
  H   H17       1.0  0.3408598992829042  0.3227651872460413  0.8786897607920067  1.0000
  H   H18       1.0  0.15915714790680371  0.6772161478804577  0.3786852985903479  1.0000
  H   H19       1.0  0.6591257938732157  0.6772298196080655  0.12131240586570867  1.0000
  H   H20       1.0  0.8408533742494058  0.3227837863633737  0.6213127849459923  1.0000
  H   H21       1.0  0.32139139367675545  0.2617872947025504  0.7990699175195315  1.0000
  H   H22       1.0  0.17861494333266853  0.7382028027127134  0.2990625911504806  1.0000
  H   H23       1.0  0.678609308619528  0.7382208017723428  0.20093020750874754  1.0000
  H   H24       1.0  0.821394809447334  0.2618080838639543  0.7009348118271888  1.0000
  H   H25       1.0  0.6382751983511525  0.104714806525287  0.8217061366883696  1.0000
  H   H26       1.0  0.8617276515888793  0.8952703644662992  0.32170558199781135  1.0000
  H   H27       1.0  0.3617111294563955  0.8952844392560522  0.1782953494429336  1.0000
  H   H28       1.0  0.1382787931932654  0.1047345187198729  0.6782942027770602  1.0000
  H   H29       1.0  0.6479031498746224  0.15638178781552628  0.9021307597766111  1.0000
  H   H30       1.0  0.8521086473434779  0.8435953489589353  0.4021305114511263  1.0000
  H   H31       1.0  0.352080549611614  0.8436106298549007  0.0978703861521737  1.0000
  H   H32       1.0  0.1478971628031687  0.15640529531442127  0.5978696135999256  1.0000
  H   H33       1.0  0.4610705749844258  0.32111235122888354  0.739275200159355  1.0000
  H   H34       1.0  0.0389340223576014  0.6788766946305246  0.23927296339364548  1.0000
  H   H35       1.0  0.5389220402129382  0.6788980477601213  0.26072288338442456  1.0000
  H   H36       1.0  0.9610725346527006  0.32111552913381297  0.7607288629527389  1.0000
  H   H37       1.0  0.7026657124969803  0.029579999990787104  0.6272012553938282  1.0000
  H   H38       1.0  0.7973621969546586  0.9704083404373377  0.12719421151654586  1.0000
  H   H39       1.0  0.2973585270317828  0.9704270778864482  0.3727961475518739  1.0000
  H   H40       1.0  0.20263846947867853  0.0295659888266471  0.872792303690936  1.0000
  H   H41       1.0  0.6741005881940084  0.8558418904861825  0.5799628785247533  1.0000
  H   H42       1.0  0.8259112105597878  0.14415408918399916  0.07995802959812438  1.0000
  H   H43       1.0  0.3259092544450085  0.1441588686222133  0.4200345245090346  1.0000
  H   H44       1.0  0.17409236752067161  0.855832985181216  0.9200349502819662  1.0000
  H   H45       1.0  0.27748349481654344  0.6857796829285051  0.6344529542377727  1.0000
  H   H46       1.0  0.22251231197571292  0.3142320664141208  0.1344510519957822  1.0000
  H   H47       1.0  0.7225172076868916  0.31422841373379373  0.365542747537539  1.0000
  H   H48       1.0  0.7774750460850441  0.6857646759061848  0.8655568989000244  1.0000
  H   H49       1.0  0.2960920196720522  0.846547851741974  0.6878430349488838  1.0000
  H   H50       1.0  0.20390586515362938  0.15345704237763158  0.18784442236708535  1.0000
  H   H51       1.0  0.703917733171693  0.15346303489235416  0.31215300702787363  1.0000
  H   H52       1.0  0.7960785585721483  0.8465294865066966  0.8121618273452781  1.0000
  H   H53       1.0  0.5762268527825185  0.2811225237595139  0.590728215374547  1.0000
  H   H54       1.0  0.923752245611482  0.7188834601834202  0.0907298517439443  1.0000
  H   H55       1.0  0.4237762166553054  0.7188839516805956  0.4092729304047609  1.0000
  H   H56       1.0  0.07623942872957197  0.281119314380298  0.9092716343480589  1.0000
  H   H57       1.0  0.5584846654505496  0.4409704009379566  0.5433584334328785  1.0000
  H   H58       1.0  0.9414978842809492  0.559037036266581  0.0433610406838412  1.0000
  H   H59       1.0  0.4415177018937797  0.5590394311328807  0.4566444135814435  1.0000
  H   H60       1.0  0.05851971680327493  0.4409605667111336  0.9566407855920076  1.0000
  H   H61       1.0  0.3046211991530541  0.5222847559949101  0.6392009369441283  1.0000
  H   H62       1.0  0.19538130959261935  0.4777166644911973  0.1391950299326155  1.0000
  H   H63       1.0  0.6953695118828734  0.4777129260250064  0.360803611431848  1.0000
  H   H64       1.0  0.804622969943928  0.5222670526666774  0.8608098587215947  1.0000
  H   H65       1.0  0.32323107365247244  0.3732962312680356  0.6923862120757815  1.0000
  H   H66       1.0  0.17676542297202502  0.6267031859342538  0.19237673960697782  1.0000
  H   H67       1.0  0.6767660369536302  0.6266999444944898  0.3076179960348568  1.0000
  H   H68       1.0  0.8232273492873928  0.37328948981230786  0.8076254270377348  1.0000
  C   C1        1.0  0.7673024444595812  0.3290207553568933  0.04381379381220539  1.0000
  C   C2        1.0  0.7327051160220038  0.6709662517603261  0.5438175509375468  1.0000
  C   C3        1.0  0.23270165577324783  0.6709832171123153  0.9561822482238467  1.0000
  C   C4        1.0  0.2673046143729181  0.32904716675548673  0.45617815077496  1.0000
  C   C5        1.0  0.6406324852851882  0.32506445521332233  0.01618664299572  1.0000
  C   C6        1.0  0.8593788423247659  0.6749434981224312  0.5161907865997506  1.0000
  C   C7        1.0  0.3593658723821065  0.6749427304725373  0.9838114405448835  1.0000
  C   C8        1.0  0.14062155395785683  0.3250612130273893  0.48380797744761134  1.0000
  C   C9        1.0  0.6299313442095953  0.29201944204029207  0.9705074361623571  1.0000
  C   C10       1.0  0.8700782293006527  0.7079731238472818  0.4705119701243844  1.0000
  C   C11       1.0  0.370071045886327  0.7079878584229531  0.029489286361886996  1.0000
  C   C12       1.0  0.1299269687708744  0.2920207497326785  0.5294864537155135  1.0000
  C   C13       1.0  0.508329624379165  0.28263995525098545  0.944926561829952  1.0000
  C   C14       1.0  0.991680680194634  0.7173530426339596  0.4449280566679689  1.0000
  C   C15       1.0  0.49166680683722325  0.7173570454914255  0.0550742437763105  1.0000
  C   C16       1.0  0.008328856223563703  0.2826443309619719  0.5550724086378622  1.0000
  C   C17       1.0  0.39938912557285283  0.31092004034024256  0.9661376632262628  1.0000
  C   C18       1.0  0.10061762429531032  0.6890639548208597  0.4661386026242411  1.0000
  C   C19       1.0  0.6006072607777638  0.6890820241939647  0.0338617813510282  1.0000
  C   C20       1.0  0.8993995582921316  0.3109429220229599  0.5338652651028325  1.0000
  C   C21       1.0  0.4116790176075896  0.34795254044101387  0.0113435539356317  1.0000
  C   C22       1.0  0.08833277084939792  0.6520604808601148  0.5113513042560456  1.0000
  C   C23       1.0  0.5883140833055336  0.6520409889221169  0.9886562309515198  1.0000
  C   C24       1.0  0.9116779895915672  0.3479504340072666  0.48865528547392495  1.0000
  C   C25       1.0  0.5319110645151781  0.35396282925676553  0.0365712723379588  1.0000
  C   C26       1.0  0.9680889747615782  0.6460397532457877  0.5365766408977635  1.0000
  C   C27       1.0  0.46808433627271745  0.6460366747880996  0.9634268112563118  1.0000
  C   C28       1.0  0.03190611983736597  0.3539563653154402  0.4634238244680873  1.0000
  C   C29       1.0  0.2940118700236383  0.3747577191786888  0.03397592079937079  1.0000
  C   C30       1.0  0.20598750141182623  0.6252395847562083  0.5339831058554338  1.0000
  C   C31       1.0  0.7059964785693681  0.6252598806594207  0.966024884648327  1.0000
  C   C32       1.0  0.7939878269644681  0.3747492178181418  0.4660245048785683  1.0000
  C   C33       1.0  0.49602733557851764  0.24468758363388327  0.8970304744251789  1.0000
  C   C34       1.0  0.003975873934933759  0.7552943849412869  0.3970300243360896  1.0000
  C   C35       1.0  0.5039666835508781  0.7553161018630302  0.10296965065222707  1.0000
  C   C36       1.0  0.9960236489493753  0.24469510623971047  0.6029707813006693  1.0000
  C   C37       1.0  0.4042066109291725  0.2726641593105156  0.8667745846610015  1.0000
  C   C38       1.0  0.09579614726911245  0.7273118379243114  0.36677173058677676  1.0000
  C   C39       1.0  0.595791769171008  0.7273404944794492  0.13322417939408376  1.0000
  C   C40       1.0  0.9042123811216031  0.27268550704934563  0.6332273737220075  1.0000
  C   C41       1.0  0.395317445648466  0.24016756966128835  0.8214027707585245  1.0000
  C   C42       1.0  0.1046858586755946  0.7598130109983786  0.3213981281563889  1.0000
  C   C43       1.0  0.6046826221079301  0.7598362879872838  0.17859565304457445  1.0000
  C   C44       1.0  0.895318614933288  0.24018675116587218  0.6785999554031291  1.0000
  C   C45       1.0  0.4793438985673718  0.1795365557130921  0.8039537476660357  1.0000
  C   C46       1.0  0.020655059028818864  0.8204377358150764  0.3039487061656629  1.0000
  C   C47       1.0  0.520666839807227  0.8204768913817448  0.1960443357942054  1.0000
  C   C48       1.0  0.9793347117085247  0.17955232228409554  0.6960473360005537  1.0000
  C   C49       1.0  0.5693927305099536  0.14969207740986687  0.834148069055608  1.0000
  C   C50       1.0  0.9306133599257721  0.8502879438812344  0.3341461488202668  1.0000
  C   C51       1.0  0.4305989439107736  0.850310697225936  0.16585171578525856  1.0000
  C   C52       1.0  0.0693917932003032  0.1497109934184451  0.6658526152418034  1.0000
  C   C53       1.0  0.5765958798119329  0.18090651668893534  0.8797386771915184  1.0000
  C   C54       1.0  0.9234086359460105  0.819068873987959  0.379737838314  1.0000
  C   C55       1.0  0.4233951375563622  0.8190945509443638  0.1202604271608152  1.0000
  C   C56       1.0  0.07659956385474231  0.1809276174267822  0.6202622867514264  1.0000
  C   C57       1.0  0.4785738256699546  0.1576417248830992  0.7546839382524907  1.0000
  C   C58       1.0  0.02143704219208334  0.8423479232032564  0.2546796676724695  1.0000
  C   C59       1.0  0.5214312824469403  0.8423622760786385  0.24531652703267065  1.0000
  C   C60       1.0  0.9785781918780786  0.15765130092457014  0.7453184158505264  1.0000
  C   C61       1.0  0.46839143848036013  0.24262864587956295  0.7250773089122902  1.0000
  C   C62       1.0  0.031604758875914726  0.7573596379136234  0.22507425114822868  1.0000
  C   C63       1.0  0.5316052539476602  0.7573768040373708  0.27492213564501355  1.0000
  C   C64       1.0  0.9683914335617204  0.2426263817583632  0.7749285960214747  1.0000
  C   C65       1.0  0.47504612065397833  0.23042328420874716  0.6779921649474401  1.0000
  C   C66       1.0  0.02494236741538466  0.7695711769550613  0.1779907212578422  1.0000
  C   C67       1.0  0.5249582854331578  0.7695840734413791  0.3220086405718163  1.0000
  C   C68       1.0  0.9750440725884533  0.2304154093756168  0.8220134869454296  1.0000
  C   C69       1.0  0.5015871520688506  0.05490629412375368  0.6867487047812945  1.0000
  C   C70       1.0  0.9984246803366689  0.945085987675952  0.18674318846847623  1.0000
  C   C71       1.0  0.49843068777819605  0.9451022899099754  0.3132514201813379  1.0000
  C   C72       1.0  0.0015711837022251976  0.054899178610106986  0.8132565964551332  1.0000
  C   C73       1.0  0.4928831292357715  0.0590058585863602  0.7346508422436173  1.0000
  C   C74       1.0  0.00713969611490486  0.9409857739057444  0.23464387602761855  1.0000
  C   C75       1.0  0.5071256825444975  0.9409974034352825  0.2653530255343384  1.0000
  C   C76       1.0  0.9928802948305845  0.0590076764007677  0.765353527009637  1.0000
  C   C77       1.0  0.5024127477658312  0.9611865434196503  0.7625024056965088  1.0000
  C   C78       1.0  0.9976077674684736  0.03880145669952381  0.2624961090645073  1.0000
  C   C79       1.0  0.49758764808653677  0.038818167340956194  0.2375055451070125  1.0000
  C   C80       1.0  0.0023917555592589805  0.9611880346112186  0.7375016343201961  1.0000
  C   C81       1.0  0.5016430664535535  0.95122700630651  0.6617288527537893  1.0000
  C   C82       1.0  0.9983717440332358  0.048771634356249594  0.161725161420982  1.0000
  C   C83       1.0  0.4983717491198193  0.04878149168742141  0.3382712722204246  1.0000
  C   C84       1.0  0.0016204610965005206  0.9512092069771966  0.8382749637903968  1.0000
  C   C85       1.0  0.6084735701179369  0.9537433487044562  0.6307462814257718  1.0000
  C   C86       1.0  0.8915434853704766  0.04625621023959069  0.1307420417146119  1.0000
  C   C87       1.0  0.39153686221112594  0.046266713036473596  0.369251121554008  1.0000
  C   C88       1.0  0.10846283351441599  0.9537250330453586  0.8692478759358621  1.0000
  C   C89       1.0  0.5925185181140195  0.8582725863395381  0.6039810879006067  1.0000
  C   C90       1.0  0.9074859679561488  0.14172374659622727  0.10397702793520117  1.0000
  C   C91       1.0  0.40749226519008624  0.14173579702116257  0.3960169955876864  1.0000
  C   C92       1.0  0.0925125920373517  0.8582606524157724  0.896017993479603  1.0000
  C   C93       1.0  0.3726753613770201  0.7611952240769144  0.6356913757119712  1.0000
  C   C94       1.0  0.1273169091172548  0.2388230762949064  0.1356913534089657  1.0000
  C   C95       1.0  0.6273310161542727  0.23881725484019262  0.3643053467687664  1.0000
  C   C96       1.0  0.8726674024600457  0.7611761120833195  0.8643111534807488  1.0000
  C   C97       1.0  0.38314199982674074  0.8515384389126625  0.6647465020020888  1.0000
  C   C98       1.0  0.1168573914998632  0.14846670541869136  0.1647438208518821  1.0000
  C   C99       1.0  0.616865340818464  0.14847913237526458  0.33525124119741895  1.0000
  C   C100      1.0  0.8831280855653534  0.8515147886997382  0.8352556238801085  1.0000
  C   C101      1.0  0.4590512715829008  0.31829910258728933  0.6469735024049257  1.0000
  C   C102      1.0  0.04095252502710875  0.6817017164006172  0.1469736011407079  1.0000
  C   C103      1.0  0.5409551730876957  0.6817057804979639  0.3530286641215454  1.0000
  C   C104      1.0  0.9590473261443931  0.3182886280654103  0.8530326484937374  1.0000
  C   C105      1.0  0.5193340533274055  0.33536797182343747  0.6034146919755017  1.0000
  C   C106      1.0  0.980650980827818  0.6646295423322498  0.10341549441935877  1.0000
  C   C107      1.0  0.4806650287069161  0.6646333251916444  0.39658577334684947  1.0000
  C   C108      1.0  0.019344883195138586  0.33535562393939233  0.896584630754482  1.0000
  C   C109      1.0  0.5079843447417218  0.4236349302638089  0.5766062665167623  1.0000
  C   C110      1.0  0.9919887362613411  0.5763661323682571  0.0766059279746898  1.0000
  C   C111      1.0  0.4920106599185275  0.5763713156936133  0.42339590004412025  1.0000
  C   C112      1.0  0.008015827158750762  0.42362350228447815  0.9233931763916203  1.0000
  C   C113      1.0  0.36887444793238444  0.47022895285486743  0.6308464870143382  1.0000
  C   C114      1.0  0.1311167237994583  0.5297753632529735  0.1308404716917764  1.0000
  C   C115      1.0  0.6311195710057831  0.5297747324690576  0.3691577210658039  1.0000
  C   C116      1.0  0.8688830377361186  0.4702251088831346  0.8691610143833584  1.0000
  C   C117      1.0  0.3798995927063516  0.38678383746707823  0.660111833688475  1.0000
  C   C118      1.0  0.12009019672820644  0.6132163490220606  0.16010973276771515  1.0000
  C   C119      1.0  0.6200904614364902  0.6132121376944967  0.339888631696688  1.0000
  C   C120      1.0  0.8799052036134967  0.3867831546191808  0.8398978778329393  1.0000
  N   N1        1.0  0.49569246919828897  0.13883496779584448  0.6591771022075079  1.0000
  N   N2        1.0  0.004294473385520726  0.8611550843981204  0.1591747893128144  1.0000
  N   N3        1.0  0.5043169999371956  0.8611700015021883  0.3408209813046453  1.0000
  N   N4        1.0  0.9956765618923101  0.1388251547144463  0.840823974978747  1.0000
  N   N5        1.0  0.47504285184002276  0.7637162560736356  0.6054196034727893  1.0000
  N   N6        1.0  0.02495883349894969  0.23628284823237064  0.10541763915115608  1.0000
  N   N7        1.0  0.5249683275757846  0.23628538536010515  0.3945747372991163  1.0000
  N   N8        1.0  0.9750369856741798  0.7637073818454782  0.8945807847434892  1.0000
  N   N9        1.0  0.4357063171420137  0.4915757042830151  0.5902961212105992  1.0000
  N   N10       1.0  0.0642796248681279  0.5084267259078317  0.09029185543364798  1.0000
  N   N11       1.0  0.5642920401906368  0.5084314811001249  0.4097091075847884  1.0000
  N   N12       1.0  0.9357203164332901  0.49155349133498305  0.9097086100030294  1.0000
  O   O1        1.0  0.8773755929381652  0.3270857162107176  0.0205770318251197  1.0000
  O   O2        1.0  0.6226343826077496  0.6729142407091117  0.5205839574554361  1.0000
  O   O3        1.0  0.12262079368334607  0.6729163485685489  0.9794166284982919  1.0000
  O   O4        1.0  0.3773686869256849  0.3270922348174921  0.47941514682250386  1.0000
  O   O5        1.0  0.7655101191926407  0.33385069150158125  0.0863287199637455  1.0000
  O   O6        1.0  0.7344784050457919  0.6661246873372733  0.5863325178962526  1.0000
  O   O7        1.0  0.23449834194722996  0.6661542492030179  0.913667322050898  1.0000
  O   O8        1.0  0.26550606413535865  0.3338567782886273  0.4136625035866358  1.0000
  O   O9        1.0  0.17654908123717658  0.3540725688267015  0.011413113798518299  1.0000
  O   O10       1.0  0.32345163417957673  0.6459375992466148  0.5114205665427463  1.0000
  O   O11       1.0  0.823464217936987  0.6459553018649231  0.9885880318239869  1.0000
  O   O12       1.0  0.676552442552712  0.3540689041526547  0.4885975917441029  1.0000
  O   O13       1.0  0.30592699523554506  0.41126852205493236  0.07426980681592708  1.0000
  O   O14       1.0  0.19408093767886214  0.5887366926808966  0.5742785070134031  1.0000
  O   O15       1.0  0.6940805697225584  0.588723730259602  0.9257350817786473  1.0000
  O   O16       1.0  0.8058883196853515  0.41125446968093365  0.4257291037297435  1.0000
  O   O17       1.0  0.6014232344772665  0.9251311574511335  0.7607183111144167  1.0000
  O   O18       1.0  0.8985786455574497  0.07485477094756018  0.2607031530797244  1.0000
  O   O19       1.0  0.3985610095464197  0.0748756263841344  0.23928759823549225  1.0000
  O   O20       1.0  0.10141792087770805  0.925127038981671  0.7392884658545427  1.0000
  O   O21       1.0  0.3884817263020182  0.9168389989160131  0.7900150241538596  1.0000
  O   O22       1.0  0.11152135914683471  0.0831593466862088  0.2900066453466863  1.0000
  O   O23       1.0  0.6114950652104413  0.083174326302931  0.2099895241860494  1.0000
  O   O24       1.0  0.8884925749974573  0.9168727632209508  0.709987014744847  1.0000
