data_image0
_chemical_formula_structural       Zn2H12C27N2O10
_chemical_formula_sum              "Zn2 H12 C27 N2 O10"
_cell_length_a       9.880312038910839
_cell_length_b       10.963532889917248
_cell_length_c       11.866544963748064
_cell_angle_alpha    90.12037315841243
_cell_angle_beta     89.63368555466612
_cell_angle_gamma    89.70316358127513

_space_group_name_H-M_alt    "P 1"
_space_group_IT_number       1

loop_
  _space_group_symop_operation_xyz
  'x, y, z'

loop_
  _atom_site_type_symbol
  _atom_site_label
  _atom_site_symmetry_multiplicity
  _atom_site_fract_x
  _atom_site_fract_y
  _atom_site_fract_z
  _atom_site_occupancy
  Zn  Zn1       1.0  0.3558400421119643  0.4950157352393916  0.5011961480420127  1.0000
  Zn  Zn2       1.0  0.6502423503809355  0.4922018600116545  0.5040676679417899  1.0000
  H   H1        1.0  0.5440872080918382  0.8655392297408612  0.6643253071566306  1.0000
  H   H2        1.0  0.12638146066837663  0.8297447925092737  0.7482693034768746  1.0000
  H   H3        1.0  0.2542936474914939  0.6778133670351636  0.6351522460951957  1.0000
  H   H4        1.0  0.1331216476959867  0.3571112236580944  0.40060858393565013  1.0000
  H   H5        1.0  0.43786290879576467  0.7839885587820277  0.2773854962908047  1.0000
  H   H6        1.0  0.39791897314484  0.9123268155290418  0.11025144306074001  1.0000
  H   H7        1.0  0.3964933994745081  0.14004069412111161  0.1276139259205848  1.0000
  H   H8        1.0  0.43748868666533264  0.23758014991937418  0.3110952059136736  1.0000
  H   H9        1.0  0.8765840242104017  0.3573500695958103  0.4005179629657007  1.0000
  H   H10       1.0  0.7488472959265734  0.6725900244137933  0.6421806960591641  1.0000
  H   H11       1.0  0.8735324085974481  0.8260921275995441  0.7528694823331463  1.0000
  H   H12       1.0  0.5946951931301213  0.0746254721489024  0.862116097771903  1.0000
  C   C1        1.0  0.49234527079947554  0.7288237924669971  0.4858349231253953  1.0000
  C   C2        1.0  0.4161848697192667  0.9550372165709291  0.1918250700664359  1.0000
  C   C3        1.0  0.4157602878862788  0.08364095172774459  0.2015043076575012  1.0000
  C   C4        1.0  0.4392928174404673  0.1384367840464762  0.304149270591779  1.0000
  C   C5        1.0  0.464789874694901  0.06705001122290348  0.4017908254446994  1.0000
  C   C6        1.0  0.463834660770523  0.936467382998778  0.39191190939964576  1.0000
  C   C7        1.0  0.49269568327228086  0.865474267649482  0.4894799954919051  1.0000
  C   C8        1.0  0.5211576481517  0.9209532784018536  0.5907866467807709  1.0000
  C   C9        1.0  0.5189648502179338  0.04970740968709458  0.6018480519758854  1.0000
  C   C10       1.0  0.49195762498359846  0.1220425399049319  0.5082686835798286  1.0000
  C   C11       1.0  0.8585375863276921  0.673915372659195  0.6412223616471593  1.0000
  C   C12       1.0  0.5106222380981437  0.5045985376433038  0.7208508287794047  1.0000
  C   C13       1.0  0.9291403220940282  0.7592934614912962  0.70219248635825  1.0000
  C   C14       1.0  0.0722800311277965  0.7613783866093938  0.6994848077814666  1.0000
  C   C15       1.0  0.1445428625096099  0.6777329604491341  0.6362730079186179  1.0000
  C   C16       1.0  0.07513282350578268  0.5890375272310493  0.5723967801123777  1.0000
  C   C17       1.0  0.9294364360683429  0.5876188703637197  0.5741987448809881  1.0000
  C   C18       1.0  0.932701837337568  0.4236131156349288  0.45028012676204554  1.0000
  C   C19       1.0  0.0755177808881271  0.42373505136454515  0.4499733493623169  1.0000
  C   C20       1.0  0.4938238202552085  0.259499680204037  0.5133001339108958  1.0000
  C   C21       1.0  0.5119077019400465  0.48320957261805814  0.283463049271596  1.0000
  C   C22       1.0  0.5057700545837278  0.5043576726626924  0.8424376025729785  1.0000
  C   C23       1.0  0.506754164915705  0.5015886207045384  0.9454845799176184  1.0000
  C   C24       1.0  0.5086184846181183  0.4959501515915931  0.0590149922850927  1.0000
  C   C25       1.0  0.5114555995965162  0.48947305605846475  0.1619353189425539  1.0000
  C   C26       1.0  0.4390213383574846  0.8830303375137302  0.2850374731683871  1.0000
  C   C27       1.0  0.5431836313036769  0.10788657035742229  0.7126266335114693  1.0000
  N   N1        1.0  0.8614599516213771  0.5032863826320835  0.5108578809055544  1.0000
  N   N2        1.0  0.1448566427213365  0.5045310630426131  0.5092570464593535  1.0000
  O   O1        1.0  0.3811675412536458  0.6765097375813411  0.4631400757964172  1.0000
  O   O2        1.0  0.6031305734048615  0.6758311026415598  0.5094404689126577  1.0000
  O   O3        1.0  0.39952784626574817  0.5246004059074495  0.6699168594459479  1.0000
  O   O4        1.0  0.6263335504232331  0.48652561745329587  0.6765461345058483  1.0000
  O   O5        1.0  0.3796514401449258  0.31219862876245236  0.5239965735005043  1.0000
  O   O6        1.0  0.6083445603636761  0.30916302660371997  0.4975578121613751  1.0000
  O   O7        1.0  0.398151493897565  0.46186813146324124  0.3305461974383164  1.0000
  O   O8        1.0  0.6255971694483691  0.4997954356978198  0.3310362082496426  1.0000
  O   O9        1.0  0.5292462562634624  0.216364702179625  0.7339684803587901  1.0000
  O   O10       1.0  0.5831314829693071  0.0260925439327622  0.7934783457224057  1.0000
