data_image0
_chemical_formula_structural       ZnSiH20C24N4O4F6
_chemical_formula_sum              "Zn1 Si1 H20 C24 N4 O4 F6"
_cell_length_a       7.74480075321449
_cell_length_b       13.85691919293418
_cell_length_c       13.856879707074642
_cell_angle_alpha    89.77324592002043
_cell_angle_beta     86.24395286216672
_cell_angle_gamma    86.24463982471921

_space_group_name_H-M_alt    "P 1"
_space_group_IT_number       1

loop_
  _space_group_symop_operation_xyz
  'x, y, z'

loop_
  _atom_site_type_symbol
  _atom_site_label
  _atom_site_symmetry_multiplicity
  _atom_site_fract_x
  _atom_site_fract_y
  _atom_site_fract_z
  _atom_site_occupancy
  Zn  Zn1       1.0  0.4999827942528087  0.4999986192337358  0.4999999146141932  1.0000
  Si  Si1       1.0  0.999978968917809  0.5000010914004633  0.4999969318865071  1.0000
  H   H1        1.0  0.2531383862445011  0.499979680145131  0.3346561394039753  1.0000
  H   H2        1.0  0.26241810763298196  0.5000174163276297  0.15752127284345366  1.0000
  H   H3        1.0  0.8241700934816054  0.4999919172532542  0.16189402212913256  1.0000
  H   H4        1.0  0.7892876894406131  0.49995707676821866  0.33516852312340734  1.0000
  H   H5        1.0  0.17580679620576237  0.5000082185189639  0.838106828579285  1.0000
  H   H6        1.0  0.7375675875341374  0.49998489140261165  0.8424749195498507  1.0000
  H   H7        1.0  0.7468452330810039  0.500018287683197  0.6653415895138722  1.0000
  H   H8        1.0  0.21068765523214242  0.5000452271249926  0.6648273230328101  1.0000
  H   H9        1.0  0.2531377093088594  0.33465314536800156  0.4999771727142389  1.0000
  H   H10       1.0  0.26241885480580873  0.1575171938047149  0.5000185597511546  1.0000
  H   H11       1.0  0.8241705701832277  0.1618967782803296  0.49999192425809014  1.0000
  H   H12       1.0  0.7892895737813179  0.33517141757517516  0.49995392254354704  1.0000
  H   H13       1.0  0.1758060618805716  0.838105527285002  0.5000096485045377  1.0000
  H   H14       1.0  0.7375651860107626  0.8424771591655541  0.4999849421018041  1.0000
  H   H15       1.0  0.7468476335747598  0.665341206548689  0.5000190652839294  1.0000
  H   H16       1.0  0.21069007575430737  0.6648272725392272  0.5000461123675067  1.0000
  H   H17       1.0  0.8093381709305588  0.4999974190456057  0.04515227567757311  1.0000
  H   H18       1.0  0.1906513171136126  0.5000056138863442  0.9548466628098284  1.0000
  H   H19       1.0  0.8093349630873237  0.04515385515868789  0.4999992246923385  1.0000
  H   H20       1.0  0.19065503286599755  0.954844839549892  0.5000047649172573  1.0000
  C   C1        1.0  0.3772086370205586  0.5000153046444425  0.29292249008133103  1.0000
  C   C2        1.0  0.3831459758044673  0.5000809929018002  0.19260278575654166  1.0000
  C   C3        1.0  0.5436210672948505  0.5000468666511964  0.13797787772588072  1.0000
  C   C4        1.0  0.6907957691392497  0.5000382388060699  0.1932444813158014  1.0000
  C   C5        1.0  0.6747245619664141  0.4999934607545953  0.2935895843711266  1.0000
  C   C6        1.0  0.5649387253531517  0.4999954303418406  0.0318889628413075  1.0000
  C   C7        1.0  0.4350511099940064  0.500004708825962  0.9681056450098071  1.0000
  C   C8        1.0  0.30918061100831545  0.49996623549237995  0.8067527616550125  1.0000
  C   C9        1.0  0.45636109017279136  0.4999525465385021  0.8620170115959951  1.0000
  C   C10       1.0  0.6168348013313719  0.4999191431925212  0.8073928723101602  1.0000
  C   C11       1.0  0.6227723105054396  0.49998338517352175  0.7070738894363728  1.0000
  C   C12       1.0  0.3252458622290675  0.5000066719569816  0.7064078925353456  1.0000
  C   C13       1.0  0.3772068759512025  0.29292075018798863  0.5000147476800478  1.0000
  C   C14       1.0  0.383147092239085  0.19260161056187286  0.5000826171448409  1.0000
  C   C15       1.0  0.5436209684658382  0.1379783029368582  0.5000502308806318  1.0000
  C   C16       1.0  0.6907964713175263  0.19324651819307087  0.5000387967490809  1.0000
  C   C17       1.0  0.6747270527557563  0.29359090839410845  0.4999925305496121  1.0000
  C   C18       1.0  0.5649380227683167  0.031888896085717995  0.499999873024109  1.0000
  C   C19       1.0  0.4350524835401402  0.9681054599451996  0.5000070026308024  1.0000
  C   C20       1.0  0.30918196093846023  0.8067514499124472  0.49996922358841545  1.0000
  C   C21       1.0  0.45636169201894466  0.862016772938041  0.49995403971716  1.0000
  C   C22       1.0  0.6168355715070248  0.8073934647073102  0.4999187666837912  1.0000
  C   C23       1.0  0.6227771697573701  0.7070736018737094  0.499984424019175  1.0000
  C   C24       1.0  0.3252487150387253  0.7064077803381965  0.5000076451571404  1.0000
  N   N1        1.0  0.5198714403781255  0.49997226701738373  0.34368877115554863  1.0000
  N   N2        1.0  0.4801055381733265  0.5000271449352311  0.6563091926630735  1.0000
  N   N3        1.0  0.5198701860817678  0.3436880105526398  0.4999712079160332  1.0000
  N   N4        1.0  0.48010566894613055  0.6563099546629018  0.5000275242854997  1.0000
  O   O1        1.0  0.7327562962618047  0.4999582012058923  0.9921774570740354  1.0000
  O   O2        1.0  0.26723474250431417  0.5000426625450771  0.007821434119549104  1.0000
  O   O3        1.0  0.7327554312273891  0.9921777185987325  0.4999631416705129  1.0000
  O   O4        1.0  0.2672372357100983  0.007820254271635498  0.5000429190315075  1.0000
  F   F1        1.0  0.22679393514437865  0.49964461067955307  0.4996499943843773  1.0000
  F   F2        1.0  0.7731729480902841  0.5003526280971896  0.5003490662198118  1.0000
  F   F3        1.0  0.9999926844281365  0.5870029181223373  0.41298155308216183  1.0000
  F   F4        1.0  0.9999772434878768  0.41299637551502844  0.5870097227443268  1.0000
  F   F5        1.0  0.0195250840882082  0.4129699042831162  0.4129772349964256  1.0000
  F   F6        1.0  0.980451810491161  0.5870302305805309  0.587019285558263  1.0000
