data_image0
_chemical_formula_structural       ZnSiH20C24N8F6
_chemical_formula_sum              "Zn1 Si1 H20 C24 N8 F6"
_cell_length_a       7.76452134945318
_cell_length_b       10.846878424691196
_cell_length_c       12.16392736153801
_cell_angle_alpha    85.6413737510436
_cell_angle_beta     77.66371582016008
_cell_angle_gamma    69.02312547651772

_space_group_name_H-M_alt    "P 1"
_space_group_IT_number       1

loop_
  _space_group_symop_operation_xyz
  'x, y, z'

loop_
  _atom_site_type_symbol
  _atom_site_label
  _atom_site_symmetry_multiplicity
  _atom_site_fract_x
  _atom_site_fract_y
  _atom_site_fract_z
  _atom_site_occupancy
  Zn  Zn1       1.0  0.49999897849111347  0.999999387401971  0.5000005582465619  1.0000
  Si  Si1       1.0  1.0944687975568095e-07  0.9999988245622763  0.500000170292104  1.0000
  H   H1        1.0  0.7580782949092395  0.11192467100666188  0.3220545707612956  1.0000
  H   H2        1.0  0.12988293219575545  0.1120189987433378  0.6780925017325644  1.0000
  H   H3        1.0  0.24192368055187066  0.8880767540312745  0.6779459643685827  1.0000
  H   H4        1.0  0.8701150845677641  0.8879824263338495  0.3219077579894646  1.0000
  H   H5        1.0  0.7254388798221569  0.2750493271469026  0.16441777370165062  1.0000
  H   H6        1.0  0.9998788493619771  0.27532582923900156  0.8357447752421691  1.0000
  H   H7        1.0  0.2745658954600783  0.7249491357107943  0.835582578686129  1.0000
  H   H8        1.0  0.00011767188566121927  0.7246785569397504  0.1642521987458068  1.0000
  H   H9        1.0  0.12142341405901651  0.38520328913721613  0.2694454895156042  1.0000
  H   H10       1.0  0.4933796535066364  0.38565649996878903  0.7297707189027421  1.0000
  H   H11       1.0  0.8785813471364959  0.6147951727368622  0.7305515764609964  1.0000
  H   H12       1.0  0.5066201684152104  0.6143439371598094  0.2702277153230099  1.0000
  H   H13       1.0  0.24373776748337403  0.505947058414229  0.11114357424929013  1.0000
  H   H14       1.0  0.25025458607927215  0.5063801662702333  0.8888772980018658  1.0000
  H   H15       1.0  0.7562612404212598  0.4940523921853953  0.8888575066241202  1.0000
  H   H16       1.0  0.7497424289780878  0.49362323254678847  0.11111967576039922  1.0000
  H   H17       1.0  0.177178390468498  0.2079680787609703  0.41497801144871005  1.0000
  H   H18       1.0  0.6143904639920305  0.208271917130233  0.5842904582822683  1.0000
  H   H19       1.0  0.8228227568886765  0.7920323587643809  0.5850218839176549  1.0000
  H   H20       1.0  0.38561084992401345  0.7917255586508819  0.4157104400747472  1.0000
  C   C1        1.0  0.619596208303342  0.171919122047143  0.3055961381354564  1.0000
  C   C2        1.0  0.20839952238483045  0.17210148270194742  0.6943392407246947  1.0000
  C   C3        1.0  0.3804067547772047  0.8280803282673336  0.694404396543014  1.0000
  C   C4        1.0  0.791597175986723  0.8278999424702821  0.3056612010623141  1.0000
  C   C5        1.0  0.6010989164054124  0.26449124737651886  0.21961422159038343  1.0000
  C   C6        1.0  0.1345867907511717  0.26475247528227186  0.780335782196012  1.0000
  C   C7        1.0  0.39890404315345745  0.7355082026920529  0.7803854914852906  1.0000
  C   C8        1.0  0.8654107322026332  0.7352499371566453  0.21966447775172065  1.0000
  C   C9        1.0  0.26480096218072185  0.3253966887776727  0.27736545258870393  1.0000
  C   C10       1.0  0.4097260092334096  0.32583245883372314  0.7220807108458089  1.0000
  C   C11       1.0  0.7352024876661787  0.6746017736832712  0.7226334386584696  1.0000
  C   C12       1.0  0.590274647835727  0.6741689662992629  0.27792000634905634  1.0000
  C   C13       1.0  0.3886835711920682  0.4417010145774256  0.11481267280840511  1.0000
  C   C14       1.0  0.16974448055724156  0.44203020994866205  0.8850782494218308  1.0000
  C   C15       1.0  0.6113259697616086  0.5582984342781786  0.8851836651339865  1.0000
  C   C16       1.0  0.8302543502234913  0.5579722016574922  0.1149193636525396  1.0000
  C   C17       1.0  0.4199009388046519  0.3436625542084926  0.20411257040274222  1.0000
  C   C18       1.0  0.23657982586353649  0.344039813920368  0.7956232681517719  1.0000
  C   C19       1.0  0.5801016794166428  0.6563349204939614  0.7958848594781145  1.0000
  C   C20       1.0  0.7634190049171891  0.6559625976857789  0.20437434492259854  1.0000
  C   C21       1.0  0.2948482085753881  0.22779844751283923  0.3594914060969145  1.0000
  C   C22       1.0  0.477043493096474  0.22814834213193794  0.6399444149702447  1.0000
  C   C23       1.0  0.705153429069831  0.7722010024048772  0.6405076674409429  1.0000
  C   C24       1.0  0.5229555148081598  0.7718511084676865  0.36005666590316576  1.0000
  N   N1        1.0  0.4692491607250559  0.15232741838590166  0.3733035872509447  1.0000
  N   N2        1.0  0.37817804343110584  0.15253238148563503  0.6263933702954178  1.0000
  N   N3        1.0  0.5307541296063433  0.847674006311081  0.626695944211164  1.0000
  N   N4        1.0  0.6218227766752162  0.8474660816572169  0.37360752828730176  1.0000
  N   N5        1.0  0.5289078845599208  0.4508869725259927  0.039133097974797686  1.0000
  N   N6        1.0  0.020374639757619706  0.4509485187985049  0.9607597364560333  1.0000
  N   N7        1.0  0.4710879892293747  0.5491134653795627  0.96086752565148  1.0000
  N   N8        1.0  0.9796228761528168  0.5490538931485959  0.039238880286113366  1.0000
  F   F1        1.0  0.2280639140346991  0.9998978648740435  0.4957415719286473  1.0000
  F   F2        1.0  0.7719329508957101  0.00010059855395640004  0.504259872849005  1.0000
  F   F3        1.0  0.08394278733182149  0.8316400800154823  0.5003202127681519  1.0000
  F   F4        1.0  0.9160524354774537  0.16835640937097204  0.4996832388936384  1.0000
  F   F5        1.0  0.9593976411203611  0.0004474763347417  0.6432819241451355  1.0000
  F   F6        1.0  0.040600221994530616  0.9995490131075188  0.356721984989484  1.0000
