data_image0
_chemical_formula_structural       Cu4H28C40N28O4
_chemical_formula_sum              "Cu4 H28 C40 N28 O4"
_cell_length_a       9.079091227622623
_cell_length_b       11.668155860407783
_cell_length_c       11.251558428072386
_cell_angle_alpha    90.00000998891821
_cell_angle_beta     90.00042953059503
_cell_angle_gamma    88.3085549005334

_space_group_name_H-M_alt    "P 1"
_space_group_IT_number       1

loop_
  _space_group_symop_operation_xyz
  'x, y, z'

loop_
  _atom_site_type_symbol
  _atom_site_label
  _atom_site_symmetry_multiplicity
  _atom_site_fract_x
  _atom_site_fract_y
  _atom_site_fract_z
  _atom_site_occupancy
  Cu  Cu1       1.0  0.10126269115897199  0.2754202350829615  0.4311362093115605  1.0000
  Cu  Cu2       1.0  0.3987366403247562  0.724577865641891  0.9311337577827883  1.0000
  Cu  Cu3       1.0  0.898736612899256  0.7245821935636843  0.5688610764849641  1.0000
  Cu  Cu4       1.0  0.6012660664085487  0.2754150783795026  0.06885730666208187  1.0000
  H   H1        1.0  0.8106946580911938  0.40095466639391475  0.37856797994544417  1.0000
  H   H2        1.0  0.6893194231559079  0.5990586645105935  0.8785517105884819  1.0000
  H   H3        1.0  0.1893035529349945  0.5990469234870942  0.6214337496763064  1.0000
  H   H4        1.0  0.3107017506920116  0.4009596822305995  0.12142957749656348  1.0000
  H   H5        1.0  0.5482248341726645  0.38307210479077713  0.44946665945347763  1.0000
  H   H6        1.0  0.9517865191193238  0.616946406277684  0.9494556098187772  1.0000
  H   H7        1.0  0.4517755894552664  0.6169285909936804  0.5505404027696983  1.0000
  H   H8        1.0  0.04822907477473141  0.3830788903499922  0.050531899610511695  1.0000
  H   H9        1.0  0.4937142548166308  0.2279874229761631  0.5968922544857307  1.0000
  H   H10       1.0  0.006286343603065298  0.7720269777691798  0.09688898297640947  1.0000
  H   H11       1.0  0.5062905410145576  0.7720166278686307  0.403113918986186  1.0000
  H   H12       1.0  0.9937051414567364  0.22798586648556815  0.9031163016895645  1.0000
  H   H13       1.0  0.7031560482840078  0.10033900069598188  0.6693815138052698  1.0000
  H   H14       1.0  0.7968386483274799  0.8996643931426861  0.16938279681984614  1.0000
  H   H15       1.0  0.29684987589427436  0.8996624600793482  0.330623770903884  1.0000
  H   H16       1.0  0.20313873300799656  0.10032726066091871  0.8306340417521624  1.0000
  H   H17       1.0  0.0386329563226511  0.1589869105296629  0.6855567429492595  1.0000
  H   H18       1.0  0.4613631507685625  0.8410052719753907  0.185551929868204  1.0000
  H   H19       1.0  0.9613663301096762  0.8410172325336092  0.31444587544220326  1.0000
  H   H20       1.0  0.5386154823981073  0.15897179083935953  0.8144497996865778  1.0000
  H   H21       1.0  0.966621697433112  0.029207683609684006  0.6258808011105045  1.0000
  H   H22       1.0  0.5333672087775057  0.970785527243841  0.1258813394157841  1.0000
  H   H23       1.0  0.0333775978240141  0.9707956022449268  0.3741218172808017  1.0000
  H   H24       1.0  0.46661027843592956  0.029195840056417014  0.8741310553255417  1.0000
  H   H25       1.0  0.20150617169210958  0.09131003850349369  0.5489646090564191  1.0000
  H   H26       1.0  0.2984886499045842  0.9086890371546802  0.048961462461988986  1.0000
  H   H27       1.0  0.7984941724967243  0.9086983721593569  0.4510388981050468  1.0000
  H   H28       1.0  0.70149865708197  0.09130159344967839  0.9510411558888096  1.0000
  C   C1        1.0  0.7793859020156404  0.3373019962057953  0.44381394047483985  1.0000
  C   C2        1.0  0.7206233031448689  0.6627062667143875  0.9438032281827232  1.0000
  C   C3        1.0  0.22062333660146996  0.662698552030527  0.5561877891815072  1.0000
  C   C4        1.0  0.2793781428415301  0.33730212550717203  0.0561825036667969  1.0000
  C   C5        1.0  0.6357748595352533  0.32689703088620803  0.484367867056612  1.0000
  C   C6        1.0  0.8642313653907364  0.6731147056645028  0.9843553995465867  1.0000
  C   C7        1.0  0.3642244357376896  0.6731062549679477  0.5156383063977755  1.0000
  C   C8        1.0  0.1357766212805629  0.3269004335640205  0.015635664919628298  1.0000
  C   C9        1.0  0.6058788623294548  0.24095426911184603  0.5664390521594455  1.0000
  C   C10       1.0  0.8941247649495168  0.7590558431465625  0.0664373350734806  1.0000
  C   C11       1.0  0.39411821152483373  0.7590507680472883  0.4335635662252172  1.0000
  C   C12       1.0  0.10587668994864431  0.24095169186379906  0.9335679496228478  1.0000
  C   C13       1.0  0.7209656557186648  0.16936084706576796  0.6062347765434666  1.0000
  C   C14       1.0  0.779033962149235  0.8306450425852036  0.10623591805393319  1.0000
  C   C15       1.0  0.27904136149955855  0.8306414524749645  0.39376784187200536  1.0000
  C   C16       1.0  0.2209488756006763  0.16935166225290738  0.8937764767075148  1.0000
  C   C17       1.0  0.8628461497728424  0.1862733027162378  0.5638810951833547  1.0000
  C   C18       1.0  0.6371498386802302  0.8137275100169674  0.06387688994892929  1.0000
  C   C19       1.0  0.1371498398544588  0.813730038469188  0.43612152319752784  1.0000
  C   C20       1.0  0.36284072981606397  0.18626735129976166  0.9361266171788214  1.0000
  C   C21       1.0  0.9946602878771953  0.11784870558042831  0.605218881652348  1.0000
  C   C22       1.0  0.5053371966134677  0.8821495063440639  0.1052174280871299  1.0000
  C   C23       1.0  0.005344499105468997  0.8821562024737162  0.39478195922509224  1.0000
  C   C24       1.0  0.49464795075576984  0.11783687510385481  0.8947878565532646  1.0000
  C   C25       1.0  0.2679260244701637  0.38198638599055834  0.6706315813989361  1.0000
  C   C26       1.0  0.23206766674678653  0.6180135521553751  0.1706385581863685  1.0000
  C   C27       1.0  0.7320711288034616  0.6180109362907588  0.3293701482185796  1.0000
  C   C28       1.0  0.7679327833081473  0.38198457200448394  0.8293578388471019  1.0000
  C   C29       1.0  0.3933708448555677  0.5059448773750148  0.791092649803765  1.0000
  C   C30       1.0  0.10662503728367768  0.4940532966174087  0.291092561006522  1.0000
  C   C31       1.0  0.6066351146100929  0.4940531545660249  0.20890996860747177  1.0000
  C   C32       1.0  0.8933754216197798  0.5059439703330995  0.7089091686214175  1.0000
  C   C33       1.0  0.3913324812022196  0.17317282831920983  0.33457803505599765  1.0000
  C   C34       1.0  0.10866927058332722  0.8268278137856057  0.834569351392055  1.0000
  C   C35       1.0  0.6086701726257004  0.8268252589528657  0.6654228058132714  1.0000
  C   C36       1.0  0.8913345291978275  0.17316596900095504  0.1654208242906776  1.0000
  C   C37       1.0  0.581332935453851  0.036496719357486995  0.3463174243636188  1.0000
  C   C38       1.0  0.918667777688327  0.9635031259078563  0.8463160880866382  1.0000
  C   C39       1.0  0.41867187802300515  0.9635056170701046  0.6536878603422167  1.0000
  C   C40       1.0  0.0813348938089788  0.0364932469463284  0.1536891966111824  1.0000
  N   N1        1.0  0.8899138300781715  0.2683920614925129  0.4832159277961381  1.0000
  N   N2        1.0  0.6100913621812013  0.7316119789221743  0.983210768050192  1.0000
  N   N3        1.0  0.11008878845051133  0.7316094546142083  0.5167849130737423  1.0000
  N   N4        1.0  0.3899101809215821  0.26838698400286626  0.0167847402211336  1.0000
  N   N5        1.0  0.18821761925030242  0.3503040189743345  0.5957145899755643  1.0000
  N   N6        1.0  0.3117798042821178  0.6496967220686116  0.09571586200966209  1.0000
  N   N7        1.0  0.8117806005809313  0.6496967136985959  0.40428269581718007  1.0000
  N   N8        1.0  0.6882371473882714  0.35030369706491626  0.9042672035898177  1.0000
  N   N9        1.0  0.3580951883226504  0.40594466370725274  0.7559809368366572  1.0000
  N   N10       1.0  0.1419014657633753  0.5940552153797471  0.2559846679497682  1.0000
  N   N11       1.0  0.6418932205602771  0.59404594845293  0.24402612534646542  1.0000
  N   N12       1.0  0.8581099853922468  0.405944438761864  0.7440081740556649  1.0000
  N   N13       1.0  0.4389472945616788  0.5935295570495854  0.8266834374238241  1.0000
  N   N14       1.0  0.06105113435415179  0.406465999184114  0.3266812464531625  1.0000
  N   N15       1.0  0.5610598991053094  0.40645559831934713  0.17330851579934858  1.0000
  N   N16       1.0  0.9389536172976563  0.5935423377055997  0.6733124842987193  1.0000
  N   N17       1.0  0.2917437538552221  0.23467377427160593  0.3615891029369537  1.0000
  N   N18       1.0  0.20825275527919726  0.7653243814079714  0.8615827996434786  1.0000
  N   N19       1.0  0.7082533993907347  0.765323548010521  0.6384064053201683  1.0000
  N   N20       1.0  0.7917477917854114  0.23466431345848085  0.1383993771359755  1.0000
  N   N21       1.0  0.5006136611787397  0.11328890598635871  0.2928063761898727  1.0000
  N   N22       1.0  0.9993941920532377  0.8867202533709246  0.7927992958567315  1.0000
  N   N23       1.0  0.4993988566056373  0.886714158544791  0.7071980197746655  1.0000
  N   N24       1.0  0.0006138740690247005  0.11328717097885026  0.20719798996850608  1.0000
  N   N25       1.0  0.659908236547956  0.9617817966033543  0.38205869402107606  1.0000
  N   N26       1.0  0.8400829305700768  0.038213062116973597  0.8820618044139437  1.0000
  N   N27       1.0  0.34008890792457436  0.0382163828859348  0.6179483681912216  1.0000
  N   N28       1.0  0.15991429333760007  0.9617774024940291  0.11794792409428818  1.0000
  O   O1        1.0  0.1027051371082877  0.1178982815641447  0.5122271696212621  1.0000
  O   O2        1.0  0.3972904507740296  0.8821016424030433  0.012221969322773397  1.0000
  O   O3        1.0  0.897297419658578  0.8821092350028438  0.48777633754700384  1.0000
  O   O4        1.0  0.6026990511369804  0.11788980852288229  0.9877797602693547  1.0000
