data_image0
_chemical_formula_structural       Na2H70C52N4O2
_chemical_formula_sum              "Na2 H70 C52 N4 O2"
_cell_length_a       8.693225276811642
_cell_length_b       12.00090104199903
_cell_length_c       12.7912
_cell_angle_alpha    72.93402280152613
_cell_angle_beta     79.7506250822755
_cell_angle_gamma    68.83101336309213

_space_group_name_H-M_alt    "P 1"
_space_group_IT_number       1

loop_
  _space_group_symop_operation_xyz
  'x, y, z'

loop_
  _atom_site_type_symbol
  _atom_site_label
  _atom_site_symmetry_multiplicity
  _atom_site_fract_x
  _atom_site_fract_y
  _atom_site_fract_z
  _atom_site_occupancy
  Na  Na1       1.0  0.43162578351974196  0.8949952499509876  0.5932211235980349  1.0000
  Na  Na2       1.0  0.5683765458654761  0.10500618088604337  0.4067753081336036  1.0000
  H   H1        1.0  0.1482269679187169  0.722938597215382  0.6610456289865426  1.0000
  H   H2        1.0  0.8517769368316763  0.27706191079866466  0.33895164811799117  1.0000
  H   H3        1.0  0.9972965627760573  0.5458793211224559  0.8872724314478975  1.0000
  H   H4        1.0  0.0027018030980485723  0.4541258010064766  0.11273362645651022  1.0000
  H   H5        1.0  0.7314340773551962  0.16423665083005548  0.8417700698520677  1.0000
  H   H6        1.0  0.26855625628432017  0.8357601658920828  0.15823064652537525  1.0000
  H   H7        1.0  0.6419389244988736  0.05336592992634339  0.9290520833892728  1.0000
  H   H8        1.0  0.3580529845058252  0.9466299639728177  0.07094478763618638  1.0000
  H   H9        1.0  0.5137618073778114  0.20535948832296919  0.871446378643455  1.0000
  H   H10       1.0  0.4862309144076419  0.7946345599302373  0.12855246585058921  1.0000
  H   H11       1.0  0.18190368567794477  0.3772537242146541  0.8148411181325559  1.0000
  H   H12       1.0  0.8181028630197533  0.6227513979142784  0.18515925951719944  1.0000
  H   H13       1.0  0.1228842498701113  0.3670371510383176  0.6929545070706382  1.0000
  H   H14       1.0  0.8771152347824511  0.6329707395595463  0.3070451807581805  1.0000
  H   H15       1.0  0.09030630527984579  0.265245162580527  0.8192332659771324  1.0000
  H   H16       1.0  0.9096963301030814  0.7347608823713825  0.18076654902252196  1.0000
  H   H17       1.0  0.43621621446656167  0.5904572078405721  0.6585522320103366  1.0000
  H   H18       1.0  0.5637884528682522  0.4095442229964518  0.34144626236095393  1.0000
  H   H19       1.0  0.3702413306764357  0.5249690752907624  0.7931272278733843  1.0000
  H   H20       1.0  0.6297625740739576  0.47503143272329135  0.20687004923114932  1.0000
  H   H21       1.0  0.5131370566041581  0.427795815831942  0.7121892048635347  1.0000
  H   H22       1.0  0.48686877970546055  0.5722056150050888  0.2878091481463515  1.0000
  H   H23       1.0  0.7979662863168571  0.376457327985662  0.7155215129392403  1.0000
  H   H24       1.0  0.20204183774602316  0.6235468713202934  0.28447971008341  1.0000
  H   H25       1.0  0.8978044241732236  0.98353365481573  0.8509939309059221  1.0000
  H   H26       1.0  0.10219058536549142  0.0164631619064153  0.1490054382384471  1.0000
  H   H27       1.0  0.57469630348141  0.18659111462046948  0.5811942476357856  1.0000
  H   H28       1.0  0.4253056195134306  0.8134112390395315  0.41880354272399967  1.0000
  H   H29       1.0  0.6793891708792188  0.2474383704198715  0.6463914006966435  1.0000
  H   H30       1.0  0.3206116835334924  0.7525584463022739  0.35361117057814084  1.0000
  H   H31       1.0  0.46076254492790975  0.2811084895520111  0.6717353725618196  1.0000
  H   H32       1.0  0.5392386656788446  0.7188901728160885  0.32826352030802053  1.0000
  H   H33       1.0  0.3992676875521895  0.6959746326557691  0.022680431734755913  1.0000
  H   H34       1.0  0.6007272717901841  0.30402495253530043  0.9773220901451724  1.0000
  H   H35       1.0  0.35509872628121286  0.5768529515163365  0.9906482570592561  1.0000
  H   H36       1.0  0.6448946576959855  0.4231475564977102  0.009353419447776944  1.0000
  H   H37       1.0  0.05551020515159883  0.5889391640437082  0.6118440511425689  1.0000
  H   H38       1.0  0.9444905990647784  0.4110604211473685  0.3881530732054942  1.0000
  H   H39       1.0  0.18184553101996676  0.6704142818438966  0.5205072745018884  1.0000
  H   H40       1.0  0.8181556795867877  0.3295843805242029  0.47949005479298995  1.0000
  H   H41       1.0  0.06285431885169852  0.6097728155683271  0.4679048775965313  1.0000
  H   H42       1.0  0.9371449099994963  0.3902276924457269  0.5320914013786435  1.0000
  H   H43       1.0  0.07829689476813678  0.7125614528410722  0.9678812804638285  1.0000
  H   H44       1.0  0.9216983705719457  0.2874427464648832  0.0321183703842749  1.0000
  H   H45       1.0  0.13222822588365093  0.8386532159244026  0.9779617445265316  1.0000
  H   H46       1.0  0.8677701901867892  0.1613491377355984  0.0220380334924073  1.0000
  H   H47       1.0  0.4158109268287689  0.04066234882748179  0.7084612287689609  1.0000
  H   H48       1.0  0.5841832699291842  0.9593363135406107  0.2915353851193458  1.0000
  H   H49       1.0  0.3433269519540119  0.1287817920607495  0.8078801894320264  1.0000
  H   H50       1.0  0.656669582753544  0.8712168703073428  0.19211457815853095  1.0000
  H   H51       1.0  0.4660114869909221  0.9706685796959248  0.8468935820125625  1.0000
  H   H52       1.0  0.5339838787418358  0.029330082672174698  0.15310210872686983  1.0000
  H   H53       1.0  0.8173694243965242  0.7495094391868733  0.9194797810156745  1.0000
  H   H54       1.0  0.18262761709408443  0.2504827634203863  0.0805401575497342  1.0000
  H   H55       1.0  0.704807758507002  0.6722239377014319  0.027947804161250592  1.0000
  H   H56       1.0  0.29519100893779887  0.32775903667605627  0.9720643033578683  1.0000
  H   H57       1.0  0.5995460439573109  0.7935077930755482  0.9209434398277949  1.0000
  H   H58       1.0  0.40044510246296744  0.2064871780006428  0.07907644934276453  1.0000
  H   H59       1.0  0.05305385072636425  0.8826718719185749  0.4033774038861608  1.0000
  H   H60       1.0  0.9469465470996282  0.1173286360954791  0.5966210790900492  1.0000
  H   H61       1.0  0.9444183216194662  0.8201902966272313  0.34244525480043836  1.0000
  H   H62       1.0  0.05558050084135859  0.1798111342097926  0.6575523828028765  1.0000
  H   H63       1.0  0.7131843203558503  0.7046491686378501  0.6106799504648139  1.0000
  H   H64       1.0  0.28681724644494727  0.29535133937620367  0.3893176093625216  1.0000
  H   H65       1.0  0.7876981594219999  0.6653922792040561  0.48379283588571553  1.0000
  H   H66       1.0  0.21230381376917504  0.3346073059870136  0.5162057106759123  1.0000
  H   H67       1.0  0.6609138856454068  0.8182126869879125  0.48275832262591956  1.0000
  H   H68       1.0  0.3390876811553909  0.18178782102613408  0.5172392372014087  1.0000
  H   H69       1.0  0.8374055931645259  0.9495700779769577  0.3978732771528258  1.0000
  H   H70       1.0  0.1625936356866688  0.05043043003708898  0.6021269107597362  1.0000
  C   C1        1.0  0.6214117149064862  0.5278178298201937  0.7746945557228458  1.0000
  C   C2        1.0  0.37859178345352973  0.47218360101683027  0.2253064253722741  1.0000
  C   C3        1.0  0.7570629823056907  0.9885621172164034  0.7253841634027225  1.0000
  C   C4        1.0  0.2429354839610838  0.011437467974666  0.274613243668135  1.0000
  C   C5        1.0  0.037911849831978414  0.7984430503555655  0.6753331548346753  1.0000
  C   C6        1.0  0.9620924613087921  0.20155653483551106  0.32466432721668076  1.0000
  C   C7        1.0  0.8919885047221142  0.5393992581792446  0.8566720132479162  1.0000
  C   C8        1.0  0.10801341827272641  0.4606030954807564  0.14333203141170264  1.0000
  C   C9        1.0  0.3363698512127654  0.7697081885034364  0.7710563514097474  1.0000
  C   C10       1.0  0.6636304964168999  0.2302950879795418  0.22894372072705954  1.0000
  C   C11       1.0  0.7589475797683393  0.9384555980441789  0.6349498718282617  1.0000
  C   C12       1.0  0.24105205547323996  0.0615439871468979  0.36504817566868303  1.0000
  C   C13       1.0  0.03819073810890224  0.851316192812284  0.7590088643927899  1.0000
  C   C14       1.0  0.9618100661074749  0.14868339237878558  0.240989823530235  1.0000
  C   C15       1.0  0.9031789381837213  0.8379361824714164  0.6133377120163247  1.0000
  C   C16       1.0  0.09682186603265562  0.162063402719653  0.3866609759067003  1.0000
  C   C17       1.0  0.605214920537115  0.09365453544821628  0.7541498948613994  1.0000
  C   C18       1.0  0.39478395212004364  0.9063441269198762  0.24584615358131867  1.0000
  C   C19       1.0  0.5994606252646763  0.6174387060367436  0.8321664962014027  1.0000
  C   C20       1.0  0.4005397725613167  0.3825618019773031  0.16783824107463374  1.0000
  C   C21       1.0  0.9141445763173337  0.7745668514763793  0.5221868452309764  1.0000
  C   C22       1.0  0.085855821508666  0.22543365653766753  0.4778116377452336  1.0000
  C   C23       1.0  0.6258139417236563  0.130396732270178  0.8549968463272394  1.0000
  C   C24       1.0  0.3741791362558331  0.8695991616289831  0.1450014469117846  1.0000
  C   C25       1.0  0.08690915177140113  0.3609926605401625  0.7808340614691078  1.0000
  C   C26       1.0  0.9130942461959393  0.6390143072347243  0.21916697079728922  1.0000
  C   C27       1.0  0.4781345652875472  0.5167393399835092  0.7325429414147282  1.0000
  C   C28       1.0  0.5218689330724685  0.4832620908535218  0.26745569431795263  1.0000
  C   C29       1.0  0.9178048676066483  0.4508174806345905  0.7992017549130351  1.0000
  C   C30       1.0  0.08219741158223567  0.5491867186713648  0.20080173849155614  1.0000
  C   C31       1.0  0.7806534064096341  0.4462578123061363  0.7593615613649618  1.0000
  C   C32       1.0  0.2193504481444322  0.553745464176842  0.24063886847513064  1.0000
  C   C33       1.0  0.8966008223348894  0.9440737443270348  0.7846566882802438  1.0000
  C   C34       1.0  0.1033980503222622  0.0559249180410575  0.2153409237374362  1.0000
  C   C35       1.0  0.7343305669305094  0.6227329414547426  0.8747556091795872  1.0000
  C   C36       1.0  0.2656682555303078  0.3772684893822813  0.1252490645110385  1.0000
  C   C37       1.0  0.5784073451797127  0.20943928870347858  0.6572754514247379  1.0000
  C   C38       1.0  0.42159229006185944  0.7905602964875911  0.34272259607220695  1.0000
  C   C39       1.0  0.9387299428598441  0.8613961881880599  0.41003502644368706  1.0000
  C   C40       1.0  0.0612700485757713  0.1386052426489641  0.5899624697982305  1.0000
  C   C41       1.0  0.34669172553650174  0.6744922365784447  0.962271296501072  1.0000
  C   C42       1.0  0.6533039963902993  0.3255082714356021  0.03773009728316625  1.0000
  C   C43       1.0  0.06274547701482898  0.6542012049641954  0.5318562167342196  1.0000
  C   C44       1.0  0.9372549208111703  0.3457993030498514  0.4681399208795583  1.0000
  C   C45       1.0  0.17009543272369856  0.7605224085922017  0.9399823842609509  1.0000
  C   C46       1.0  0.8299029833467415  0.23947994506779924  0.06001817554546561  1.0000
  C   C47       1.0  0.4481877264822601  0.055700672057689395  0.780805122658947  1.0000
  C   C48       1.0  0.5518099772000937  0.9442979903104032  0.21918950357021316  1.0000
  C   C49       1.0  0.7126131374017814  0.7144458573597348  0.9390369608327237  1.0000
  C   C50       1.0  0.2873807533584696  0.2855481908934792  0.06097737804950041  1.0000
  C   C51       1.0  0.7584897828800196  0.7394054504136988  0.5258021925331207  1.0000
  C   C52       1.0  0.24151061494598033  0.260595057600348  0.4741955086556048  1.0000
  N   N1        1.0  0.43684943996434095  0.6981026624403057  0.8521720652574986  1.0000
  N   N2        1.0  0.563148976106099  0.30189969121969534  0.14782849454891792  1.0000
  N   N3        1.0  0.18139337468738143  0.8046324240610757  0.8183551354368178  1.0000
  N   N4        1.0  0.8186070231386182  0.1953680839529781  0.18164569290183144  1.0000
  O   O1        1.0  0.6324841767129853  0.9823293708309818  0.5744609570096842  1.0000
  O   O2        1.0  0.3675197280374149  0.0176711371830649  0.4255331929449397  1.0000
