data_image0
_chemical_formula_structural       Co2H16C18N2O14
_chemical_formula_sum              "Co2 H16 C18 N2 O14"
_cell_length_a       5.2260705562597005
_cell_length_b       8.512688234591772
_cell_length_c       12.018760463865043
_cell_angle_alpha    102.70404876554467
_cell_angle_beta     96.21176952382731
_cell_angle_gamma    105.76723276416575

_space_group_name_H-M_alt    "P 1"
_space_group_IT_number       1

loop_
  _space_group_symop_operation_xyz
  'x, y, z'

loop_
  _atom_site_type_symbol
  _atom_site_label
  _atom_site_symmetry_multiplicity
  _atom_site_fract_x
  _atom_site_fract_y
  _atom_site_fract_z
  _atom_site_occupancy
  Co  Co1       1.0  0.4412357546479697  0.6826352962977964  0.5006294844577822  1.0000
  Co  Co2       1.0  0.5587765450061325  0.3173677357709436  0.4993706098823053  1.0000
  H   H1        1.0  0.7307706993699482  0.6188865891240383  0.06559654784125257  1.0000
  H   H2        1.0  0.2691966671557608  0.38111510675047094  0.9344061879815156  1.0000
  H   H3        1.0  0.9269181904218443  0.7824219746124895  0.42911176112383487  1.0000
  H   H4        1.0  0.07309474367673371  0.21758234863225567  0.5708860740451129  1.0000
  H   H5        1.0  0.742717057428379  0.9090183180345972  0.4303742285559124  1.0000
  H   H6        1.0  0.2572946408569976  0.09098346765397738  0.5696239734335221  1.0000
  H   H7        1.0  0.3126884644789528  0.861970270694819  0.3657268115729407  1.0000
  H   H8        1.0  0.6873226258225458  0.13803025965442828  0.6342703283702065  1.0000
  H   H9        1.0  0.1859147074697417  0.6567685349363611  0.30886908243675026  1.0000
  H   H10       1.0  0.8140944444345595  0.3432319767058232  0.6911296264367833  1.0000
  H   H11       1.0  0.34799133784959213  0.9290014548808329  0.03799565095514617  1.0000
  H   H12       1.0  0.651998698664805  0.07099142882387352  0.9620042552575823  1.0000
  H   H13       1.0  0.6777034629005882  0.831029831122798  0.21743794616632775  1.0000
  H   H14       1.0  0.3222998122877954  0.1689744433824671  0.7825635821327663  1.0000
  H   H15       1.0  0.4659970367578126  0.23605276711884923  0.13246412883255226  1.0000
  H   H16       1.0  0.5340045024638798  0.7639439582208282  0.8675327794758372  1.0000
  C   C1        1.0  0.08134680779402001  0.5940622828576919  0.022548382116866557  1.0000
  C   C2        1.0  0.9186163114476713  0.4059267349838933  0.9774554491823009  1.0000
  C   C3        1.0  0.1481703185027854  0.20673152823612637  0.23387755727016207  1.0000
  C   C4        1.0  0.8518394215399496  0.7932702118678776  0.7661247045627348  1.0000
  C   C5        1.0  0.008124020257156464  0.8601770035136055  0.12290237281910511  1.0000
  C   C6        1.0  0.9918666374714249  0.13981715344876727  0.8770969348312079  1.0000
  C   C7        1.0  0.23034237497465423  0.9754049716413176  0.09920407868021633  1.0000
  C   C8        1.0  0.76965398349995  0.024592988753170203  0.9007952772482  1.0000
  C   C9        1.0  0.2288468201557734  0.39246393180942357  0.2912306039139238  1.0000
  C   C10       1.0  0.7711616225493998  0.6075390897226923  0.7087701373738681  1.0000
  C   C11       1.0  0.85475165287405  0.9194316652156828  0.20112581119501974  1.0000
  C   C12       1.0  0.14524908916356338  0.08057135316152399  0.7988745633794564  1.0000
  C   C13       1.0  0.2963494989699527  0.14712014114122235  0.15330745938020127  1.0000
  C   C14       1.0  0.7036519456516429  0.8528803583868907  0.8466917130843753  1.0000
  C   C15       1.0  0.9244584972438119  0.09117934602778628  0.25758033791437634  1.0000
  C   C16       1.0  0.07555191892229386  0.9088198393904464  0.742424043026041  1.0000
  C   C17       1.0  0.7580729381185519  0.14835554882245816  0.3410747982905775  1.0000
  C   C18       1.0  0.2419361125705065  0.8516487280489923  0.6589270050435017  1.0000
  N   N1        1.0  0.9278245387001222  0.6865928894562215  0.0692240001497453  1.0000
  N   N2        1.0  0.07214938066488233  0.3134024888694356  0.9307780353549828  1.0000
  O   O1        1.0  0.5957212179187508  0.042202577221708296  0.38176584996847396  1.0000
  O   O2        1.0  0.404288447369332  0.9578029639482394  0.6182361851075413  1.0000
  O   O3        1.0  0.7802262499874074  0.8188820778565075  0.4644381995267252  1.0000
  O   O4        1.0  0.21978920403164182  0.18112348359795757  0.5355624499755577  1.0000
  O   O5        1.0  0.19961005646922553  0.7559165307186714  0.37876977177768356  1.0000
  O   O6        1.0  0.8004029259234074  0.24408395562345922  0.6212316113655731  1.0000
  O   O7        1.0  0.7813061063916533  0.3056885014391496  0.37382290584118744  1.0000
  O   O8        1.0  0.2187048893097411  0.6943158030985328  0.6261764982581468  1.0000
  O   O9        1.0  0.3509260042238864  0.44371501410702047  0.39875754025243987  1.0000
  O   O10       1.0  0.6490778855635284  0.5562905246967488  0.6012442197885902  1.0000
  O   O11       1.0  0.18212052712825505  0.48885368197225876  0.23151945983561711  1.0000
  O   O12       1.0  0.8178861048555744  0.5111455914602061  0.7684764347045814  1.0000
  O   O13       1.0  0.3238507695500202  0.6468495316947551  0.016006126238195872  1.0000
  O   O14       1.0  0.676116294625551  0.353135713535849  0.983995624261439  1.0000
