data_image0
_chemical_formula_structural       Zn8H80C112N32
_chemical_formula_sum              "Zn8 H80 C112 N32"
_cell_length_a       16.588738355518096
_cell_length_b       16.427257469925756
_cell_length_c       20.557104261871523
_cell_angle_alpha    89.99834471684754
_cell_angle_beta     90.00051288415887
_cell_angle_gamma    90.00801612996233

_space_group_name_H-M_alt    "P 1"
_space_group_IT_number       1

loop_
  _space_group_symop_operation_xyz
  'x, y, z'

loop_
  _atom_site_type_symbol
  _atom_site_label
  _atom_site_symmetry_multiplicity
  _atom_site_fract_x
  _atom_site_fract_y
  _atom_site_fract_z
  _atom_site_occupancy
  Zn  Zn1       1.0  0.6466354888968625  0.5103707490139938  0.0013405364983399  1.0000
  Zn  Zn2       1.0  0.4890879316927794  0.35286642397358053  0.9988573392071701  1.0000
  Zn  Zn3       1.0  0.35335853069711476  0.4896108443662542  0.0013705780629394001  1.0000
  Zn  Zn4       1.0  0.510905152188208  0.6471312719165924  0.9988672563849761  1.0000
  Zn  Zn5       1.0  0.1466460992779943  0.9896229198088877  0.4986390848547445  1.0000
  Zn  Zn6       1.0  0.0109279117522618  0.8528705878038565  0.5011244257432281  1.0000
  Zn  Zn7       1.0  0.853358359983659  0.010396831468739303  0.4986415874342144  1.0000
  Zn  Zn8       1.0  0.9890854968786442  0.14713895606835342  0.5011121972841579  1.0000
  H   H1        1.0  0.7423634002940886  0.5896633882523545  0.1280144443493612  1.0000
  H   H2        1.0  0.09092715591589953  0.756931983713578  0.6285304234053869  1.0000
  H   H3        1.0  0.8315936473542463  0.00020032351792309997  0.6509355835644897  1.0000
  H   H4        1.0  0.9089971234114602  0.2431368861980233  0.6284974366936  1.0000
  H   H5        1.0  0.757643028147669  0.0896601803042856  0.37195752964331064  1.0000
  H   H6        1.0  0.9998302399875811  0.8316378424091085  0.3481250908373924  1.0000
  H   H7        1.0  0.24234806123312316  0.9103908061871027  0.3719576914380056  1.0000
  H   H8        1.0  0.00016173112906869998  0.16834094637980712  0.34810490934329164  1.0000
  H   H9        1.0  0.6671703544966975  0.10090826095662919  0.2776180095524978  1.0000
  H   H10       1.0  0.016320448632050996  0.2957106458613624  0.24707822370776006  1.0000
  H   H11       1.0  0.3326675147786275  0.8991599387990024  0.2775006762889021  1.0000
  H   H12       1.0  0.5001572543510804  0.3316642583526885  0.1518790072019414  1.0000
  H   H13       1.0  0.9837331587981312  0.7043578523083411  0.2470323599332005  1.0000
  H   H14       1.0  0.29526210576122486  0.015019758483447306  0.7521447902989067  1.0000
  H   H15       1.0  0.8972402027213279  0.33268201142790593  0.7226057234046692  1.0000
  H   H16       1.0  0.7047311150224899  0.9850026283148665  0.7521537914991117  1.0000
  H   H17       1.0  0.10266913616329279  0.6676362978756386  0.7228577328308817  1.0000
  H   H18       1.0  0.20468356485227454  0.5150006802898803  0.7478380862684874  1.0000
  H   H19       1.0  0.6027083243165022  0.8323336293992158  0.7771306859041476  1.0000
  H   H20       1.0  0.7950138491400481  0.48518323559424914  0.7475594366963279  1.0000
  H   H21       1.0  0.39730807846629557  0.16766638693484032  0.7771233751311827  1.0000
  H   H22       1.0  0.8327309879730863  0.6009071838690617  0.22238058156910512  1.0000
  H   H23       1.0  0.25765183060878627  0.4103466299666962  0.1280348826012414  1.0000
  H   H24       1.0  0.48368650977282374  0.7957907189312792  0.2528883043612922  1.0000
  H   H25       1.0  0.16736874287325068  0.39909596717103574  0.22244290298561964  1.0000
  H   H26       1.0  0.5162083449011236  0.20438318640226785  0.2529982578033767  1.0000
  H   H27       1.0  0.5951778757842235  0.12973081073684514  0.3381860465908559  1.0000
  H   H28       1.0  0.08755724384263171  0.3269219583087235  0.3073178460970993  1.0000
  H   H29       1.0  0.4047240581390383  0.8704410055013058  0.3380567081081694  1.0000
  H   H30       1.0  0.9125302857371977  0.673060287256945  0.30726884756676043  1.0000
  H   H31       1.0  0.3263991487195953  0.0870462750733907  0.6920277381557086  1.0000
  H   H32       1.0  0.8687700072598974  0.4055743899488036  0.6621971406759856  1.0000
  H   H33       1.0  0.6735951033690953  0.9129844249209997  0.6920330918140253  1.0000
  H   H34       1.0  0.4998305679016042  0.6683796041329585  0.15186332190609164  1.0000
  H   H35       1.0  0.1308944127652794  0.5946110376483774  0.6624934588991139  1.0000
  H   H36       1.0  0.1735550449135559  0.5870012490548788  0.8079580681124199  1.0000
  H   H37       1.0  0.6309327909476039  0.9053736933804617  0.8374926464670978  1.0000
  H   H38       1.0  0.8263348503743728  0.4132888088236725  0.8076976455755516  1.0000
  H   H39       1.0  0.3690687067552573  0.09461978896066371  0.8374870753816738  1.0000
  H   H40       1.0  0.9047601537847711  0.6297315067386648  0.1618287983409274  1.0000
  H   H41       1.0  0.4124734827595873  0.8270024888700648  0.1926383585982379  1.0000
  H   H42       1.0  0.09530084454155491  0.37036647771845577  0.1618968935249114  1.0000
  H   H43       1.0  0.5873759849701655  0.1730945271466382  0.192747278306804  1.0000
  H   H44       1.0  0.2665962877264789  0.5527008405090611  0.13496399555288013  1.0000
  H   H45       1.0  0.3315606467923971  0.49982376809992984  0.8490560780849635  1.0000
  H   H46       1.0  0.6116166779796117  0.809724404619864  0.079484090238239  1.0000
  H   H47       1.0  0.73339818988746  0.44731212898827283  0.1349389360312827  1.0000
  H   H48       1.0  0.3883448988227157  0.19027469276970524  0.0794654696361192  1.0000
  H   H49       1.0  0.8085197702187517  0.6110274785115378  0.9211501156073751  1.0000
  H   H50       1.0  0.4482479030416259  0.7343825005044453  0.8644773102319548  1.0000
  H   H51       1.0  0.191481627713415  0.38894350268050465  0.9211605663370862  1.0000
  H   H52       1.0  0.5517670561596617  0.2655845767940051  0.8644963970677395  1.0000
  H   H53       1.0  0.6914500218324947  0.11097627315021441  0.5788198370521442  1.0000
  H   H54       1.0  0.051696082050050114  0.23434293931565975  0.6355180066458743  1.0000
  H   H55       1.0  0.3085231175008972  0.8889784114554757  0.5788311824182275  1.0000
  H   H56       1.0  0.40907914428076714  0.25694098600747844  0.8714485767680102  1.0000
  H   H57       1.0  0.9482568661803372  0.7656491234218521  0.6355361457651797  1.0000
  H   H58       1.0  0.23338122501505154  0.05268650807892072  0.3650291884656483  1.0000
  H   H59       1.0  0.8883905781133167  0.3097255828663991  0.42050378217831513  1.0000
  H   H60       1.0  0.7666215716847589  0.9473122174452514  0.36504069561880215  1.0000
  H   H61       1.0  0.11164873690930933  0.6902931032824497  0.4205107178154464  1.0000
  H   H62       1.0  0.3814626651875486  0.8030266157807873  0.6522453750202644  1.0000
  H   H63       1.0  0.9496860231588897  0.7713327390540955  0.7614587899394964  1.0000
  H   H64       1.0  0.6185017031201383  0.19679365683353467  0.6523567842659546  1.0000
  H   H65       1.0  0.05032373113159141  0.22869580618577603  0.7614348238993074  1.0000
  H   H66       1.0  0.7714750686226424  0.9510889305023016  0.2389745359279161  1.0000
  H   H67       1.0  0.6683493979159253  0.500198573062157  0.8490134710615607  1.0000
  H   H68       1.0  0.19742476726820973  0.6175919732379641  0.3471559526501835  1.0000
  H   H69       1.0  0.22844259550036136  0.04886908117435951  0.2389192627360686  1.0000
  H   H70       1.0  0.8026636938593654  0.382415620847489  0.3470864164316936  1.0000
  H   H71       1.0  0.7285681426386503  0.4511008916315689  0.26101121521815435  1.0000
  H   H72       1.0  0.3025445723696691  0.11755897255160619  0.15282260400633163  1.0000
  H   H73       1.0  0.27151628798950617  0.5489260063258784  0.2610780163290869  1.0000
  H   H74       1.0  0.6973720757110372  0.8824140853921137  0.15288205973481442  1.0000
  H   H75       1.0  0.11854301088382614  0.30299137535126863  0.8477424064288428  1.0000
  H   H76       1.0  0.5503326729012841  0.27110063167851456  0.7386534610529694  1.0000
  H   H77       1.0  0.8814773966057248  0.697023301012031  0.8477718235688769  1.0000
  H   H78       1.0  0.5909464117160682  0.7431033023252954  0.8714760285033023  1.0000
  H   H79       1.0  0.44966224384096876  0.7287319511673259  0.7385508306575234  1.0000
  H   H80       1.0  0.16844433080547114  0.9998314464345343  0.6509346827302951  1.0000
  C   C1        1.0  0.7012879670500923  0.63566086841454  0.1096976076130218  1.0000
  C   C2        1.0  0.13641734753519333  0.7982054548654036  0.6098273836833741  1.0000
  C   C3        1.0  0.11275691747454893  0.21295747422188077  0.7727191353263337  1.0000
  C   C4        1.0  0.7872724566674378  0.888193202391527  0.2273716441218951  1.0000
  C   C5        1.0  0.24490564093195388  0.6512526153161318  0.3220923363759667  1.0000
  C   C6        1.0  0.21267819213087347  0.11178161149544512  0.22733503784641584  1.0000
  C   C7        1.0  0.7551433647882818  0.34877857884618635  0.3220544556465654  1.0000
  C   C8        1.0  0.7127538945374854  0.38820629619731767  0.272617693471517  1.0000
  C   C9        1.0  0.25506732121028364  0.15120536631374654  0.17788678023177343  1.0000
  C   C10       1.0  0.2872836895030275  0.6118415418112094  0.2726474675622158  1.0000
  C   C11       1.0  0.7448797421320493  0.8487763534682458  0.17792319059174844  1.0000
  C   C12       1.0  0.15190004835964996  0.25536302138198863  0.8223271928476876  1.0000
  C   C13       1.0  0.8642320419628505  0.9458931136106445  0.6365233737591823  1.0000
  C   C14       1.0  0.6127257444111152  0.28692904606631947  0.7273078410648425  1.0000
  C   C15       1.0  0.8481194962474278  0.7446521954255374  0.8223501104257734  1.0000
  C   C16       1.0  0.3872267992234129  0.7129896777336597  0.7272702117372988  1.0000
  C   C17       1.0  0.8635160645131349  0.20183468327382315  0.609816319053536  1.0000
  C   C18       1.0  0.7987142099157013  0.13565979730439898  0.39027389953145797  1.0000
  C   C19       1.0  0.9457853731162872  0.8639077823464021  0.362884135502668  1.0000
  C   C20       1.0  0.2012876507739847  0.8643779901735161  0.3902714804874564  1.0000
  C   C21       1.0  0.0542048433243494  0.13607126176477646  0.36286607304805335  1.0000
  C   C22       1.0  0.6306205295065795  0.15160813355939953  0.2964589062041583  1.0000
  C   C23       1.0  0.0809477061081481  0.30240718099172176  0.2577947528848199  1.0000
  C   C24       1.0  0.3692648672321113  0.8485039907099008  0.2963586717051356  1.0000
  C   C25       1.0  0.5542103671624757  0.3639260889421438  0.137122365060101  1.0000
  C   C26       1.0  0.9191085137613373  0.6976209414504738  0.2577551329958681  1.0000
  C   C27       1.0  0.30181962471637286  0.0802840887874012  0.7414371806233434  1.0000
  C   C28       1.0  0.8470627835509817  0.3697954986154243  0.7039357038558622  1.0000
  C   C29       1.0  0.6981806252617063  0.9197360602239402  0.7414439877776218  1.0000
  C   C30       1.0  0.15274295326090478  0.6303948428750416  0.704175694833289  1.0000
  C   C31       1.0  0.19814565704712092  0.5802657477598387  0.7585490962720628  1.0000
  C   C32       1.0  0.6527783513550319  0.8695959084746719  0.7958151470055981  1.0000
  C   C33       1.0  0.8016695118806753  0.4199411076313383  0.7583091373082311  1.0000
  C   C34       1.0  0.3472331369182129  0.13040788277962181  0.7958084770491497  1.0000
  C   C35       1.0  0.8693164185137833  0.651599770594146  0.2035468653542338  1.0000
  C   C36       1.0  0.29871649154749486  0.36434530512507024  0.10970939851953433  1.0000
  C   C37       1.0  0.41905900666361623  0.802474385427985  0.24216108494623262  1.0000
  C   C38       1.0  0.13074422959154935  0.3484379826436382  0.20359767466254652  1.0000
  C   C39       1.0  0.5808290095942327  0.19764675966661122  0.2422628218375706  1.0000
  C   C40       1.0  0.327258519836569  0.5761544133904053  0.12853030998260812  1.0000
  C   C41       1.0  0.6350648336156156  0.7484833331158784  0.0853425248484569  1.0000
  C   C42       1.0  0.672731375129004  0.4238682929562288  0.1285118610691072  1.0000
  C   C43       1.0  0.3649176240500863  0.25151952828790064  0.08533096310555521  1.0000
  C   C44       1.0  0.7479244543264372  0.6348172984143832  0.9151455795333164  1.0000
  C   C45       1.0  0.42467017685027036  0.673333547331886  0.8712308835386864  1.0000
  C   C46       1.0  0.2520813881321047  0.36517307992837544  0.9151536838292744  1.0000
  C   C47       1.0  0.4457737838184316  0.6361144722919789  0.13711921345311856  1.0000
  C   C48       1.0  0.5753270509540017  0.3266480829722056  0.8712218625099412  1.0000
  C   C49       1.0  0.7520409150992222  0.13478417139839396  0.5848417113851313  1.0000
  C   C50       1.0  0.07529097138394292  0.17329969353858132  0.6287637800680201  1.0000
  C   C51       1.0  0.24792295976468645  0.8651931170200343  0.5848426183802218  1.0000
  C   C52       1.0  0.9246887527147295  0.8266979091863008  0.6287709591804429  1.0000
  C   C53       1.0  0.17271753430517123  0.0761287727511899  0.3714651062778316  1.0000
  C   C54       1.0  0.8649450898040243  0.24847998874423646  0.41463786903396743  1.0000
  C   C55       1.0  0.8272808029381622  0.9238663014185634  0.3714796454361036  1.0000
  C   C56       1.0  0.13508359293869182  0.7515428482704892  0.41464735242470147  1.0000
  C   C57       1.0  0.7029944181937394  0.7205506380777325  0.1198885197929727  1.0000
  C   C58       1.0  0.3642020791548504  0.5541325400459485  0.8634654292522583  1.0000
  C   C59       1.0  0.6247503138657751  0.38049207104588595  0.1727626333804224  1.0000
  C   C60       1.0  0.29699459089118824  0.27945117610001813  0.1198812760803634  1.0000
  C   C61       1.0  0.3752331149861661  0.6195612368259945  0.17276427769421332  1.0000
  C   C62       1.0  0.380408591689708  0.6251610629425884  0.8275737396963905  1.0000
  C   C63       1.0  0.2794601779657953  0.2969106203171067  0.8801185274355419  1.0000
  C   C64       1.0  0.6195408307110455  0.37483977041848254  0.8275456938998857  1.0000
  C   C65       1.0  0.7205535998949841  0.703099767782412  0.8801266092634707  1.0000
  C   C66       1.0  0.11956433388309051  0.12514021370817832  0.6724119869803006  1.0000
  C   C67       1.0  0.22053678689316308  0.7969166555688078  0.6198741509621045  1.0000
  C   C68       1.0  0.8804384830314547  0.8748704510801205  0.6724205546058003  1.0000
  C   C69       1.0  0.363587639630886  0.29820898542441654  0.8901610131347796  1.0000
  C   C70       1.0  0.7793968511968431  0.2030814073982299  0.6198647930038633  1.0000
  C   C71       1.0  0.7970072778530052  0.22054395377164585  0.3800917398700819  1.0000
  C   C72       1.0  0.8752490091330642  0.8804787990328936  0.32724072281456534  1.0000
  C   C73       1.0  0.20301003206764529  0.7794951490247827  0.3800942554435808  1.0000
  C   C74       1.0  0.12473650497864953  0.11949967314154011  0.32722220772377153  1.0000
  C   C75       1.0  0.6326197364354941  0.271280097595927  0.2578407421972885  1.0000
  C   C76       1.0  0.17605559328929132  0.26882738668242473  0.1935868814543937  1.0000
  C   C77       1.0  0.3673328019155805  0.7288155804551552  0.257793300015976  1.0000
  C   C78       1.0  0.8239565965576716  0.7311879008817286  0.1935752703605687  1.0000
  C   C79       1.0  0.26831760674453153  0.17580779645636113  0.8058659920573704  1.0000
  C   C80       1.0  0.6357387749496937  0.44587551435895284  0.8634301644341847  1.0000
  C   C81       1.0  0.7285785160265945  0.36769210511909034  0.7428454305432552  1.0000
  C   C82       1.0  0.731697125097199  0.8242080957802289  0.8058771977934995  1.0000
  C   C83       1.0  0.2712944888943342  0.6323831552770685  0.7429544364751735  1.0000
  C   C84       1.0  0.23167102589169283  0.6758086280029688  0.6941230201946311  1.0000
  C   C85       1.0  0.7713292383258761  0.8676450560206704  0.7570448817794998  1.0000
  C   C86       1.0  0.7681911348584762  0.32424967904877633  0.6940264191343744  1.0000
  C   C87       1.0  0.22867887111002716  0.132378842917646  0.7570347472471468  1.0000
  C   C88       1.0  0.8673584925158123  0.7712617347552283  0.24216567034365266  1.0000
  C   C89       1.0  0.3239444924582885  0.768883501367583  0.3063795897898913  1.0000
  C   C90       1.0  0.13265309521764831  0.22874924398184504  0.24217407890577652  1.0000
  C   C91       1.0  0.6364263681626809  0.7018116802056015  0.8901720699947689  1.0000
  C   C92       1.0  0.6760176912577478  0.23119873849222478  0.3064203749199663  1.0000
  C   C93       1.0  0.6523252334581999  0.34892221001209117  0.23534084406755798  1.0000
  C   C94       1.0  0.24197311031491617  0.23397942750169431  0.1614743588192198  1.0000
  C   C95       1.0  0.347657677826767  0.651153975663597  0.23533355821730592  1.0000
  C   C96       1.0  0.7580089258849158  0.7660193984765303  0.1614866286840666  1.0000
  C   C97       1.0  0.23394059628348882  0.24203072336347026  0.8383850186816487  1.0000
  C   C98       1.0  0.6515864718088198  0.3475121892022487  0.76508027238728  1.0000
  C   C99       1.0  0.7660765426778938  0.7579845042851403  0.8384004060761685  1.0000
  C   C100      1.0  0.34833694185305575  0.6524925279334186  0.7651178696567343  1.0000
  C   C101      1.0  0.26605512682628774  0.7420448180331009  0.661602600996794  1.0000
  C   C102      1.0  0.1357865782160061  0.054122506891964406  0.6365184148347893  1.0000
  C   C103      1.0  0.8483678230863846  0.8475486159621468  0.7348868598662508  1.0000
  C   C104      1.0  0.7338480225223803  0.2579337949130008  0.6615829196964429  1.0000
  C   C105      1.0  0.1516399047243553  0.1524709466938958  0.7348728107381461  1.0000
  C   C106      1.0  0.8476767938370601  0.8489030015151044  0.2646562698186159  1.0000
  C   C107      1.0  0.25801594727310834  0.7340302322558545  0.3384963276989765  1.0000
  C   C108      1.0  0.15230502082241773  0.15108546655446994  0.2646401991081078  1.0000
  C   C109      1.0  0.7419962795189791  0.26601672791937153  0.3384979894831091  1.0000
  C   C110      1.0  0.34809819124745905  0.7553907407823319  0.6776623929456562  1.0000
  C   C111      1.0  0.8872536222481459  0.7870640697379091  0.7727399133333677  1.0000
  C   C112      1.0  0.6518393170124739  0.24450508897395914  0.6777085923845831  1.0000
  N   N1        1.0  0.6377307867552416  0.6147308113934783  0.0725089419792511  1.0000
  N   N2        1.0  0.11543729079310341  0.8618292796903902  0.5721698596045712  1.0000
  N   N3        1.0  0.8959331666035341  0.9400272059729889  0.5761062119201341  1.0000
  N   N4        1.0  0.8845252523889187  0.13822101758864855  0.5721621666670487  1.0000
  N   N5        1.0  0.8622653735398983  0.11473076729695461  0.42745662868632195  1.0000
  N   N6        1.0  0.9397968445938502  0.8946937443172658  0.4237084212702272  1.0000
  N   N7        1.0  0.1377417337080971  0.8852908646172466  0.4274615800526362  1.0000
  N   N8        1.0  0.06020377014801431  0.10531094307879127  0.4236980283202811  1.0000
  N   N9        1.0  0.3655796574866769  0.5691174439943297  0.0711695968486765  1.0000
  N   N10       1.0  0.5974509251802546  0.6847533345986108  0.0576234592719089  1.0000
  N   N11       1.0  0.6344099584580932  0.4308838349241385  0.0711487301513785  1.0000
  N   N12       1.0  0.5601996944943154  0.39469635534729974  0.0762930741521117  1.0000
  N   N13       1.0  0.40254642804595875  0.3152474580172538  0.05762442084729711  1.0000
  N   N14       1.0  0.6846319320748934  0.5974371008520762  0.9430437813361651  1.0000
  N   N15       1.0  0.4325144268897674  0.6345875699873816  0.9285411668214252  1.0000
  N   N16       1.0  0.31536563905876847  0.4025583549807052  0.943056629375917  1.0000
  N   N17       1.0  0.567496342142249  0.3653917572680285  0.9285332681859018  1.0000
  N   N18       1.0  0.8153298858173913  0.0974410015695639  0.5569348903426814  1.0000
  N   N19       1.0  0.06746286399785362  0.13455190883828294  0.5714501257394033  1.0000
  N   N20       1.0  0.18465311427470973  0.9025726057242592  0.556937591927664  1.0000
  N   N21       1.0  0.9325298421811682  0.8654358246826065  0.571454168512858  1.0000
  N   N22       1.0  0.13440141797506297  0.06913174960850912  0.428834539603649  1.0000
  N   N23       1.0  0.3622792745523071  0.38527082123337675  0.0725242619728235  1.0000
  N   N24       1.0  0.9025607070543914  0.18476509878519926  0.4423507308245506  1.0000
  N   N25       1.0  0.8656050346971613  0.930884142814101  0.4288442717373472  1.0000
  N   N26       1.0  0.09745971038852021  0.8152500673300053  0.4423625304836989  1.0000
  N   N27       1.0  0.4397855115066634  0.6053173451584541  0.0763000466948114  1.0000
  N   N28       1.0  0.39590481110860765  0.5599857228578172  0.9238818704770182  1.0000
  N   N29       1.0  0.3845683850773511  0.36183829477207047  0.9278247339073363  1.0000
  N   N30       1.0  0.6040729775924235  0.44000848498895107  0.9238575920632854  1.0000
  N   N31       1.0  0.6154345761901326  0.638174038769769  0.9278244041536468  1.0000
  N   N32       1.0  0.1040816717414543  0.059973651305767824  0.5761028957420393  1.0000
