data_image0
_chemical_formula_structural       Cu12H36C72N72
_chemical_formula_sum              "Cu12 H36 C72 N72"
_cell_length_a       28.108331319178042
_cell_length_b       29.08968434700086
_cell_length_c       32.53677310188355
_cell_angle_alpha    96.87944017076207
_cell_angle_beta     89.52980787732105
_cell_angle_gamma    89.7014876002682

_space_group_name_H-M_alt    "P 1"
_space_group_IT_number       1

loop_
  _space_group_symop_operation_xyz
  'x, y, z'

loop_
  _atom_site_type_symbol
  _atom_site_label
  _atom_site_symmetry_multiplicity
  _atom_site_fract_x
  _atom_site_fract_y
  _atom_site_fract_z
  _atom_site_occupancy
  Cu  Cu1       1.0  0.071204914287911  0.0455523889592016  0.8413997930795813  1.0000
  Cu  Cu2       1.0  0.1061105958076283  0.09210181378971778  0.9272618500340853  1.0000
  Cu  Cu3       1.0  0.06582705276824903  0.15518498607841022  0.8624568152025346  1.0000
  Cu  Cu4       1.0  0.9177737235062652  0.40424770977904945  0.3458205783056343  1.0000
  Cu  Cu5       1.0  0.8657490001871865  0.3769859331454414  0.4251689638237579  1.0000
  Cu  Cu6       1.0  0.9615615205057962  0.3225073737369896  0.38853298798883157  1.0000
  Cu  Cu7       1.0  0.5741347064309111  0.9560640098603485  0.6596651091660987  1.0000
  Cu  Cu8       1.0  0.609596956144557  0.9087092313005697  0.5730962687983662  1.0000
  Cu  Cu9       1.0  0.5665368642912227  0.8469892293193269  0.6380104643340303  1.0000
  Cu  Cu10      1.0  0.4242248693233109  0.5906834063065743  0.1491286466665755  1.0000
  Cu  Cu11      1.0  0.36880591470666246  0.621368804608096  0.07328482437227275  1.0000
  Cu  Cu12      1.0  0.4606595680912521  0.6787511454823375  0.1120001963173323  1.0000
  H   H1        1.0  0.13385128993273557  0.9513108187596231  0.8331029990969511  1.0000
  H   H2        1.0  0.16590542148240667  0.010530196296258499  0.9586013245292475  1.0000
  H   H3        1.0  0.998852341153608  0.18083129993716074  0.789878954096416  1.0000
  H   H4        1.0  0.9908162721477255  0.030766071740359297  0.7725918537030692  1.0000
  H   H5        1.0  0.12479768476080721  0.16813268421920205  0.0039165774444711995  1.0000
  H   H6        1.0  0.09412184854610219  0.2555293667328797  0.9080314387220196  1.0000
  H   H7        1.0  0.8456629819097471  0.47757369143295136  0.3173142165890183  1.0000
  H   H8        1.0  0.7734793662821459  0.44468844645334116  0.42852337130288015  1.0000
  H   H9        1.0  0.04104107199137269  0.28467410378321734  0.3197238869218211  1.0000
  H   H10       1.0  0.9866819287135158  0.40576072559750986  0.2689687577079026  1.0000
  H   H11       1.0  0.8466566418741408  0.3249340583582168  0.5032389510938842  1.0000
  H   H12       1.0  0.9781045437328756  0.257013372826691  0.45835448096826065  1.0000
  H   H13       1.0  0.6370689384439885  0.04904598979449298  0.6673479043594454  1.0000
  H   H14       1.0  0.6707548767281964  0.9892772989729008  0.5417122151243488  1.0000
  H   H15       1.0  0.4983404444410908  0.8227212879762148  0.7109637884151707  1.0000
  H   H16       1.0  0.4942806597979158  0.9729674740201091  0.7303661971671784  1.0000
  H   H17       1.0  0.6271556621407087  0.8318879750448998  0.49602756962341477  1.0000
  H   H18       1.0  0.5920720670336408  0.7458292187330356  0.5920957951835958  1.0000
  H   H19       1.0  0.3568711915397529  0.5129622045382901  0.17565390333484737  1.0000
  H   H20       1.0  0.2780548903655315  0.5528097981288624  0.07117897503405148  1.0000
  H   H21       1.0  0.5333630757985405  0.7191655464557342  0.1845436299640255  1.0000
  H   H22       1.0  0.4926451309572358  0.5879561430827279  0.22514020346513053  1.0000
  H   H23       1.0  0.3486241590879189  0.6753408086013761  0.9966229906673547  1.0000
  H   H24       1.0  0.47527967061149223  0.7472086329632075  0.044171153522874755  1.0000
  H   H25       1.0  0.2460397215692538  0.9356015849625904  0.852084355878503  1.0000
  H   H26       1.0  0.7377255611765533  0.5446677294184141  0.4176566325613464  1.0000
  H   H27       1.0  0.7477038171586373  0.06622008877527462  0.649226908718937  1.0000
  H   H28       1.0  0.2431672933936042  0.45193253523429167  0.08005923250042457  1.0000
  H   H29       1.0  0.9631947734343599  0.1599376502539798  0.7007321465334755  1.0000
  H   H30       1.0  0.5890702499128723  0.6034206931045316  0.262100898442739  1.0000
  H   H31       1.0  0.08943994629500202  0.3965157584521819  0.23690032970095126  1.0000
  H   H32       1.0  0.4635519892562315  0.8427658837766286  0.8003369535921435  1.0000
  H   H33       1.0  0.10590514991650932  0.252180438584233  0.05470559865446488  1.0000
  H   H34       1.0  0.6030187453364348  0.7473272975148929  0.44568224725890093  1.0000
  H   H35       1.0  0.3388929339134563  0.7742863278686442  0.9712293723816996  1.0000
  H   H36       1.0  0.8405878905000392  0.22645591092827286  0.5294481600973242  1.0000
  C   C1        1.0  0.6704738074296586  0.5955518301341556  0.366596927884558  1.0000
  C   C2        1.0  0.6200873631480662  0.6485972126447519  0.34536303394970946  1.0000
  C   C3        1.0  0.6434032431510347  0.6548337552756108  0.4121744284717295  1.0000
  C   C4        1.0  0.30639250933130296  0.8671414705074056  0.8887070373238117  1.0000
  C   C5        1.0  0.37116942514187207  0.8674597386670226  0.8469748033367848  1.0000
  C   C6        1.0  0.37095852363795256  0.8238354891700934  0.8999555622914668  1.0000
  C   C7        1.0  0.17762487124517176  0.4009791907682611  0.1329872522334412  1.0000
  C   C8        1.0  0.12633507391077362  0.349469531824667  0.15518397373141107  1.0000
  C   C9        1.0  0.1485634336034636  0.3431270443820508  0.08774858162637138  1.0000
  C   C10       1.0  0.8079116009082697  0.13472281413211112  0.6124739640506076  1.0000
  C   C11       1.0  0.8717003785458746  0.17902053521756048  0.6018693016888079  1.0000
  C   C12       1.0  0.8709947694601893  0.13618282416248206  0.6554000462644254  1.0000
  C   C13       1.0  0.1362547819560547  0.9723038555434512  0.8628984042295966  1.0000
  C   C14       1.0  0.1631063276147628  0.9653817593077534  0.8976398352732032  1.0000
  C   C15       1.0  0.15238146323723364  0.0026930408639457993  0.9274558217871486  1.0000
  C   C16       1.0  0.0034301597542239007  0.14387191609902317  0.7905549833827621  1.0000
  C   C17       1.0  0.9805310887414932  0.1065971699621429  0.7679954516763559  1.0000
  C   C18       1.0  0.9994016091060018  0.0667686796516378  0.7819163225662107  1.0000
  C   C19       1.0  0.11474737568802602  0.18255958771123906  0.9759656701160109  1.0000
  C   C20       1.0  0.11412026080327563  0.22855270321091578  0.9675311621384779  1.0000
  C   C21       1.0  0.09917774547665202  0.22732465976500293  0.9265467788577411  1.0000
  C   C22       1.0  0.8349950694769391  0.46437397403680336  0.34575636518915326  1.0000
  C   C23       1.0  0.7941251976442062  0.4743050017507925  0.3700013237747938  1.0000
  C   C24       1.0  0.7977819827380798  0.44772349347593376  0.4029306005950345  1.0000
  C   C25       1.0  0.022524274326286807  0.31588297883183  0.3135880012046925  1.0000
  C   C26       1.0  0.027457955679153705  0.34167490341715023  0.2802141503967874  1.0000
  C   C27       1.0  0.9948249581692397  0.37820008346791667  0.28756653210764677  1.0000
  C   C28       1.0  0.8785664683931033  0.31275581060977226  0.486254605598674  1.0000
  C   C29       1.0  0.9118821300412209  0.27939645689335885  0.49466617511287564  1.0000
  C   C30       1.0  0.9461615105274886  0.2780818050977558  0.46320600910320303  1.0000
  C   C31       1.0  0.6398910317011188  0.0279579781175698  0.6375695990266266  1.0000
  C   C32       1.0  0.6671877175388374  0.034527141341172296  0.6026589469777122  1.0000
  C   C33       1.0  0.6568461493780902  0.997282568382154  0.5729401206118894  1.0000
  C   C34       1.0  0.5039210079313249  0.8595566804069888  0.7107008790793898  1.0000
  C   C35       1.0  0.4820761390722127  0.8973342454128002  0.7341910168365046  1.0000
  C   C36       1.0  0.5019158950054461  0.9367588784985442  0.7204342169610811  1.0000
  C   C37       1.0  0.6163146977594921  0.8178963919426606  0.5240787929243068  1.0000
  C   C38       1.0  0.6138469800921842  0.7719446076417354  0.5324484905297382  1.0000
  C   C39       1.0  0.5984284849717129  0.7738154499247328  0.5735742956267131  1.0000
  C   C40       1.0  0.3444636642789334  0.5279542836686629  0.1487041450873292  1.0000
  C   C41       1.0  0.30239512478257075  0.5195533286859302  0.12656512540801398  1.0000
  C   C42       1.0  0.3037943440437872  0.5482454894161748  0.09503336747778948  1.0000
  C   C43       1.0  0.5185713009954327  0.6854957394748523  0.18802130585135754  1.0000
  C   C44       1.0  0.5257043943826006  0.6572858861908629  0.21935792627545678  1.0000
  C   C45       1.0  0.4979396789876204  0.6179861465167703  0.2088360800504318  1.0000
  C   C46       1.0  0.37938987778642996  0.6883505210252778  0.014182736880876174  1.0000
  C   C47       1.0  0.4113003025711563  0.7231503167870841  0.006753706290588492  1.0000
  C   C48       1.0  0.44455931194284654  0.725021941445853  0.03857962088840592  1.0000
  C   C49       1.0  0.2594139987358446  0.8866898946245029  0.8995843549291036  1.0000
  C   C50       1.0  0.23619488096118602  0.9193944201054975  0.8791809507540902  1.0000
  C   C51       1.0  0.7027058287951392  0.5561391394141637  0.3574822619180011  1.0000
  C   C52       1.0  0.732408523219796  0.5366377462391938  0.3846544804827871  1.0000
  C   C53       1.0  0.7620083283783428  0.1140555984544775  0.6009244440919018  1.0000
  C   C54       1.0  0.7386978175729837  0.08154693085732839  0.6215380526327863  1.0000
  C   C55       1.0  0.2110732320567195  0.43901599261281626  0.1414694599012449  1.0000
  C   C56       1.0  0.23970023027952442  0.4587600647032062  0.11341183013058038  1.0000
  C   C57       1.0  0.8948257184954401  0.1199430990452228  0.6906587536973561  1.0000
  C   C58       1.0  0.937800217143554  0.1343322120872941  0.7083697132527573  1.0000
  C   C59       1.0  0.5918450138642797  0.6641511013500149  0.3121375834734508  1.0000
  C   C60       1.0  0.5797984792398054  0.638380199546198  0.275078559607671  1.0000
  C   C61       1.0  0.09788941631954631  0.33430378174187314  0.18877815472688295  1.0000
  C   C62       1.0  0.0829237882692979  0.36078438813907343  0.22486674995815284  1.0000
  C   C63       1.0  0.3958062519432914  0.8844466124067977  0.8122148769824165  1.0000
  C   C64       1.0  0.438673224496732  0.8694108349464499  0.7937261338929316  1.0000
  C   C65       1.0  0.1439770285604851  0.3185163654034113  0.046203040604687794  1.0000
  C   C66       1.0  0.12303281742883601  0.2756578704828812  0.035864657749982584  1.0000
  C   C67       1.0  0.640209773708733  0.6801051846099213  0.45364161839089684  1.0000
  C   C68       1.0  0.6203121594312152  0.723705699257188  0.464218919624308  1.0000
  C   C69       1.0  0.39454777579128114  0.7931803157446422  0.9258529237987501  1.0000
  C   C70       1.0  0.37459448986992083  0.7729261549545824  0.9583743567243272  1.0000
  C   C71       1.0  0.8951721658377351  0.21004112843612427  0.5761363462905322  1.0000
  C   C72       1.0  0.875656491561621  0.22920561677249646  0.5430075414808114  1.0000
  N   N1        1.0  0.6450798257675815  0.6091021927045759  0.335416066210243  1.0000
  N   N2        1.0  0.6187181619753729  0.6735079170034125  0.3827929043154725  1.0000
  N   N3        1.0  0.6700809580937559  0.6162225225774876  0.4059990897876915  1.0000
  N   N4        1.0  0.32708998314787163  0.883453156976152  0.8559001132203077  1.0000
  N   N5        1.0  0.39513937072510424  0.8375000469408179  0.8678550454495947  1.0000
  N   N6        1.0  0.32622226866278226  0.8370212496997169  0.9116814231901955  1.0000
  N   N7        1.0  0.15219372005122273  0.3880880816792285  0.1647304111601073  1.0000
  N   N8        1.0  0.12405473313128823  0.32487893875745744  0.11767598945284158  1.0000
  N   N9        1.0  0.17617461928271894  0.38076779103102615  0.09348136376694068  1.0000
  N   N10       1.0  0.8278384712996073  0.16481696939379728  0.5894712112950843  1.0000
  N   N11       1.0  0.8950278028027937  0.16615281924439532  0.6344931216859919  1.0000
  N   N12       1.0  0.827664770986125  0.11943283902737528  0.6459688521302737  1.0000
  N   N13       1.0  0.12093849102785009  0.030584973002056905  0.9113741513652371  1.0000
  N   N14       1.0  0.11103327239109011  0.011928812531806398  0.8715366394287685  1.0000
  N   N15       1.0  0.031964585433989605  0.07956631184715951  0.8111522742540201  1.0000
  N   N16       1.0  0.0345669949006364  0.12707948568555588  0.816499040275289  1.0000
  N   N17       1.0  0.09131650029497962  0.18284366666804167  0.9113456594615953  1.0000
  N   N18       1.0  0.10073918464301809  0.1552590708406001  0.9417863554367614  1.0000
  N   N19       1.0  0.8389069290171279  0.4232971784892783  0.39852923055443756  1.0000
  N   N20       1.0  0.8616699319494927  0.43360616240573785  0.363304318715457  1.0000
  N   N21       1.0  0.9717666231044787  0.3745113296267418  0.3234917431442027  1.0000
  N   N22       1.0  0.9887310469264606  0.3360704753961698  0.3395017383466977  1.0000
  N   N23       1.0  0.9338519931152052  0.3089330942612278  0.4372948506757908  1.0000
  N   N24       1.0  0.8921259119241827  0.33026438833447  0.4514510010975741  1.0000
  N   N25       1.0  0.6251879249294917  0.9697675911644835  0.5892427265257892  1.0000
  N   N26       1.0  0.6147760054564914  0.9885949632195407  0.6291149377567962  1.0000
  N   N27       1.0  0.5340724900862881  0.9232271065871201  0.6904319845810176  1.0000
  N   N28       1.0  0.5354273843502781  0.875661695197003  0.6844229159534547  1.0000
  N   N29       1.0  0.5920399369426195  0.8185914876127285  0.5889065678740549  1.0000
  N   N30       1.0  0.6028896373035549  0.8457766381329536  0.5584225856137265  1.0000
  N   N31       1.0  0.3447663431228277  0.5724517635910543  0.09822108453477087  1.0000
  N   N32       1.0  0.3696678670527263  0.5598892917807347  0.13130344703031224  1.0000
  N   N33       1.0  0.47553458945910176  0.6224224845944802  0.17304396682426668  1.0000
  N   N34       1.0  0.488136205994337  0.664044928957061  0.16024512523723186  1.0000
  N   N35       1.0  0.43302125760343557  0.6931006103593303  0.06374855654404135  1.0000
  N   N36       1.0  0.3927881211762739  0.670516215954258  0.04874813010312808  1.0000
  N   N37       1.0  0.19486096739736067  0.9051588374852882  0.9356854541573938  1.0000
  N   N38       1.0  0.23280218779947154  0.8791977000026776  0.9336862931080885  1.0000
  N   N39       1.0  0.19643631922382104  0.9302122655531803  0.9020253253843932  1.0000
  N   N40       1.0  0.7435120648927835  0.5027571293691154  0.31943717645133757  1.0000
  N   N41       1.0  0.7109268021851564  0.5342865208019986  0.3182638654217128  1.0000
  N   N42       1.0  0.757260183021309  0.5037215380691933  0.3603834638105567  1.0000
  N   N43       1.0  0.6995911187901952  0.0936938349203444  0.5637738919593288  1.0000
  N   N44       1.0  0.7367796565938393  0.12024707497003817  0.5660478782704885  1.0000
  N   N45       1.0  0.7002721813463141  0.06955257310197988  0.5980252035441467  1.0000
  N   N46       1.0  0.25459897175154816  0.4897344404334659  0.17868399147851474  1.0000
  N   N47       1.0  0.22162324119609883  0.45906236219857277  0.18066779457913637  1.0000
  N   N48       1.0  0.26622082034920425  0.4900520070816937  0.13717341277934736  1.0000
  N   N49       1.0  0.906217410449159  0.07713501344403538  0.7403956780583127  1.0000
  N   N50       1.0  0.8771963336093763  0.0850405452546781  0.7112291836402844  1.0000
  N   N51       1.0  0.9439384725223263  0.1074349610710996  0.7391324145892639  1.0000
  N   N52       1.0  0.5477135818683082  0.7097956209277426  0.2795702967688172  1.0000
  N   N53       1.0  0.5715810281341477  0.7073454887919793  0.31325952181990147  1.0000
  N   N54       1.0  0.5522735884152111  0.6672047424061844  0.2556109877810612  1.0000
  N   N55       1.0  0.055280741473247005  0.2881041506986506  0.22218358312797187  1.0000
  N   N56       1.0  0.08022410718488972  0.2903694165856693  0.18871788650886145  1.0000
  N   N57       1.0  0.056316154627488395  0.33160052008223306  0.24484406374594406  1.0000
  N   N58       1.0  0.40832250443195767  0.9286130536452859  0.763584654243985  1.0000
  N   N59       1.0  0.3789272018248725  0.9205531953523117  0.79277978795362  1.0000
  N   N60       1.0  0.4454866329663504  0.8971365325673443  0.7636423090564292  1.0000
  N   N61       1.0  0.1495626598766364  0.30455643559172785  0.9789297218419647  1.0000
  N   N62       1.0  0.15941533090911966  0.33466936313580925  0.010491132969725883  1.0000
  N   N63       1.0  0.1271836655768723  0.2677434685384199  0.9941818183943382  1.0000
  N   N64       1.0  0.647804712647492  0.6948774099866314  0.5206040145551043  1.0000
  N   N65       1.0  0.6563052586695334  0.6640480677592179  0.48903261057403563  1.0000
  N   N66       1.0  0.6256758872280058  0.7321154495686599  0.5056953976242511  1.0000
  N   N67       1.0  0.45260373081466554  0.7559178070618414  0.9516473114109443  1.0000
  N   N68       1.0  0.44204592011591615  0.7818000269505345  0.9231202221756759  1.0000
  N   N69       1.0  0.41113438742549147  0.7500138079047929  0.9737334455390254  1.0000
  N   N70       1.0  0.9525623263085167  0.24888692728908515  0.5510359042897902  1.0000
  N   N71       1.0  0.9420055710929772  0.22303295174113202  0.5796652141595686  1.0000
  N   N72       1.0  0.9117614693660414  0.2531090460719057  0.5280855347476319  1.0000
