data_image0
_chemical_formula_structural       Zn2H14C20N6O10
_chemical_formula_sum              "Zn2 H14 C20 N6 O10"
_cell_length_a       7.642196669230423
_cell_length_b       7.642178125559932
_cell_length_c       9.857213595419319
_cell_angle_alpha    70.23520141286448
_cell_angle_beta     70.2350019329416
_cell_angle_gamma    84.69733518935836

_space_group_name_H-M_alt    "P 1"
_space_group_IT_number       1

loop_
  _space_group_symop_operation_xyz
  'x, y, z'

loop_
  _atom_site_type_symbol
  _atom_site_label
  _atom_site_symmetry_multiplicity
  _atom_site_fract_x
  _atom_site_fract_y
  _atom_site_fract_z
  _atom_site_occupancy
  Zn  Zn1       1.0  0.39163033880262077  0.2534699747004224  0.7774197408918657  1.0000
  Zn  Zn2       1.0  0.2534651571015729  0.3916357883496175  0.27741830093417985  1.0000
  H   H1        1.0  0.45091089465568496  0.7334377448336582  0.6205432095684532  1.0000
  H   H2        1.0  0.7334365420726529  0.45091683610787203  0.12053904141790651  1.0000
  H   H3        1.0  0.6550550667748709  0.7690630143991156  0.14878507658431073  1.0000
  H   H4        1.0  0.7690616633315559  0.6550624018208424  0.6487807896514399  1.0000
  H   H5        1.0  0.8118372552833931  0.1934653032666276  0.2885953829424822  1.0000
  H   H6        1.0  0.19347377369130922  0.8118276348699495  0.7885900172538459  1.0000
  H   H7        1.0  0.08865287468216819  0.16371980190054097  0.10552250812518343  1.0000
  H   H8        1.0  0.1637219881898062  0.0886513045115009  0.6055216952943996  1.0000
  H   H9        1.0  0.7230951756264831  0.05792392924977459  0.9000883534846128  1.0000
  H   H10       1.0  0.057919511909801706  0.7231014315245189  0.40008336408546813  1.0000
  H   H11       1.0  0.3695753478234991  0.034222339771695  0.08274935329909283  1.0000
  H   H12       1.0  0.034222156269990506  0.36958491645626884  0.5827448881894102  1.0000
  H   H13       1.0  0.35304480624507306  0.9071293502331343  0.9938392057203989  1.0000
  H   H14       1.0  0.9071304118382104  0.3530474978007235  0.4938379128650967  1.0000
  C   C1        1.0  0.5338446082048236  0.8070400348260806  0.5032257843815132  1.0000
  C   C2        1.0  0.8070387995554782  0.5338454347186355  0.003222958385443207  1.0000
  C   C3        1.0  0.5462254673617011  0.7318548753102547  0.3891903167114351  1.0000
  C   C4        1.0  0.731854552062302  0.5462294921587514  0.8891844780040757  1.0000
  C   C5        1.0  0.6505225038439092  0.8258143130330993  0.23721622672226075  1.0000
  C   C6        1.0  0.8258156614974724  0.6505251859819835  0.7372133627865197  1.0000
  C   C7        1.0  0.7463649437744878  0.9894539432324265  0.20284501243570224  1.0000
  C   C8        1.0  0.9894592124946087  0.7463646565061168  0.7028407831189443  1.0000
  C   C9        1.0  0.7373402228364584  0.06446289986337922  0.3157822732835456  1.0000
  C   C10       1.0  0.06446689038497061  0.7373326633084788  0.8157786308316378  1.0000
  C   C11       1.0  0.6274638711550298  0.9750127327564541  0.4659556845015872  1.0000
  C   C12       1.0  0.9750177206576183  0.6274583941539474  0.9659506747521154  1.0000
  C   C13       1.0  0.031255657848816995  0.16094442810458534  0.019647141888540914  1.0000
  C   C14       1.0  0.1609464821230162  0.031255037780432794  0.5196450186274648  1.0000
  C   C15       1.0  0.846080313313891  0.10343488286221707  0.9122545457395577  1.0000
  C   C16       1.0  0.10343252473039398  0.8460834958525183  0.4122499384326589  1.0000
  C   C17       1.0  0.43809954938192425  0.557228113357354  0.424540649911002  1.0000
  C   C18       1.0  0.5572254174182306  0.43810624494431494  0.9245328087391375  1.0000
  C   C19       1.0  0.6022586930527963  0.07623328701256331  0.577785908857557  1.0000
  C   C20       1.0  0.07623576934778951  0.6022484434996825  0.07778318052000097  1.0000
  N   N1        1.0  0.8641715327562522  0.081325561911072  0.051346919605592234  1.0000
  N   N2        1.0  0.08132901814823867  0.8641731913871098  0.5513432375120646  1.0000
  N   N3        1.0  0.11127794439289569  0.2263147730186219  0.870776014937697  1.0000
  N   N4        1.0  0.22631425170489905  0.11128259564134879  0.37077327887683975  1.0000
  N   N5        1.0  0.9945909739619057  0.1921459236779768  0.8015529914822183  1.0000
  N   N6        1.0  0.19214224273298441  0.9945962928385653  0.30155131094234394  1.0000
  O   O1        1.0  0.35685249448109596  0.4590987561006372  0.5601424922770022  1.0000
  O   O2        1.0  0.45909570665803306  0.3568558398373369  0.06013467787000347  1.0000
  O   O3        1.0  0.4337640319042322  0.5277536712743752  0.3042971224185181  1.0000
  O   O4        1.0  0.5277546182644529  0.4337744060599888  0.8042874319701742  1.0000
  O   O5        1.0  0.44027966662882523  0.0548180811442904  0.681270634841667  1.0000
  O   O6        1.0  0.05480985847839289  0.4402692972351828  0.181269465289745  1.0000
  O   O7        1.0  0.7292469429839983  0.1810935826176561  0.5626979160479594  1.0000
  O   O8        1.0  0.18110663368450022  0.7292297145258145  0.06269125266165793  1.0000
  O   O9        1.0  0.4241360298213692  0.016120598262233398  0.9824283676983473  1.0000
  O   O10       1.0  0.01612060926547799  0.4241420352908064  0.4824249442317596  1.0000
