data_image0
_chemical_formula_structural       Ag4H32C26N12O8
_chemical_formula_sum              "Ag4 H32 C26 N12 O8"
_cell_length_a       6.327176066918832
_cell_length_b       6.327178897095168
_cell_length_c       20.64518549742815
_cell_angle_alpha    92.59935659359685
_cell_angle_beta     92.59984749866796
_cell_angle_gamma    98.34041578312528

_space_group_name_H-M_alt    "P 1"
_space_group_IT_number       1

loop_
  _space_group_symop_operation_xyz
  'x, y, z'

loop_
  _atom_site_type_symbol
  _atom_site_label
  _atom_site_symmetry_multiplicity
  _atom_site_fract_x
  _atom_site_fract_y
  _atom_site_fract_z
  _atom_site_occupancy
  Ag  Ag1       1.0  0.4973133902881912  0.7415066386598852  0.4884259251185555  1.0000
  Ag  Ag2       1.0  0.2584936816240528  0.5026894465575396  0.011570577957499504  1.0000
  Ag  Ag3       1.0  0.5026824765514348  0.2584808934573957  0.5115723475885049  1.0000
  Ag  Ag4       1.0  0.7415223167049163  0.4973155445944001  0.9884278089642323  1.0000
  H   H1        1.0  0.8361611627357777  0.7070331538038629  0.4147394766185997  1.0000
  H   H2        1.0  0.292964504590195  0.16383711335947024  0.0852603042511149  1.0000
  H   H3        1.0  0.16382517510910327  0.292944713499942  0.5852638188277055  1.0000
  H   H4        1.0  0.7070509954499683  0.8361743750391568  0.9147347874019048  1.0000
  H   H5        1.0  0.11929851728951489  0.7712765832405493  0.41725069666311054  1.0000
  H   H6        1.0  0.2287227668197289  0.8806998225713727  0.08274954762780602  1.0000
  H   H7        1.0  0.8806910174420395  0.2287012940484061  0.5827511966554653  1.0000
  H   H8        1.0  0.771293480484175  0.1193067680641491  0.9172488687289119  1.0000
  H   H9        1.0  0.1067504478789445  0.82442312399602  0.289635991082733  1.0000
  H   H10       1.0  0.17557162211191013  0.8932464369000214  0.2103631023242585  1.0000
  H   H11       1.0  0.8932537064113717  0.1755771257908805  0.7103635849170686  1.0000
  H   H12       1.0  0.8244359535094788  0.10675539781328777  0.7896360689998688  1.0000
  H   H13       1.0  0.5485515308623192  0.7796276436577613  0.23999821859657544  1.0000
  H   H14       1.0  0.22037753056091705  0.45144558846481436  0.2600011942205782  1.0000
  H   H15       1.0  0.4514544156525631  0.22037415538504487  0.7600028638127585  1.0000
  H   H16       1.0  0.7796180011079558  0.5485499544845495  0.7399972007125015  1.0000
  H   H17       1.0  0.48954467661387474  0.020616295203389298  0.27779914877242373  1.0000
  H   H18       1.0  0.9793837152797948  0.5104491166085339  0.22220104090849452  1.0000
  H   H19       1.0  0.5104548638623854  0.9793854715979291  0.722205221900893  1.0000
  H   H20       1.0  0.02061653165591077  0.4895560577698105  0.7777951604897311  1.0000
  H   H21       1.0  0.6676473063036426  0.6884055864467343  0.6269676573432577  1.0000
  H   H22       1.0  0.3115868537650144  0.33235998770751946  0.8730326145292295  1.0000
  H   H23       1.0  0.3323452038618839  0.3115914723740402  0.37303507320374524  1.0000
  H   H24       1.0  0.6884132947096121  0.6676547847153246  0.1269642225385397  1.0000
  H   H25       1.0  0.3543043244215909  0.8145941360132197  0.6267316270716352  1.0000
  H   H26       1.0  0.185406770982695  0.6457055484300441  0.8732667948215395  1.0000
  H   H27       1.0  0.6456877249287984  0.18539006444004968  0.3732728289785144  1.0000
  H   H28       1.0  0.8146042746919094  0.35430761650818715  0.1267267993940564  1.0000
  H   H29       1.0  0.023284262090733393  0.7617644892320428  0.6911623613106316  1.0000
  H   H30       1.0  0.23823072296465853  0.9767255871736327  0.8088399666448822  1.0000
  H   H31       1.0  0.9767080637568243  0.23824208173504496  0.3088443929656536  1.0000
  H   H32       1.0  0.7617602064775681  0.023290877488996393  0.1911562661557298  1.0000
  C   C1        1.0  0.2093596869083569  0.7906339445227175  0.2499998429836907  1.0000
  C   C2        1.0  0.7906423893866545  0.2093631197111918  0.7499996491971928  1.0000
  C   C3        1.0  0.44439521822482664  0.8453368063481433  0.2742945718467595  1.0000
  C   C4        1.0  0.15466377333652304  0.5556009626240552  0.2257040471339735  1.0000
  C   C5        1.0  0.5556073314895115  0.15466343231059906  0.7257059472211723  1.0000
  C   C6        1.0  0.8453372699240022  0.44439936307586686  0.7742935429338189  1.0000
  C   C7        1.0  0.8184630700001135  0.7211106068125872  0.6032032114969611  1.0000
  C   C8        1.0  0.2788910194379852  0.18154495361078196  0.8967978565732652  1.0000
  C   C9        1.0  0.1815275252881534  0.27888478004059886  0.39680285272585547  1.0000
  C   C10       1.0  0.7211161961431785  0.8184745636061166  0.10319916859522492  1.0000
  C   C11       1.0  0.1951178593851708  0.7855246440592578  0.6028657304807368  1.0000
  C   C12       1.0  0.21447426758049196  0.8048883182115744  0.897134853255217  1.0000
  C   C13       1.0  0.8048687025651728  0.21446449439962825  0.3971353260189048  1.0000
  C   C14       1.0  0.78553106991923  0.19512956385123909  0.10286405356347933  1.0000
  C   C15       1.0  0.49118391845863846  0.7632526874003531  0.3411493443422984  1.0000
  C   C16       1.0  0.23674626952554692  0.5088155650581283  0.15884946930020763  1.0000
  C   C17       1.0  0.5088191786055845  0.23674110309638502  0.6588525339602143  1.0000
  C   C18       1.0  0.7632605837015731  0.49118149574677267  0.8411486457018784  1.0000
  C   C19       1.0  0.013154993846434608  0.7584747724081495  0.6385216486213139  1.0000
  C   C20       1.0  0.24152001965647674  0.9868529597505071  0.8614796647470584  1.0000
  C   C21       1.0  0.9868324413509698  0.2415206412733824  0.3614843657036247  1.0000
  C   C22       1.0  0.7584790712531202  0.013165049596011601  0.1385162382246889  1.0000
  C   C23       1.0  0.9904092203868302  0.7466336589560143  0.5060777515243091  1.0000
  C   C24       1.0  0.2533669970067932  0.009590840881145396  0.9939223962839067  1.0000
  C   C25       1.0  0.009580787425129187  0.25335708897161163  0.49392193228258924  1.0000
  C   C26       1.0  0.7466386388678715  0.9904189935360816  0.006077840334377502  1.0000
  N   N1        1.0  0.18712554093209374  0.7761914613327929  0.5380053608367206  1.0000
  N   N2        1.0  0.22381080679311086  0.8128759706675767  0.9619947193988807  1.0000
  N   N3        1.0  0.812864605467375  0.22380077563789758  0.46199870848197844  1.0000
  N   N4        1.0  0.7761912446324288  0.18713076523784616  0.0380025044003389  1.0000
  N   N5        1.0  0.8044015133828069  0.7190186484435299  0.5381057337223609  1.0000
  N   N6        1.0  0.2809805548931692  0.19559996864518328  0.9618956603986037  1.0000
  N   N7        1.0  0.19558752639056817  0.2809767763661668  0.4618993375344544  1.0000
  N   N8        1.0  0.7190238357678851  0.8044115645679778  0.03810119264599621  1.0000
  N   N9        1.0  0.9801290258783268  0.7439977221554341  0.44150847932422016  1.0000
  N   N10       1.0  0.25600148920129584  0.019867901701559294  0.05849095982242151  1.0000
  N   N11       1.0  0.01986456672168659  0.2559864280701589  0.5584974537004684  1.0000
  N   N12       1.0  0.7440083361291627  0.9801372903610994  0.9415015192011539  1.0000
  O   O1        1.0  0.6341822698317401  0.6457384064902529  0.3485873605607353  1.0000
  O   O2        1.0  0.3542626742765904  0.36581894768503526  0.1514113695487325  1.0000
  O   O3        1.0  0.3658190840689954  0.3542538838352556  0.6514110752981139  1.0000
  O   O4        1.0  0.6457459343792846  0.6341796255622612  0.848589703888493  1.0000
  O   O5        1.0  0.3805406439982875  0.827177387704225  0.38719774300465565  1.0000
  O   O6        1.0  0.1728186008528212  0.6194591497933856  0.11280080085566618  1.0000
  O   O7        1.0  0.61945757468105  0.17280525777811553  0.6128029113379727  1.0000
  O   O8        1.0  0.8271953440113862  0.38054268034790084  0.8871965342300785  1.0000
