data_image0
_chemical_formula_structural       Nd2H32C16Cl6O4
_chemical_formula_sum              "Nd2 H32 C16 Cl6 O4"
_cell_length_a       8.162390661663538
_cell_length_b       8.588393732622205
_cell_length_c       9.734724681956514
_cell_angle_alpha    79.17317008102454
_cell_angle_beta     70.78716153159681
_cell_angle_gamma    82.31842261205115

_space_group_name_H-M_alt    "P 1"
_space_group_IT_number       1

loop_
  _space_group_symop_operation_xyz
  'x, y, z'

loop_
  _atom_site_type_symbol
  _atom_site_label
  _atom_site_symmetry_multiplicity
  _atom_site_fract_x
  _atom_site_fract_y
  _atom_site_fract_z
  _atom_site_occupancy
  Nd  Nd1       1.0  0.9958476841966045  0.23529108486258105  0.07819638257603852  1.0000
  Nd  Nd2       1.0  0.0041514311388226805  0.7647116109272217  0.9218063090217042  1.0000
  H   H1        1.0  0.23514565751391808  0.1692799520446328  0.7685625764732863  1.0000
  H   H2        1.0  0.7648520436875472  0.8307239530488671  0.23143620316077576  1.0000
  H   H3        1.0  0.43148787343761796  0.07515147200025747  0.7986226857793213  1.0000
  H   H4        1.0  0.5685062356300107  0.9248488672478596  0.20137870105831732  1.0000
  H   H5        1.0  0.3711416840768749  0.4156605609126769  0.6445636015283399  1.0000
  H   H6        1.0  0.628861404677572  0.5843409583666384  0.3554340660369348  1.0000
  H   H7        1.0  0.5431742172639176  0.2721853404487432  0.5745566140709073  1.0000
  H   H8        1.0  0.4568252793566925  0.7278126129851897  0.42544366069794387  1.0000
  H   H9        1.0  0.5891437704604384  0.49767840839027117  0.7250980967753763  1.0000
  H   H10       1.0  0.4108608087237684  0.5023207354790241  0.2748985148071342  1.0000
  H   H11       1.0  0.6886593605565281  0.30120576675458466  0.748417145109549  1.0000
  H   H12       1.0  0.31134153229169204  0.6987909957122578  0.25158293457430153  1.0000
  H   H13       1.0  0.5184230466022085  0.27321943998069276  0.9946462958882522  1.0000
  H   H14       1.0  0.48157595662472374  0.7267844585886535  0.005353149558572959  1.0000
  H   H15       1.0  0.3865777841422328  0.4536784087943601  0.9645782576696433  1.0000
  H   H16       1.0  0.6134237020739518  0.5463266886745187  0.035417219727477835  1.0000
  H   H17       1.0  0.8689896540108677  0.16909880256730495  0.5252150160914084  1.0000
  H   H18       1.0  0.13101393709043657  0.8308967624082866  0.4747855343202192  1.0000
  H   H19       1.0  0.8827896037680246  0.3590122562602217  0.41047788641757427  1.0000
  H   H20       1.0  0.11720740538674326  0.6409845028583233  0.5895253296388107  1.0000
  H   H21       1.0  0.040811589906219595  0.29644743900672665  0.6275663504503299  1.0000
  H   H22       1.0  0.9591894060973231  0.7035481298488759  0.37243492186009053  1.0000
  H   H23       1.0  0.1480680268081613  0.4040433065777619  0.4519301035464593  1.0000
  H   H24       1.0  0.8519341725421157  0.5959534447807681  0.5480716687123318  1.0000
  H   H25       1.0  0.19400217734747116  0.04355622002941568  0.5519329344153832  1.0000
  H   H26       1.0  0.8059962146051447  0.9564393618745012  0.44806700626949697  1.0000
  H   H27       1.0  0.3621360062086153  0.1765265574225622  0.4724185655300844  1.0000
  H   H28       1.0  0.6378636877694674  0.823469017957194  0.5275820409675661  1.0000
  H   H29       1.0  0.3205460029576769  0.22012243309637808  0.2361403920877692  1.0000
  H   H30       1.0  0.6794533007820505  0.7798778938075657  0.7638605777144392  1.0000
  H   H31       1.0  0.2732336504745874  0.015740819568236492  0.2912490547359141  1.0000
  H   H32       1.0  0.7267656487885504  0.9842595119198588  0.7087508883041238  1.0000
  C   C1        1.0  0.3554093977093302  0.1900240959523528  0.7872743521130587  1.0000
  C   C2        1.0  0.6445871135751702  0.8099786128857642  0.21272700785914372  1.0000
  C   C3        1.0  0.4597145053160219  0.3173185825003485  0.6750642796778052  1.0000
  C   C4        1.0  0.5402848881492659  0.6826805645448173  0.3249348024644618  1.0000
  C   C5        1.0  0.5638590204775296  0.37198035033492965  0.7608389830718637  1.0000
  C   C6        1.0  0.4361416660600454  0.6280187993543789  0.23915871135884  1.0000
  C   C7        1.0  0.448325575925935  0.3438233905464258  0.9218903405104442  1.0000
  C   C8        1.0  0.5516722284308598  0.6561793209358412  0.07810963175018767  1.0000
  C   C9        1.0  0.9583439750249099  0.25411336307868027  0.4476909981913479  1.0000
  C   C10       1.0  0.04165653653812741  0.7458881417440392  0.5523114983214016  1.0000
  C   C11       1.0  0.09468365744285019  0.2901276182457407  0.5095485053979588  1.0000
  C   C12       1.0  0.9053131364481003  0.7098715372635807  0.4904502718809384  1.0000
  C   C13       1.0  0.23344253832906495  0.15210849687172606  0.4734161252880541  1.0000
  C   C14       1.0  0.7665572408979954  0.8478859032334042  0.5265815667874918  1.0000
  C   C15       1.0  0.23611374695454398  0.1356686548050945  0.32023909886791563  1.0000
  C   C16       1.0  0.7638883447638207  0.8643292947488203  0.6797604540021355  1.0000
  Cl  Cl1       1.0  0.9391261445993989  0.47606041313962066  0.8564526847401269  1.0000
  Cl  Cl2       1.0  0.06087427276148818  0.5239422761260285  0.14355067267038638  1.0000
  Cl  Cl3       1.0  0.6707904055089456  0.24229054581626736  0.2551660258709135  1.0000
  Cl  Cl4       1.0  0.3292088085052143  0.757710960946454  0.7448368315912292  1.0000
  Cl  Cl5       1.0  0.8780702022507398  0.08517195392761316  0.8940696808328356  1.0000
  Cl  Cl6       1.0  0.1219301119548248  0.9148319289492758  0.10593248395110787  1.0000
  O   O1        1.0  0.30576412616125026  0.2535036599346227  0.925508490214888  1.0000
  O   O2        1.0  0.6942361656613797  0.7465002458630179  0.07448854075820319  1.0000
  O   O3        1.0  0.056126755141832484  0.17714269796448426  0.3186154063709665  1.0000
  O   O4        1.0  0.9438738371935925  0.8228576361677538  0.681383148957508  1.0000
