data_image0
_chemical_formula_structural       Ag2H34C32S2N4O6
_chemical_formula_sum              "Ag2 H34 C32 S2 N4 O6"
_cell_length_a       7.520671654477738
_cell_length_b       9.011817219377594
_cell_length_c       13.80390439315393
_cell_angle_alpha    90.52343731142923
_cell_angle_beta     81.54221055339319
_cell_angle_gamma    87.42519592928437

_space_group_name_H-M_alt    "P 1"
_space_group_IT_number       1

loop_
  _space_group_symop_operation_xyz
  'x, y, z'

loop_
  _atom_site_type_symbol
  _atom_site_label
  _atom_site_symmetry_multiplicity
  _atom_site_fract_x
  _atom_site_fract_y
  _atom_site_fract_z
  _atom_site_occupancy
  Ag  Ag1       1.0  0.23232328008327843  0.3714737403410028  0.9882837795857569  1.0000
  Ag  Ag2       1.0  0.7676721354135696  0.6285247243170036  0.011716058630376799  1.0000
  H   H1        1.0  0.5522499796249319  0.350487822805711  0.018282563382406608  1.0000
  H   H2        1.0  0.447745351984956  0.6495106622427118  0.9817194544775558  1.0000
  H   H3        1.0  0.48136508145172036  0.17848192047334524  0.31113651966201417  1.0000
  H   H4        1.0  0.5186205419398747  0.8215197154988942  0.6888669015865716  1.0000
  H   H5        1.0  0.6723827757448718  0.3825032085331231  0.35763227898324595  1.0000
  H   H6        1.0  0.3276145809294775  0.6174886126920075  0.642366683273238  1.0000
  H   H7        1.0  0.7716937088175371  0.5737929212284814  0.23284493108250356  1.0000
  H   H8        1.0  0.2283144352150117  0.4261969272247229  0.7671569038994974  1.0000
  H   H9        1.0  0.3558557957897648  0.044168023112504805  0.1768985809740826  1.0000
  H   H10       1.0  0.6441212651769773  0.9558422754763926  0.8230989328605318  1.0000
  H   H11       1.0  0.15064231764260685  0.9649340185292131  0.10570370829296387  1.0000
  H   H12       1.0  0.8493541597607079  0.035069978212042906  0.8942909987644112  1.0000
  H   H13       1.0  0.3264210563034381  0.9574299859964844  0.9411162954115253  1.0000
  H   H14       1.0  0.6735714060995691  0.042572840166876305  0.05888085973546709  1.0000
  H   H15       1.0  0.1803222467268597  0.09551728103048161  0.8997124301110871  1.0000
  H   H16       1.0  0.8196770659865108  0.9044856451419608  0.10028062911553802  1.0000
  H   H17       1.0  0.9229089247083805  0.2167352086700234  0.029495398040992937  1.0000
  H   H18       1.0  0.07708622189412753  0.7832676710905703  0.9705015718337435  1.0000
  H   H19       1.0  0.9021404227684826  0.15229861133726535  0.15173855631798716  1.0000
  H   H20       1.0  0.09785787266411461  0.8476998593403595  0.8482560107902728  1.0000
  H   H21       1.0  0.3212656264293727  0.7251914191961221  0.3386059764209222  1.0000
  H   H22       1.0  0.6787429358062056  0.274809554983392  0.6613951340029657  1.0000
  H   H23       1.0  0.3494980774797726  0.5810986311772768  0.4885671821029192  1.0000
  H   H24       1.0  0.6505103336452577  0.41890346716829197  0.5114353908794556  1.0000
  H   H25       1.0  0.061395377635335514  0.2283372057382209  0.3803684139187453  1.0000
  H   H26       1.0  0.9386130614520097  0.7716648858105446  0.619633432515684  1.0000
  H   H27       1.0  0.03695146794042611  0.372357411137621  0.22924175060365565  1.0000
  H   H28       1.0  0.9630585036184768  0.6276424860648647  0.7707599842694534  1.0000
  H   H29       1.0  0.36275137322726897  0.2789772356622466  0.5436102133353911  1.0000
  H   H30       1.0  0.6372562276521735  0.7210192694288438  0.45639095187424045  1.0000
  H   H31       1.0  0.1476467480078156  0.20649964670202087  0.5401883761337913  1.0000
  H   H32       1.0  0.8523581573731891  0.793497894973875  0.45981080416685666  1.0000
  H   H33       1.0  0.16616992359631416  0.37439535169873045  0.6036419786841235  1.0000
  H   H34       1.0  0.8338363744446439  0.6256000296149014  0.39636072279493106  1.0000
  C   C1        1.0  0.563864263715935  0.3607664999530941  0.0960897666518221  1.0000
  C   C2        1.0  0.4361243966564601  0.6392307541233893  0.9039141580220685  1.0000
  C   C3        1.0  0.4864935086528206  0.2580493359685364  0.1634673685240173  1.0000
  C   C4        1.0  0.5135029913483818  0.7419524804086423  0.8365316788958308  1.0000
  C   C5        1.0  0.5321375001829979  0.26133093983274597  0.2582547307881952  1.0000
  C   C6        1.0  0.46784393449985356  0.7386728300917371  0.7417482607460215  1.0000
  C   C7        1.0  0.636733291682937  0.37433498380595864  0.28428412757939714  1.0000
  C   C8        1.0  0.3632606139402342  0.6256634948342495  0.7157201625605296  1.0000
  C   C9        1.0  0.6951012801097533  0.4799037773417327  0.21520208486538905  1.0000
  C   C10       1.0  0.3049028263246073  0.5200870808976462  0.7847978578437562  1.0000
  C   C11       1.0  0.360839366435563  0.15011793851099503  0.1376746776123525  1.0000
  C   C12       1.0  0.6391443663387407  0.8498881537332397  0.8623332334104177  1.0000
  C   C13       1.0  0.13378864691491546  0.057589064926894196  0.05604606701361089  1.0000
  C   C14       1.0  0.8662081440084393  0.9424115933002142  0.9439478851080237  1.0000
  C   C15       1.0  0.18660153453399184  0.0018896636645635973  0.950173078479345  1.0000
  C   C16       1.0  0.8133941605860643  0.9981087330254184  0.049819494257334895  1.0000
  C   C17       1.0  0.9380603204464393  0.11756356456542255  0.07442325504536738  1.0000
  C   C18       1.0  0.06193369109151095  0.8824381506368937  0.9255708918111195  1.0000
  C   C19       1.0  0.173991669929805  0.5582287570092107  0.2758994478239813  1.0000
  C   C20       1.0  0.8260158357637338  0.44176885865433496  0.7241017268482464  1.0000
  C   C21       1.0  0.263473355930941  0.6165292828176875  0.3486846785917379  1.0000
  C   C22       1.0  0.7365339593907907  0.38347055399075464  0.6513165150056821  1.0000
  C   C23       1.0  0.27834150487906595  0.535148583822732  0.4325117811973697  1.0000
  C   C24       1.0  0.7216655528472701  0.46485457790625884  0.567488714239893  1.0000
  C   C25       1.0  0.2049403830300207  0.3948704953702703  0.4462870425167011  1.0000
  C   C26       1.0  0.7950667139575742  0.6051315693798788  0.5537148965538563  1.0000
  C   C27       1.0  0.11786040590366302  0.3378849153737918  0.3720125918899271  1.0000
  C   C28       1.0  0.8821482907790851  0.6621138512544249  0.6279899527046666  1.0000
  C   C29       1.0  0.10285365420999433  0.4181170161241496  0.2872073470864791  1.0000
  C   C30       1.0  0.8971551656209729  0.5818806331348158  0.7127944614975661  1.0000
  C   C31       1.0  0.22122553445547063  0.30905127161297946  0.5376528647529638  1.0000
  C   C32       1.0  0.7787805619147365  0.6909474210275947  0.46234768547004274  1.0000
  S   S1        1.0  0.13712679995332877  0.672450605494781  0.17468035775574003  1.0000
  S   S2        1.0  0.8628830371584116  0.32755149925899474  0.8253199429466703  1.0000
  N   N1        1.0  0.6643544697229516  0.4697383164284617  0.1217488296305547  1.0000
  N   N2        1.0  0.33564503929672906  0.5302591248497635  0.878251447762544  1.0000
  N   N3        1.0  0.2533260127124777  0.17511133129588793  0.0746148856137197  1.0000
  N   N4        1.0  0.7466625013437422  0.8248946578305266  0.9253731307061556  1.0000
  O   O1        1.0  0.07501900005256348  0.5719721306177449  0.1019756507251728  1.0000
  O   O2        1.0  0.9249854014365867  0.42803097071720236  0.8980243034364006  1.0000
  O   O3        1.0  0.3096986322312247  0.7373600069797706  0.1393067759731039  1.0000
  O   O4        1.0  0.6903127766133395  0.26263880644888365  0.8606948568012881  1.0000
  O   O5        1.0  0.9941198305283692  0.7809587352510975  0.216447801907151  1.0000
  O   O6        1.0  0.00589123683383261  0.21904342348850753  0.7835553123509199  1.0000
