data_image0
_chemical_formula_structural       Zn2H24C32O12
_chemical_formula_sum              "Zn2 H24 C32 O12"
_cell_length_a       7.582260704642502
_cell_length_b       8.137982007509398
_cell_length_c       12.598591732543525
_cell_angle_alpha    108.79819692277681
_cell_angle_beta     97.02695236283961
_cell_angle_gamma    90.0544496005646

_space_group_name_H-M_alt    "P 1"
_space_group_IT_number       1

loop_
  _space_group_symop_operation_xyz
  'x, y, z'

loop_
  _atom_site_type_symbol
  _atom_site_label
  _atom_site_symmetry_multiplicity
  _atom_site_fract_x
  _atom_site_fract_y
  _atom_site_fract_z
  _atom_site_occupancy
  Zn  Zn1       1.0  0.7499957686065811  0.9492105176425769  3.0390564994303704e-05  1.0000
  Zn  Zn2       1.0  0.25000111335837966  0.0507828020085412  0.999968619310643  1.0000
  H   H1        1.0  0.3554653297470907  0.032643604852069096  0.33080939105572343  1.0000
  H   H2        1.0  0.1444738840563389  0.7019968922077238  0.6691600616848634  1.0000
  H   H3        1.0  0.6445389333272401  0.9673640106299503  0.6691908774106353  1.0000
  H   H4        1.0  0.8555230631631261  0.29799647083255826  0.3308357874046096  1.0000
  H   H5        1.0  0.9468062936815966  0.7930754288712764  0.38049373418287064  1.0000
  H   H6        1.0  0.5530059826284129  0.41208166614158875  0.6196144721097954  1.0000
  H   H7        1.0  0.053193858500613096  0.20692960489818552  0.6195056526133487  1.0000
  H   H8        1.0  0.4469884905721032  0.5879181171639021  0.3803888948967967  1.0000
  H   H9        1.0  0.7827758019266539  0.891039874510845  0.5405890345524328  1.0000
  H   H10       1.0  0.7171882394679086  0.3500872444663869  0.4595866390174025  1.0000
  H   H11       1.0  0.21722384867473465  0.1089547657614673  0.4594080986123574  1.0000
  H   H12       1.0  0.28280471714082717  0.6499086468315768  0.5404157767899777  1.0000
  H   H13       1.0  0.04720450761305269  0.688668395219466  0.09844763637971  1.0000
  H   H14       1.0  0.4519705744515291  0.5903240485353223  0.9014857325783086  1.0000
  H   H15       1.0  0.9527922978975808  0.3113223585992415  0.9015484394984484  1.0000
  H   H16       1.0  0.5480357272876403  0.4096743422086534  0.09852146829736341  1.0000
  H   H17       1.0  0.0982682300973039  0.8304709096852961  0.24102943589294074  1.0000
  H   H18       1.0  0.40131458277900117  0.589592007073641  0.7588245794863442  1.0000
  H   H19       1.0  0.9017377495109499  0.16951720688174995  0.7589668191893468  1.0000
  H   H20       1.0  0.5986864513482428  0.4104076942258318  0.24118326894009104  1.0000
  H   H21       1.0  0.0022652028529179997  0.615965341573066  0.21359740839911728  1.0000
  H   H22       1.0  0.4967865775526261  0.4026005288046264  0.7864804105748819  1.0000
  H   H23       1.0  0.9977225075713388  0.3840293595317378  0.7863979797822936  1.0000
  H   H24       1.0  0.5032225392069449  0.5974004709004036  0.21352598549042065  1.0000
  C   C1        1.0  0.5515804565347507  0.9705904829988231  0.45145461431366146  1.0000
  C   C2        1.0  0.9484216980018018  0.5190176657226431  0.5485822275663282  1.0000
  C   C3        1.0  0.4484237438419782  0.029415833296056296  0.5485453724487712  1.0000
  C   C4        1.0  0.051570186012177985  0.48098091628185813  0.4514143239891484  1.0000
  C   C5        1.0  0.48440011779853615  0.9790902712845906  0.34483902653506254  1.0000
  C   C6        1.0  0.015524313921453392  0.6342319924044162  0.6551669173752261  1.0000
  C   C7        1.0  0.5156041753461409  0.0209186216899866  0.6551631040283115  1.0000
  C   C8        1.0  0.9844702571608224  0.36576785598482087  0.34483170845211947  1.0000
  C   C9        1.0  0.574076401919406  0.918999410540458  0.2495856787015001  1.0000
  C   C10       1.0  0.9256802823801705  0.6694312934936731  0.7504210512875961  1.0000
  C   C11       1.0  0.42592665805116053  0.0810108088697561  0.7504150470852909  1.0000
  C   C12       1.0  0.07431969546595239  0.33057110935962436  0.24958014269039813  1.0000
  C   C13       1.0  0.745101066060883  0.8507940048340785  0.26160239987502376  1.0000
  C   C14       1.0  0.7546100151424752  0.589029115900523  0.7384265996045303  1.0000
  C   C15       1.0  0.2549034014198738  0.14921751905666267  0.7383979235065825  1.0000
  C   C16       1.0  0.2453873057057052  0.410973298060597  0.26157438219861023  1.0000
  C   C17       1.0  0.8166476210338942  0.8454108326159187  0.3687181879624292  1.0000
  C   C18       1.0  0.6832300609119527  0.4762879563642386  0.6313889448337309  1.0000
  C   C19       1.0  0.1833553135414618  0.15459678842000812  0.6312819744165028  1.0000
  C   C20       1.0  0.31676586873964396  0.5237131639636486  0.36861164917805683  1.0000
  C   C21       1.0  0.721359278589041  0.902188954084352  0.46048788377077454  1.0000
  C   C22       1.0  0.778614207365045  0.4413560997981634  0.5396246144996157  1.0000
  C   C23       1.0  0.2786407318843373  0.0978134704635352  0.5395117298141303  1.0000
  C   C24       1.0  0.2213775650104566  0.558641150477314  0.46037402594156174  1.0000
  C   C25       1.0  0.48018717621849305  0.9254916073130559  0.1400914804575919  1.0000
  C   C26       1.0  0.0194913715027383  0.7854542598912675  0.8598806623603895  1.0000
  C   C27       1.0  0.51981004930483  0.07450948576634181  0.8599108000346977  1.0000
  C   C28       1.0  0.9805136721057721  0.2145416681998427  0.14011638666149656  1.0000
  C   C29       1.0  0.005766147570675195  0.7274564586257739  0.18280843800222615  1.0000
  C   C30       1.0  0.4935556450016205  0.5447984122482411  0.817164340339261  1.0000
  C   C31       1.0  0.9942322372293473  0.2725394863875934  0.8171888707790703  1.0000
  C   C32       1.0  0.5064520805613809  0.45520129382355623  0.1828416679346816  1.0000
  O   O1        1.0  0.3305240153339497  0.9983990056612981  0.14259703326684564  1.0000
  O   O2        1.0  0.16927616581213553  0.8559340489163108  0.8573952471071566  1.0000
  O   O3        1.0  0.6694689739020417  0.0015969073312546976  0.8574038021474595  1.0000
  O   O4        1.0  0.8307311723654324  0.1440553395893858  0.14260297615956571  1.0000
  O   O5        1.0  0.5431301399974514  0.8565578277780761  0.04685742558619671  1.0000
  O   O6        1.0  0.9564897969573278  0.8096030286580387  0.9531209863933089  1.0000
  O   O7        1.0  0.4568644448415498  0.14344328725643146  0.9531438525347016  1.0000
  O   O8        1.0  0.04351562283679299  0.1904006945559331  0.04687775285215422  1.0000
  O   O9        1.0  0.8307094638587387  0.791355215587224  0.16930456658937493  1.0000
  O   O10       1.0  0.6687863605705074  0.6221117890617052  0.830691389108104  1.0000
  O   O11       1.0  0.16929620672579662  0.20865370437532252  0.8306952994717992  1.0000
  O   O12       1.0  0.3312162579599302  0.37789059183648277  0.1693108072412812  1.0000
