data_image0
_chemical_formula_structural       Cu4H40C64N16O16
_chemical_formula_sum              "Cu4 H40 C64 N16 O16"
_cell_length_a       13.628119340055498
_cell_length_b       13.881448880013254
_cell_length_c       14.929180933388544
_cell_angle_alpha    90.0000207224519
_cell_angle_beta     91.70083172707734
_cell_angle_gamma    89.99984256845933

_space_group_name_H-M_alt    "P 1"
_space_group_IT_number       1

loop_
  _space_group_symop_operation_xyz
  'x, y, z'

loop_
  _atom_site_type_symbol
  _atom_site_label
  _atom_site_symmetry_multiplicity
  _atom_site_fract_x
  _atom_site_fract_y
  _atom_site_fract_z
  _atom_site_occupancy
  Cu  Cu1       1.0  0.4999984593486247  0.9999995040884574  0.5000001755297275  1.0000
  Cu  Cu2       1.0  0.4999999010299734  0.5000006416836911  0.999999075235948  1.0000
  Cu  Cu3       1.0  1.5465409362000006e-06  0.9999993602954051  8.566607477000001e-07  1.0000
  Cu  Cu4       1.0  5.1929845298740734e-08  0.4999997775086841  0.4999996998006182  1.0000
  H   H1        1.0  0.2975213696103722  0.2846990052022207  0.0939045001711278  1.0000
  H   H2        1.0  0.7024790282914637  0.7847003614503836  0.4060954816494302  1.0000
  H   H3        1.0  0.7024798751328307  0.7153006426713943  0.9060951073600945  1.0000
  H   H4        1.0  0.2975214823783787  0.2152992864242265  0.5939041117402297  1.0000
  H   H5        1.0  0.0790086283116125  0.2886520969273576  0.2981621614777623  1.0000
  H   H6        1.0  0.9209917522567396  0.7886513437845936  0.20183715139614827  1.0000
  H   H7        1.0  0.9209918760572366  0.7113489917189213  0.7018367619369669  1.0000
  H   H8        1.0  0.07900729656536501  0.21134830409210542  0.7981630836855016  1.0000
  H   H9        1.0  0.2585539613388832  0.5386127857837977  0.25518879983013676  1.0000
  H   H10       1.0  0.7414471110638348  0.038613893487458015  0.2448097779989382  1.0000
  H   H11       1.0  0.7414450622852727  0.46138830286420784  0.7448087553512295  1.0000
  H   H12       1.0  0.25855342480092963  0.9613864747735336  0.7551924952912825  1.0000
  H   H13       1.0  0.0394480912629973  0.23743428716787213  0.9832753727556423  1.0000
  H   H14       1.0  0.9605524703727895  0.7374347960576346  0.5167238379633972  1.0000
  H   H15       1.0  0.960552425705828  0.7625653607068515  0.016724890609140196  1.0000
  H   H16       1.0  0.0394472936267292  0.262564131431816  0.4832744013343628  1.0000
  H   H17       1.0  0.033606151522754105  0.3068627515728438  0.08432826675633007  1.0000
  H   H18       1.0  0.966394184497567  0.8068626796945042  0.4156717208319164  1.0000
  H   H19       1.0  0.9663943717450536  0.6931368963020008  0.9156726665835677  1.0000
  H   H20       1.0  0.0336048517265652  0.1931369681819534  0.5843271742994957  1.0000
  H   H21       1.0  0.9459185736409097  0.21316308472398052  0.06022252327240099  1.0000
  H   H22       1.0  0.05408202399826932  0.7131633205128128  0.4397774399315749  1.0000
  H   H23       1.0  0.05408268370025131  0.7868365631498833  0.9397784242090522  1.0000
  H   H24       1.0  0.9459177462992303  0.28683632736265713  0.5602214693413996  1.0000
  H   H25       1.0  0.3128925877796577  0.2224403927491849  0.2942390410849498  1.0000
  H   H26       1.0  0.6871065347070273  0.7224402716474075  0.20576290617552215  1.0000
  H   H27       1.0  0.6871086821584598  0.7775599755108191  0.7057632463468337  1.0000
  H   H28       1.0  0.312893241890457  0.2775586558422916  0.7942366730724755  1.0000
  H   H29       1.0  0.43084758807653156  0.17356423532636003  0.4149716689277767  1.0000
  H   H30       1.0  0.5691494686530235  0.6735672667391626  0.08503022318893727  1.0000
  H   H31       1.0  0.5691514670465594  0.82643397177867  0.585029236128804  1.0000
  H   H32       1.0  0.43085104201379926  0.3264345422931356  0.9149693702009996  1.0000
  H   H33       1.0  0.37402647471471084  0.88404849651905  0.3737622866030036  1.0000
  H   H34       1.0  0.6259721713482094  0.38404914895694736  0.12623702281381807  1.0000
  H   H35       1.0  0.6259725615084194  0.11595187174329884  0.6262366085285009  1.0000
  H   H36       1.0  0.37402539672920915  0.6159504989214855  0.8737618440344617  1.0000
  H   H37       1.0  0.24872859752488108  0.9202148952230831  0.25179968745693765  1.0000
  H   H38       1.0  0.7512706690354778  0.4202138166037416  0.24819830556289443  1.0000
  H   H39       1.0  0.7512711664696071  0.07978763419585282  0.7481985518412912  1.0000
  H   H40       1.0  0.24872836718866156  0.5797858312727159  0.7518005895685249  1.0000
  C   C1        1.0  0.3632320484823381  0.4674442540945379  0.11612946757870189  1.0000
  C   C2        1.0  0.6367685795487292  0.9674450584460248  0.3838712459158913  1.0000
  C   C3        1.0  0.636767728113135  0.5325561141669511  0.8838701116694878  1.0000
  C   C4        1.0  0.36323269668837815  0.03255530981410001  0.6161317114910146  1.0000
  C   C5        1.0  0.28649550004121954  0.41684230131338046  0.1691899917835542  1.0000
  C   C6        1.0  0.7135052629761279  0.9168435985179787  0.33081003856739244  1.0000
  C   C7        1.0  0.7135072254476712  0.5831566261726095  0.8308109839809389  1.0000
  C   C8        1.0  0.28649527918862117  0.0831560493572354  0.6691929046978585  1.0000
  C   C9        1.0  0.25989353281863004  0.32236444286812127  0.1469742408838215  1.0000
  C   C10       1.0  0.7401060132471997  0.8223649566255774  0.3530243966468376  1.0000
  C   C11       1.0  0.7401077119235637  0.6776359253913996  0.8530253666474933  1.0000
  C   C12       1.0  0.2598937570513016  0.17763397086400093  0.6469745126260448  1.0000
  C   C13       1.0  0.18505946634729753  0.27778995500089115  0.19325565429706154  1.0000
  C   C14       1.0  0.8149394638041445  0.7777895286095035  0.3067422875167765  1.0000
  C   C15       1.0  0.8149403102471667  0.7222111336464963  0.8067439249512205  1.0000
  C   C16       1.0  0.18506031909131349  0.22221011926621512  0.693257961706436  1.0000
  C   C17       1.0  0.13751627113716586  0.3240993195425048  0.2624265652632544  1.0000
  C   C18       1.0  0.8624825360138928  0.8240980176592744  0.23757205857708635  1.0000
  C   C19       1.0  0.8624827587859798  0.6759017691056216  0.737571659893227  1.0000
  C   C20       1.0  0.13751725318055463  0.17590163021656488  0.7624288606212416  1.0000
  C   C21       1.0  0.16578056828119261  0.41808659317844393  0.2858084024929254  1.0000
  C   C22       1.0  0.8342194571911321  0.9180860787695837  0.21419161404002546  1.0000
  C   C23       1.0  0.834218461641953  0.5819144954696899  0.7141898226635559  1.0000
  C   C24       1.0  0.16578033200432435  0.08191284872035003  0.78580930515821  1.0000
  C   C25       1.0  0.23894327403020552  0.4645412902270608  0.23818120818329186  1.0000
  C   C26       1.0  0.7610573558057752  0.9645431527571304  0.2618188345808504  1.0000
  C   C27       1.0  0.761056496267294  0.5354583576484091  0.7618177010896827  1.0000
  C   C28       1.0  0.23894391413134033  0.03545793588877191  0.7381834528510323  1.0000
  C   C29       1.0  0.11734316107504131  0.4697462663129103  0.3618207205061096  1.0000
  C   C30       1.0  0.8826574479316566  0.9697463121078302  0.13817865363721887  1.0000
  C   C31       1.0  0.8826558625481128  0.530255542720994  0.6381768346753488  1.0000
  C   C32       1.0  0.11734308793310792  0.030254056153161506  0.861823619653002  1.0000
  C   C33       1.0  0.023008941123151806  0.2352290273084563  0.0548260411923138  1.0000
  C   C34       1.0  0.9769915823070863  0.7352296587366072  0.4451725878038957  1.0000
  C   C35       1.0  0.976992309919027  0.7647706205652798  0.9451742363140239  1.0000
  C   C36       1.0  0.0230081816904217  0.2647707095246404  0.5548256514940562  1.0000
  C   C37       1.0  0.0862980289104485  0.1631889205763883  0.101178670577049  1.0000
  C   C38       1.0  0.9137034360364498  0.663188984182405  0.3988206237881328  1.0000
  C   C39       1.0  0.9137032284297107  0.8368114476833741  0.8988222769045037  1.0000
  C   C40       1.0  0.08629780870775508  0.33680994330531894  0.6011789837429972  1.0000
  C   C41       1.0  0.19447887864783556  0.09382211421959852  0.19284024606915295  1.0000
  C   C42       1.0  0.8055213181303602  0.5938224337676773  0.30715967193611243  1.0000
  C   C43       1.0  0.805522372393341  0.9061782540400358  0.8071600314372844  1.0000
  C   C44       1.0  0.19447700921634956  0.406177214110251  0.692841888954213  1.0000
  C   C45       1.0  0.26886243134747195  0.07465255888139671  0.2628776194809248  1.0000
  C   C46       1.0  0.7311378000559331  0.5746537720648065  0.23712028361043738  1.0000
  C   C47       1.0  0.7311395285711343  0.9253478093767671  0.7371199922665994  1.0000
  C   C48       1.0  0.26885978061945087  0.42534587581386785  0.7628799231880876  1.0000
  C   C49       1.0  0.3222433528503785  0.1464533583061538  0.30933279142845277  1.0000
  C   C50       1.0  0.6777559692000708  0.6464546973055649  0.19066779610719917  1.0000
  C   C51       1.0  0.6777593537405552  0.8535462895653726  0.6906661744107794  1.0000
  C   C52       1.0  0.32224307962203375  0.35354495057113405  0.8093324389744507  1.0000
  C   C53       1.0  0.38900551523997967  0.11989769615145462  0.3768547383914366  1.0000
  C   C54       1.0  0.6109931342851239  0.6198991888350349  0.12314448814161237  1.0000
  C   C55       1.0  0.610995716905258  0.8801019517219261  0.6231435291895477  1.0000
  C   C56       1.0  0.38900590823598696  0.38010189981334  0.8768550769651069  1.0000
  C   C57       1.0  0.356912737221819  0.9578153111781803  0.3539753679166395  1.0000
  C   C58       1.0  0.6430835195533505  0.45781592518981995  0.14602592819783666  1.0000
  C   C59       1.0  0.6430841156781782  0.04218505708750091  0.6460254947155305  1.0000
  C   C60       1.0  0.356915510371806  0.5421837226865165  0.85397229695846  1.0000
  C   C61       1.0  0.288104343155169  0.9781281118940371  0.2863738090954229  1.0000
  C   C62       1.0  0.7118947805992308  0.47812928711864805  0.2136262089213332  1.0000
  C   C63       1.0  0.7118954334403116  0.021872256367451808  0.7136257701527668  1.0000
  C   C64       1.0  0.28810426192288213  0.5218710811438215  0.7863733561852937  1.0000
  N   N1        1.0  0.15601046039392233  0.1823266110638855  0.16650340226452434  1.0000
  N   N2        1.0  0.8439887551982254  0.6823261167797839  0.3334965246313857  1.0000
  N   N3        1.0  0.8439900628728764  0.8176737571968645  0.8334975310754658  1.0000
  N   N4        1.0  0.15601029992286194  0.3176735310970358  0.6665043804253868  1.0000
  N   N5        1.0  0.08430713404327861  0.06820315884282022  0.0889389156053184  1.0000
  N   N6        1.0  0.9156945961128146  0.5682039422339146  0.4110603540409699  1.0000
  N   N7        1.0  0.9156941169989069  0.9317964890309229  0.9110613619010264  1.0000
  N   N8        1.0  0.08430664233240752  0.43179498525368853  0.5889385835150447  1.0000
  N   N9        1.0  0.1501625437470295  0.024658635155887506  0.1454155891188051  1.0000
  N   N10       1.0  0.8498393205896946  0.5246581333158177  0.35458500914557317  1.0000
  N   N11       1.0  0.8498387135921208  0.9753424534897733  0.854585358362847  1.0000
  N   N12       1.0  0.1501604560067875  0.475341514559773  0.645414570102524  1.0000
  N   N13       1.0  0.4058118889455074  0.027573741725156302  0.3993097892057946  1.0000
  N   N14       1.0  0.5941863031812815  0.52757527097193  0.10069140908476727  1.0000
  N   N15       1.0  0.5941871661755727  0.9724259061516638  0.6006911158509707  1.0000
  N   N16       1.0  0.4058127393398295  0.4724258176764452  0.899308156021952  1.0000
  O   O1        1.0  0.4240210347738512  0.4105761812564026  0.07595782381289948  1.0000
  O   O2        1.0  0.5759797331416366  0.91057716512843  0.4240408649570782  1.0000
  O   O3        1.0  0.5759794632970171  0.58942418700385  0.9240404296266147  1.0000
  O   O4        1.0  0.42402079012516236  0.08942320313231283  0.5759600683829119  1.0000
  O   O5        1.0  0.3641816663124473  0.5571899268324358  0.11097985374787807  1.0000
  O   O6        1.0  0.6358201197877381  0.05719209583664762  0.3890220929329828  1.0000
  O   O7        1.0  0.6358181039860612  0.4428090006571424  0.8890190555250044  1.0000
  O   O8        1.0  0.36418189682070334  0.9428089928085158  0.6109815485907006  1.0000
  O   O9        1.0  0.0539735890805417  0.41797726824271564  0.4040004242790188  1.0000
  O   O10       1.0  0.9460264366955046  0.9179778471644867  0.09599959222562399  1.0000
  O   O11       1.0  0.9460261812159488  0.5820231000186527  0.5959984849940483  1.0000
  O   O12       1.0  0.05397335879691671  0.08202252109737171  0.9040019969479189  1.0000
  O   O13       1.0  0.13927638043466573  0.5549189056590935  0.3801156350847847  1.0000
  O   O14       1.0  0.8607239186667996  0.054918922774589915  0.11988360282119709  1.0000
  O   O15       1.0  0.8607211624438024  0.44508290337654444  0.6198805518633109  1.0000
  O   O16       1.0  0.13927811054060873  0.9450814454849168  0.8801213786526316  1.0000
