data_image0
_chemical_formula_structural       In8H56C96O40
_chemical_formula_sum              "In8 H56 C96 O40"
_cell_length_a       7.304835087048511
_cell_length_b       22.203857997143498
_cell_length_c       22.203895415007693
_cell_angle_alpha    90.0000426470903
_cell_angle_beta     89.99991454833615
_cell_angle_gamma    90.00040926374166

_space_group_name_H-M_alt    "P 1"
_space_group_IT_number       1

loop_
  _space_group_symop_operation_xyz
  'x, y, z'

loop_
  _atom_site_type_symbol
  _atom_site_label
  _atom_site_symmetry_multiplicity
  _atom_site_fract_x
  _atom_site_fract_y
  _atom_site_fract_z
  _atom_site_occupancy
  In  In1       1.0  8.955588533899996e-06  0.7500278586064082  0.24997668620487454  1.0000
  In  In2       1.0  3.250682851790001e-05  0.25006898352192053  0.7499973204991122  1.0000
  In  In3       1.0  3.5209113704999997e-06  0.2500215082715442  0.24994137118432752  1.0000
  In  In4       1.0  0.9999961758779538  0.7500179589467632  0.75000041341481  1.0000
  In  In5       1.0  0.4999860191349158  0.749978454025296  0.2499517929024719  1.0000
  In  In6       1.0  0.5000218898098368  0.24992049709057074  0.7500143116992676  1.0000
  In  In7       1.0  0.4999956428515516  0.24998381342644646  0.2500281699957725  1.0000
  In  In8       1.0  0.49999583922677004  0.7499844950101533  0.7500018873780405  1.0000
  H   H1        1.0  0.5124191279740629  0.7324395525823063  0.056239377474874216  1.0000
  H   H2        1.0  0.9410525451655759  0.8248933787075076  0.11161292352387162  1.0000
  H   H3        1.0  0.6922495056172623  0.8742160262276572  0.056517265209770115  1.0000
  H   H4        1.0  0.25067004381781294  0.8144270333779745  0.6855817448526055  1.0000
  H   H5        1.0  0.5124243871029178  0.2675558073391072  0.9437613996597278  1.0000
  H   H6        1.0  0.941040986615526  0.1751074909503956  0.888393047424131  1.0000
  H   H7        1.0  0.6922448392120729  0.12578425948166938  0.9434924309807972  1.0000
  H   H8        1.0  0.5124265431457147  0.4437641095879031  0.2324448379041257  1.0000
  H   H9        1.0  0.941061007503997  0.3883864330093091  0.3248969579250698  1.0000
  H   H10       1.0  0.6922687461223589  0.443487394517831  0.3742149623647251  1.0000
  H   H11       1.0  0.25067909741564165  0.8144183381573811  0.31441669268100014  1.0000
  H   H12       1.0  0.5124114962131686  0.5562425096341741  0.7675626948073742  1.0000
  H   H13       1.0  0.9410599033700179  0.6116108337022509  0.6751063107863189  1.0000
  H   H14       1.0  0.6922625605875935  0.5565164942088144  0.6257852760181848  1.0000
  H   H15       1.0  0.25064951904688837  0.1855755066532367  0.685574755292599  1.0000
  H   H16       1.0  0.48757592823945833  0.7675583812679961  0.5562390495232421  1.0000
  H   H17       1.0  0.0589422604221497  0.6751041459937142  0.6116118366756211  1.0000
  H   H18       1.0  0.307751025182526  0.6257832589518131  0.5565151186392258  1.0000
  H   H19       1.0  0.4875772112122477  0.23244502703916226  0.4437612894529793  1.0000
  H   H20       1.0  0.0589512796240115  0.3248942029399089  0.38838871294682054  1.0000
  H   H21       1.0  0.30775402242148436  0.3742170250639063  0.44348846130948527  1.0000
  H   H22       1.0  0.4875938080538731  0.05623881935515131  0.7324439023139463  1.0000
  H   H23       1.0  0.05892607026905951  0.11161341211673202  0.8248958238326054  1.0000
  H   H24       1.0  0.3077372738523679  0.0565156399522095  0.8742163672237597  1.0000
  H   H25       1.0  0.7493284798210809  0.6855802382879472  0.8144274343731297  1.0000
  H   H26       1.0  0.4875702830184424  0.9437627874778016  0.2675609403731585  1.0000
  H   H27       1.0  0.05894830440157511  0.8883862879112812  0.1751056265378992  1.0000
  H   H28       1.0  0.3077403946291284  0.9434837432848298  0.1257813579028308  1.0000
  H   H29       1.0  0.7493162860695647  0.3144291888191617  0.18556782188591817  1.0000
  H   H30       1.0  0.48759261027250034  0.7675596905356342  0.4437596870779927  1.0000
  H   H31       1.0  0.0589413966087307  0.6751027117852715  0.3883888432607421  1.0000
  H   H32       1.0  0.3077430672407289  0.6257841176138257  0.44348630306238596  1.0000
  H   H33       1.0  0.4875961220568287  0.23244461855698975  0.5562388504041209  1.0000
  H   H34       1.0  0.0589452986286005  0.3248929349068845  0.6116108056195273  1.0000
  H   H35       1.0  0.3077496597741388  0.37421796787649697  0.5565181776328743  1.0000
  H   H36       1.0  0.48758938435239685  0.0562454018861445  0.2675556560403578  1.0000
  H   H37       1.0  0.05895218191589181  0.11160821618015149  0.1751053375002556  1.0000
  H   H38       1.0  0.30775539503765975  0.05651401026455011  0.1257801271176291  1.0000
  H   H39       1.0  0.7493408544895531  0.6855709967774715  0.185569761466283  1.0000
  H   H40       1.0  0.4875815515860539  0.94376296053575  0.7324442325619102  1.0000
  H   H41       1.0  0.058942727059033494  0.8883878808946547  0.824896563235285  1.0000
  H   H42       1.0  0.3077414388338581  0.9434858233676662  0.874218949118692  1.0000
  H   H43       1.0  0.7493162318142127  0.3144199650834096  0.8144223421828941  1.0000
  H   H44       1.0  0.5124143816037118  0.7324416844300004  0.9437611222733439  1.0000
  H   H45       1.0  0.9410562631155699  0.8248923167371275  0.8883901366033059  1.0000
  H   H46       1.0  0.6922557120909403  0.8742132037889973  0.9434877553805237  1.0000
  H   H47       1.0  0.5124154439268124  0.2675554769645813  0.056241005979565314  1.0000
  H   H48       1.0  0.9410564340088358  0.1751040492207636  0.1116140328526143  1.0000
  H   H49       1.0  0.6922550601768477  0.1257834789618002  0.0565210400618099  1.0000
  H   H50       1.0  0.5124130114998664  0.4437598050400027  0.7675667062953552  1.0000
  H   H51       1.0  0.941032835879902  0.3883888151952988  0.6751030751327818  1.0000
  H   H52       1.0  0.6922572251974656  0.443490190379393  0.6257834324770714  1.0000
  H   H53       1.0  0.5124072313296537  0.5562391578364227  0.23244713161760447  1.0000
  H   H54       1.0  0.9410579579998172  0.6116120544575452  0.3248979417302209  1.0000
  H   H55       1.0  0.6922562850904016  0.5565145990707309  0.3742168059105566  1.0000
  H   H56       1.0  0.25064899009238667  0.1855803225877395  0.31441195498550206  1.0000
  C   C1        1.0  0.24943045094657626  0.7616206869395797  0.1307894347969096  1.0000
  C   C2        1.0  0.24481868589549552  0.7705488347377454  0.0637665150227278  1.0000
  C   C3        1.0  0.39510529615031237  0.7500417521399356  0.031588332949752405  1.0000
  C   C4        1.0  0.09179710638197489  0.7967598542337553  0.03256618122495781  1.0000
  C   C5        1.0  0.9430266908381243  0.8249221866885605  0.0628385985555866  1.0000
  C   C6        1.0  0.8028746831614625  0.8524086753407545  0.0317206800406922  1.0000
  C   C7        1.0  0.24940392718131932  0.2383776586671402  0.8692056167626491  1.0000
  C   C8        1.0  0.24480809216884583  0.22945040080974619  0.936233492885343  1.0000
  C   C9        1.0  0.3951045852421515  0.24995423317461973  0.9684111507256076  1.0000
  C   C10       1.0  0.09179538432928071  0.20323902217305084  0.9674370544825024  1.0000
  C   C11       1.0  0.9430176488089614  0.17507778686155004  0.9371678217926986  1.0000
  C   C12       1.0  0.8028731165033421  0.1475909692716399  0.9682858091826819  1.0000
  C   C13       1.0  0.2494477929605026  0.3692150554779587  0.2616244393559555  1.0000
  C   C14       1.0  0.24483101164735646  0.436237640189269  0.2705562315132823  1.0000
  C   C15       1.0  0.39511269229512896  0.4684128480505196  0.2500462919016186  1.0000
  C   C16       1.0  0.09180935641513341  0.4674347514935562  0.2967633938945085  1.0000
  C   C17       1.0  0.9430410483797261  0.43715949091550493  0.3249253489865539  1.0000
  C   C18       1.0  0.8028821028062083  0.46828050489144607  0.352410662280576  1.0000
  C   C19       1.0  0.24943997457664582  0.6307959006163912  0.7383809707379357  1.0000
  C   C20       1.0  0.24482451454903748  0.5637688013515785  0.7294563867902827  1.0000
  C   C21       1.0  0.39510814074895956  0.5315849387686455  0.7499612984573574  1.0000
  C   C22       1.0  0.09180503761627531  0.5325663768007088  0.70324209366553  1.0000
  C   C23       1.0  0.9430320393210679  0.5628382308081044  0.6750828728395319  1.0000
  C   C24       1.0  0.8028766485328377  0.5317204908488407  0.6475917735977889  1.0000
  C   C25       1.0  0.7505492093312187  0.7383786535115889  0.6307957114599816  1.0000
  C   C26       1.0  0.7551735983491241  0.7294509062030058  0.5637696301721747  1.0000
  C   C27       1.0  0.6048885026716279  0.7499557129851622  0.5315888349883267  1.0000
  C   C28       1.0  0.9081939501079291  0.7032380619880527  0.5325660490662472  1.0000
  C   C29       1.0  0.05696559757275571  0.6750735002100116  0.5628370622845936  1.0000
  C   C30       1.0  0.19712869778975062  0.6475914921264234  0.531719054436323  1.0000
  C   C31       1.0  0.7505815811097848  0.26162312018651324  0.3692013456710441  1.0000
  C   C32       1.0  0.7551839575303491  0.2705499775789946  0.4362283254341435  1.0000
  C   C33       1.0  0.6048941635850869  0.2500457188068026  0.46841099596195335  1.0000
  C   C34       1.0  0.9081992620640095  0.2967622801930431  0.46743183133997956  1.0000
  C   C35       1.0  0.056974396676267205  0.32492394333927876  0.43716258756613513  1.0000
  C   C36       1.0  0.19713384664935774  0.3524098833687432  0.46828097690570303  1.0000
  C   C37       1.0  0.7506189707713489  0.13079420045044543  0.7616157736817827  1.0000
  C   C38       1.0  0.7551905360691294  0.06376801935682862  0.7705443611022247  1.0000
  C   C39       1.0  0.6049062102592586  0.0315873917605458  0.7500430284568937  1.0000
  C   C40       1.0  0.9082093346924581  0.032565072724111084  0.7967595317491529  1.0000
  C   C41       1.0  0.05696656360959201  0.06283990388273959  0.8249219277082319  1.0000
  C   C42       1.0  0.19712812272354088  0.0317220629781474  0.8524103015622445  1.0000
  C   C43       1.0  0.7505542572585996  0.869201268084879  0.2383758789793831  1.0000
  C   C44       1.0  0.7551766024615959  0.9362283607135777  0.22945089227151533  1.0000
  C   C45       1.0  0.6048874076213336  0.968411788183694  0.2499577032327025  1.0000
  C   C46       1.0  0.9081934601333901  0.9674316664909315  0.20323879902480263  1.0000
  C   C47       1.0  0.05696384796593892  0.9371593411438752  0.17507727177410004  1.0000
  C   C48       1.0  0.19713715962306821  0.9682793125210764  0.147591981636225  1.0000
  C   C49       1.0  0.7505593840432566  0.738380357637368  0.3691988208478278  1.0000
  C   C50       1.0  0.7551779938587018  0.7294517594770582  0.43622714507725396  1.0000
  C   C51       1.0  0.6048954904175119  0.7499547887318769  0.4684102812333749  1.0000
  C   C52       1.0  0.9081913595812025  0.7032366866232705  0.4674315322183489  1.0000
  C   C53       1.0  0.05696588202719971  0.6750775067787345  0.43715956525930716  1.0000
  C   C54       1.0  0.1971370550712379  0.6475896670334862  0.4682801859975357  1.0000
  C   C55       1.0  0.7505892027814839  0.261617362732636  0.6308000377630095  1.0000
  C   C56       1.0  0.7551932515425576  0.27054552134387677  0.5637717112672078  1.0000
  C   C57       1.0  0.604909079129371  0.2500452919685756  0.5315877482253129  1.0000
  C   C58       1.0  0.9082032215292843  0.2967623044433836  0.5325676993013033  1.0000
  C   C59       1.0  0.056975481223396705  0.3249235397486245  0.562837382363881  1.0000
  C   C60       1.0  0.1971364409848064  0.3524090062421053  0.5317216468264832  1.0000
  C   C61       1.0  0.7505873000459289  0.13080616569651227  0.23837920718814595  1.0000
  C   C62       1.0  0.7551890227284305  0.06377502389906911  0.22945552171697156  1.0000
  C   C63       1.0  0.6049018661710192  0.03159035821253299  0.24995735464082713  1.0000
  C   C64       1.0  0.908207939939949  0.03256665328464689  0.2032420541322892  1.0000
  C   C65       1.0  0.0569830926785215  0.0628347079158047  0.1750800990358812  1.0000
  C   C66       1.0  0.1971420382983311  0.0317172969161561  0.1475916331432288  1.0000
  C   C67       1.0  0.7505448594319546  0.8692046154497036  0.7616255062601028  1.0000
  C   C68       1.0  0.755178115878394  0.9362312643645581  0.7705536931746054  1.0000
  C   C69       1.0  0.6048944896327767  0.9684101728521384  0.7500451785342932  1.0000
  C   C70       1.0  0.9081893790607226  0.9674323377889062  0.7967670855580239  1.0000
  C   C71       1.0  0.05695416361854912  0.937161834890773  0.8249326115864835  1.0000
  C   C72       1.0  0.1971232440148256  0.9682813763506389  0.8524124515399265  1.0000
  C   C73       1.0  0.24944794530894399  0.7616232136838477  0.8692062618212902  1.0000
  C   C74       1.0  0.24482355628715882  0.7705505106200757  0.936231892737503  1.0000
  C   C75       1.0  0.39510454506353193  0.75004255122748  0.9684117871783403  1.0000
  C   C76       1.0  0.09180594241973951  0.7967606526038012  0.967431870870364  1.0000
  C   C77       1.0  0.9430329259300834  0.8249189091696677  0.9371608576500067  1.0000
  C   C78       1.0  0.8028643499747831  0.852409474319316  0.968281567731353  1.0000
  C   C79       1.0  0.2494507738459433  0.2383832386988516  0.1307919423254447  1.0000
  C   C80       1.0  0.24481964926928163  0.22945052643592587  0.0637694662814781  1.0000
  C   C81       1.0  0.39510533635238687  0.2499556859481658  0.0315881468692822  1.0000
  C   C82       1.0  0.0918002378536826  0.20323777344621866  0.0325695633478702  1.0000
  C   C83       1.0  0.9430305790947672  0.17507926291269627  0.0628415093500863  1.0000
  C   C84       1.0  0.8028615463794538  0.147589269523003  0.0317249214970658  1.0000
  C   C85       1.0  0.2494371311831998  0.3691985691579589  0.7383781711705382  1.0000
  C   C86       1.0  0.24481628348029721  0.4362265516821394  0.7294486830200243  1.0000
  C   C87       1.0  0.39509513342215286  0.4684049274140989  0.7499581223515009  1.0000
  C   C88       1.0  0.09180706756248472  0.4674312998161768  0.7032371153428089  1.0000
  C   C89       1.0  0.9430320422512183  0.43716097236033846  0.6750796734754445  1.0000
  C   C90       1.0  0.8028663762928475  0.4682810651210332  0.6475912996232794  1.0000
  C   C91       1.0  0.24943283970238642  0.630790769048204  0.2616204833483168  1.0000
  C   C92       1.0  0.24481870824433122  0.5637659282929092  0.270553126369208  1.0000
  C   C93       1.0  0.3950983204620968  0.5315888060216097  0.2500449642984536  1.0000
  C   C94       1.0  0.09179774374994311  0.532566225487031  0.2967620670183067  1.0000
  C   C95       1.0  0.9430369386143341  0.5628390012178528  0.3249244950096681  1.0000
  C   C96       1.0  0.8028732096451777  0.5317190298529013  0.3524124873737335  1.0000
  O   O1        1.0  0.4064250065553808  0.7584682751603464  0.155677370317413  1.0000
  O   O2        1.0  0.095734865367568  0.7557580217894752  0.15745235943516184  1.0000
  O   O3        1.0  0.4064150913892064  0.24152593522198623  0.8443198559394105  1.0000
  O   O4        1.0  0.09572091031213148  0.24423771123569793  0.8425396150533404  1.0000
  O   O5        1.0  0.4064312240369786  0.34431866424574054  0.2584695396914469  1.0000
  O   O6        1.0  0.0957328895899536  0.342557793756228  0.2557552268084251  1.0000
  O   O7        1.0  0.40643762211655604  0.6556886069661587  0.7415344421345368  1.0000
  O   O8        1.0  0.09573383801487981  0.657464060869927  0.7442408010299246  1.0000
  O   O9        1.0  0.5935531720922853  0.7415297327032705  0.655690482051952  1.0000
  O   O10       1.0  0.9042597327088941  0.7442381859250348  0.6574626182662017  1.0000
  O   O11       1.0  0.5935595778676231  0.25847302360332236  0.3443147589264157  1.0000
  O   O12       1.0  0.904260611909194  0.25577070408442637  0.3425244551635629  1.0000
  O   O13       1.0  0.5935725817220501  0.1556703225187377  0.758479434930095  1.0000
  O   O14       1.0  0.9042832494633828  0.15746632002888816  0.7557559632478288  1.0000
  O   O15       1.0  0.5935675470782797  0.8443076633525947  0.2415330119751148  1.0000
  O   O16       1.0  0.9042631052562343  0.8425353640544911  0.24422660645862493  1.0000
  O   O17       1.0  0.5935661973982815  0.7415318686709823  0.3443032290124464  1.0000
  O   O18       1.0  0.9042741349478262  0.7442371679714056  0.3425354458312668  1.0000
  O   O19       1.0  0.5935794074770798  0.2584663839501573  0.6556961571276646  1.0000
  O   O20       1.0  0.9042831712943239  0.25575640943206673  0.6574646883550204  1.0000
  O   O21       1.0  0.5935778587234991  0.155695350942942  0.241533206113516  1.0000
  O   O22       1.0  0.9042748244811919  0.15747693854440567  0.2442290537761949  1.0000
  O   O23       1.0  0.5935540566708825  0.8443110083624318  0.7584688822615179  1.0000
  O   O24       1.0  0.9042551029262498  0.8425423100393702  0.755765675969279  1.0000
  O   O25       1.0  0.4064385066882181  0.7584694322534701  0.8443137430867794  1.0000
  O   O26       1.0  0.09574289776299591  0.7557650323947132  0.8425429579856215  1.0000
  O   O27       1.0  0.40642486357342733  0.24153198411412544  0.15569158985264417  1.0000
  O   O28       1.0  0.09572519870981472  0.24424691404183818  0.157444512791642  1.0000
  O   O29       1.0  0.40640001354567085  0.3442949742973838  0.7415383796179997  1.0000
  O   O30       1.0  0.0957153565338515  0.34254401402450435  0.7442307756823683  1.0000
  O   O31       1.0  0.4064400841611047  0.6556794197125839  0.2584687548027844  1.0000
  O   O32       1.0  0.0957363123471069  0.6574566730871823  0.2557539928661967  1.0000
  O   O33       1.0  0.25073359002591644  0.7835556721443238  0.28356578825718515  1.0000
  O   O34       1.0  0.25067853256482653  0.21642240974358634  0.7164409723184519  1.0000
  O   O35       1.0  0.25066856080973576  0.21644927093304034  0.2835669283689128  1.0000
  O   O36       1.0  0.25071070726000505  0.7835675429225545  0.7164357788863853  1.0000
  O   O37       1.0  0.7492905542770033  0.7164379272570045  0.7835711484808814  1.0000
  O   O38       1.0  0.7492501710010728  0.2835787056849455  0.2164295122635025  1.0000
  O   O39       1.0  0.7492584700237258  0.2835586500549994  0.783570987415736  1.0000
  O   O40       1.0  0.7493082650511556  0.716423304258704  0.2164278718236545  1.0000
