data_image0
_chemical_formula_structural       Zn4H12C27O14
_chemical_formula_sum              "Zn4 H12 C27 O14"
_cell_length_a       16.10722137745141
_cell_length_b       16.138833145920973
_cell_length_c       16.141969680823298
_cell_angle_alpha    83.88359592576288
_cell_angle_beta     89.83892506964578
_cell_angle_gamma    83.9643782985681

_space_group_name_H-M_alt    "P 1"
_space_group_IT_number       1

loop_
  _space_group_symop_operation_xyz
  'x, y, z'

loop_
  _atom_site_type_symbol
  _atom_site_label
  _atom_site_symmetry_multiplicity
  _atom_site_fract_x
  _atom_site_fract_y
  _atom_site_fract_z
  _atom_site_occupancy
  Zn  Zn1       1.0  0.428418690274981  0.43047277532261313  0.5707650816505492  1.0000
  Zn  Zn2       1.0  0.577593124746528  0.4285068655061153  0.43691616242374215  1.0000
  Zn  Zn3       1.0  0.5629619337410574  0.5641628622968115  0.5710250253346771  1.0000
  Zn  Zn4       1.0  0.4281860920562579  0.5787563966116378  0.4223694647623617  1.0000
  H   H1        1.0  0.9878898687642064  0.5645732499573982  0.4284714805589616  1.0000
  H   H2        1.0  0.8321235251187816  0.3344719769441227  0.7385578866019742  1.0000
  H   H3        1.0  0.8585659690548867  0.3846603249446545  0.8258918147392224  1.0000
  H   H4        1.0  0.9222206516152484  0.2949112824106308  0.7994111017168282  1.0000
  H   H5        1.0  0.43516911790826635  0.43483036417697457  0.007840446266328606  1.0000
  H   H6        1.0  0.5641668945708461  0.5645625026394826  0.9919271992494673  1.0000
  H   H7        1.0  0.4347844189368217  0.015430562525537497  0.4277647423683035  1.0000
  H   H8        1.0  0.5643770729819266  0.9847464808258124  0.5717338775572218  1.0000
  H   H9        1.0  0.018683754740187904  0.31140327458484046  0.6675756109539535  1.0000
  H   H10       1.0  0.9234917416863909  0.34045379759055544  0.6104081658870228  1.0000
  H   H11       1.0  0.9882801731060058  0.42882536155947554  0.7532217978755258  1.0000
  H   H12       1.0  0.8978026077536471  0.46681750504884423  0.6930635544265797  1.0000
  C   C1        1.0  0.5123475488819835  0.511302273405512  0.2758096245857686  1.0000
  C   C2        1.0  0.48545204567853534  0.48443610384960323  0.8138897914778909  1.0000
  C   C3        1.0  0.5165537225719277  0.18448871673746936  0.5176391277924637  1.0000
  C   C4        1.0  0.4900518794655042  0.48863799478534986  0.7247392843438831  1.0000
  C   C5        1.0  0.5222691584652212  0.020865862862876793  0.5249061921457353  1.0000
  C   C6        1.0  0.47702348521315235  0.9795317683352066  0.47453869803371873  1.0000
  C   C7        1.0  0.4819608629354093  0.8918733281079412  0.4796811671391837  1.0000
  C   C8        1.0  0.5185708722299083  0.1084143021232862  0.5205219802810177  1.0000
  C   C9        1.0  0.48501683163662085  0.8157358114690821  0.4826439192376952  1.0000
  C   C10       1.0  0.5123999630941327  0.2745829141925  0.5127106076291598  1.0000
  C   C11       1.0  0.48962902614051984  0.7260278045684957  0.48757362875415566  1.0000
  C   C12       1.0  0.10972374615171533  0.5190826584150016  0.4789624616320793  1.0000
  C   C13       1.0  0.7247587379230751  0.48689179476392747  0.5126748023745975  1.0000
  C   C14       1.0  0.27457169485641236  0.5120136543858251  0.4869219199738026  1.0000
  C   C15       1.0  0.8148631106954981  0.4808687562033355  0.5183399747006234  1.0000
  C   C16       1.0  0.9789628426381185  0.47130143262201324  0.529587776611706  1.0000
  C   C17       1.0  0.023117125547663903  0.5215836056651284  0.4755525287805256  1.0000
  C   C18       1.0  0.9728789997423631  0.3643274905348619  0.6453909481706432  1.0000
  C   C19       1.0  0.9368141706300079  0.4094136436922113  0.7176213664918835  1.0000
  C   C20       1.0  0.8846534521931205  0.3526705630152733  0.773481511979611  1.0000
  C   C21       1.0  0.8907166338378972  0.4759738289926503  0.5234865362889778  1.0000
  C   C22       1.0  0.18584064785645182  0.5164077667361865  0.48189306010210237  1.0000
  C   C23       1.0  0.5163469150448989  0.5158323029611651  0.18619599837505524  1.0000
  C   C24       1.0  0.5222719372684992  0.5223417689223097  0.023274577759231405  1.0000
  C   C25       1.0  0.4772018718909975  0.4769834933590857  0.9767599294705249  1.0000
  C   C26       1.0  0.4821590806016901  0.481686984759861  0.8896686182716637  1.0000
  C   C27       1.0  0.5185419135889903  0.5184117403970702  0.1103790645546923  1.0000
  O   O1        1.0  0.500734816985556  0.49990731705231894  0.5000409997327608  1.0000
  O   O2        1.0  0.695214825971398  0.4414245842935501  0.462521025256116  1.0000
  O   O3        1.0  0.3103698436295447  0.5629331211597447  0.4355822126894893  1.0000
  O   O4        1.0  0.685071931090043  0.5367518831311104  0.5585232301803487  1.0000
  O   O5        1.0  0.3105028099933804  0.4573157428802048  0.5425244491002064  1.0000
  O   O6        1.0  0.020302129277069998  0.4167810309410527  0.5886092779292227  1.0000
  O   O7        1.0  0.4579717117238502  0.3102724560847178  0.5581774625812699  1.0000
  O   O8        1.0  0.4437784561276105  0.695682566039892  0.4364650481204464  1.0000
  O   O9        1.0  0.5637157017774967  0.4556179179045472  0.31566061146339314  1.0000
  O   O10       1.0  0.539742349376141  0.5382562533828266  0.6896986755773966  1.0000
  O   O11       1.0  0.45803017348439573  0.5629268209052964  0.3055146372718128  1.0000
  O   O12       1.0  0.4442777316531519  0.44250777638252703  0.6894147860347177  1.0000
  O   O13       1.0  0.5637483679488966  0.30881532604813333  0.46306720007647334  1.0000
  O   O14       1.0  0.5394664386662527  0.6854769658311992  0.542864314434418  1.0000
