data_image0
_chemical_formula_structural       Dy4H28C56N8O32
_chemical_formula_sum              "Dy4 H28 C56 N8 O32"
_cell_length_a       8.354224881
_cell_length_b       12.222785972926065
_cell_length_c       13.4698
_cell_angle_alpha    102.32412507171219
_cell_angle_beta     90.0
_cell_angle_gamma    90.0

_space_group_name_H-M_alt    "P 1"
_space_group_IT_number       1

loop_
  _space_group_symop_operation_xyz
  'x, y, z'

loop_
  _atom_site_type_symbol
  _atom_site_label
  _atom_site_symmetry_multiplicity
  _atom_site_fract_x
  _atom_site_fract_y
  _atom_site_fract_z
  _atom_site_occupancy
  Dy  Dy1       1.0  0.7727766599487609  0.8015252160679934  0.18292041934658698  1.0000
  Dy  Dy2       1.0  0.2727781490755419  0.1984754947530121  0.31707994104684906  1.0000
  Dy  Dy3       1.0  0.22722275579596377  0.1984754947530121  0.817079941046849  1.0000
  Dy  Dy4       1.0  0.7272236606674625  0.8015252160679934  0.6829204193465869  1.0000
  H   H1        1.0  0.3101580382272218  0.4762927832435579  0.12469211543180589  1.0000
  H   H2        1.0  0.8101577460995841  0.5237079275774477  0.37530898736315516  1.0000
  H   H3        1.0  0.6898425745166392  0.5237087650197267  0.8753091495603512  1.0000
  H   H4        1.0  0.1898416696451406  0.4762927832435579  0.6246921154318059  1.0000
  H   H5        1.0  0.4874084739160836  0.3073446657679426  0.09083038005929468  1.0000
  H   H6        1.0  0.9874081817884459  0.692656045053063  0.4091699803341412  1.0000
  H   H7        1.0  0.5125921388277774  0.692656045053063  0.9091699803341413  1.0000
  H   H8        1.0  0.0125900369571355  0.3073446657679426  0.5908303800592946  1.0000
  H   H9        1.0  0.7885231836387305  0.3361426308212572  0.09320455469612908  1.0000
  H   H10       1.0  0.2885234757663682  0.6638580799997484  0.40679506329578885  1.0000
  H   H11       1.0  0.2114762321059942  0.6638589174420275  0.9067944830914598  1.0000
  H   H12       1.0  0.7114759399783495  0.3361426308212572  0.593204554696129  1.0000
  H   H13       1.0  0.3572312264166371  0.9738323145203721  0.1120852095230376  1.0000
  H   H14       1.0  0.8572309342889923  0.0261675588583543  0.38791424627168414  1.0000
  H   H15       1.0  0.6427693863272239  0.0261675588583543  0.8879142462716841  1.0000
  H   H16       1.0  0.1427696784548615  0.9738323145203721  0.6120859519245556  1.0000
  H   H17       1.0  0.09323306603482  0.843960091175063  0.8353344382056419  1.0000
  H   H18       1.0  0.5932351679054619  0.1560406196459425  0.6646666645893191  1.0000
  H   H19       1.0  0.9067651527107614  0.1560406196459425  0.164665922187794  1.0000
  H   H20       1.0  0.4067642478392628  0.843960091175063  0.33533443820564196  1.0000
  H   H21       1.0  0.3495536739310836  0.9185929469838214  0.9209308204663458  1.0000
  H   H22       1.0  0.8495545788025822  0.0814077638371842  0.5790687975255722  1.0000
  H   H23       1.0  0.6504457418136411  0.0814077638371842  0.07906879752557218  1.0000
  H   H24       1.0  0.1504448369421354  0.9185929469838214  0.4209315628678637  1.0000
  H   H25       1.0  0.0998943662503038  0.6595837746132105  0.15947505598828826  1.0000
  H   H26       1.0  0.5998952711218024  0.34041693620779506  0.3405245620036297  1.0000
  H   H27       1.0  0.9001062464935572  0.34041693620779506  0.8405245620036295  1.0000
  H   H28       1.0  0.4001053416220586  0.6595837746132105  0.6594750559882883  1.0000
  C   C1        1.0  0.4402407227945915  0.4846646936959829  0.1256209401878934  1.0000
  C   C2        1.0  0.9402404306669538  0.5153351796827437  0.3743792580083464  1.0000
  C   C3        1.0  0.5597598899492695  0.5153351796827437  0.8743785156068286  1.0000
  C   C4        1.0  0.0597577880786275  0.4846646936959829  0.6256216825894114  1.0000
  C   C5        1.0  0.5096870219143881  0.5911262181618753  0.14460655745669723  1.0000
  C   C6        1.0  0.0096861170428895  0.4088736552168513  0.3553928983380175  1.0000
  C   C7        1.0  0.4903147878286092  0.4088736552168513  0.8553928983380175  1.0000
  C   C8        1.0  0.9903132987018283  0.5911262181618753  0.6446065574567043  1.0000
  C   C9        1.0  0.7648010546772852  0.5152907952420165  0.12746127908651053  1.0000
  C   C10       1.0  0.2648001498057795  0.48470991557898907  0.37253759650388213  1.0000
  C   C11       1.0  0.2352007550657191  0.48470991557898907  0.8725383389054002  1.0000
  C   C12       1.0  0.7351980689397948  0.5152899577997374  0.6274611168893144  1.0000
  C   C13       1.0  0.5400572841007758  0.39081672482021185  0.10695878075378566  1.0000
  C   C14       1.0  0.0400575762284205  0.6091831485585146  0.393040675040929  1.0000
  C   C15       1.0  0.4599433286430852  0.6091839860007937  0.893040094836607  1.0000
  C   C16       1.0  0.9599418395163042  0.39081672482021185  0.6069595231553108  1.0000
  C   C17       1.0  0.705388002351043  0.4062022143502659  0.1075258627087479  1.0000
  C   C18       1.0  0.2053882944786878  0.5937984964707397  0.3924730128816448  1.0000
  C   C19       1.0  0.2946126103928108  0.5937993339130188  0.8924731750788408  1.0000
  C   C20       1.0  0.7946111212660298  0.4062022143502659  0.6075258627087479  1.0000
  C   C21       1.0  0.4140838975818824  0.6989226256187848  0.16589380604117568  1.0000
  C   C22       1.0  0.914084802453381  0.3010772477599417  0.3341071345565823  1.0000
  C   C23       1.0  0.5859167151619786  0.3010772477599417  0.8341071345565823  1.0000
  C   C24       1.0  0.0859170072896163  0.6989226256187848  0.6658938060411755  1.0000
  C   C25       1.0  0.9406988813376671  0.536554292120833  0.12944967814387098  1.0000
  C   C26       1.0  0.4407003704644481  0.4634472561424516  0.3705478748406819  1.0000
  C   C27       1.0  0.0592993374079143  0.4634480935847307  0.8705495218409212  1.0000
  C   C28       1.0  0.5593002422794129  0.536554292120833  0.629449678143871  1.0000
  C   C29       1.0  0.8165090235377406  0.7920311329631531  0.9386615092521282  1.0000
  C   C30       1.0  0.3165093156653782  0.2079687404155806  0.5613386889441115  1.0000
  C   C31       1.0  0.183490392206977  0.2079687404155806  0.061338688944111694  1.0000
  C   C32       1.0  0.6834901000793394  0.7920311329631531  0.43866150925212816  1.0000
  C   C33       1.0  0.9761563898701057  0.8414795871478445  0.9777254707099912  1.0000
  C   C34       1.0  0.4761578789968866  0.158521123673161  0.5222748896834446  1.0000
  C   C35       1.0  0.0238430258746121  0.1585202862308819  0.022275469887773593  1.0000
  C   C36       1.0  0.5238415367478311  0.8414795871478445  0.4777247283084662  1.0000
  C   C37       1.0  0.2517337071908301  0.9354062755977424  0.07166754282260968  1.0000
  C   C38       1.0  0.7517334150631925  0.0645935977809842  0.4283326553736302  1.0000
  C   C39       1.0  0.7482681025521671  0.0645927603387051  0.9283324931764341  1.0000
  C   C40       1.0  0.24826600068153232  0.9354071130400214  0.5716677050198058  1.0000
  C   C41       1.0  0.1172568387796105  0.9135398202788139  0.1256686142892889  1.0000
  C   C42       1.0  0.6172577436511091  0.0864600530999127  0.3743315839069509  1.0000
  C   C43       1.0  0.8827437739642505  0.0864592156576336  0.8743314217097549  1.0000
  C   C44       1.0  0.3827428690927519  0.9135406577210929  0.625668776486485  1.0000
  C   C45       1.0  0.1037307484947974  0.9428235018533327  0.23930777897820113  1.0000
  C   C46       1.0  0.6037328503654393  0.0571763715253937  0.2606931616195567  1.0000
  C   C47       1.0  0.8962686672499203  0.0571763715253937  0.7606931616195567  1.0000
  C   C48       1.0  0.3962689593775579  0.9428243392956118  0.7393071987738793  1.0000
  C   C49       1.0  0.1041748351758329  0.8621083027799941  0.9177934217310195  1.0000
  C   C50       1.0  0.6041757400473315  0.1378924080410115  0.5822069386624165  1.0000
  C   C51       1.0  0.8958245805688918  0.1378924080410115  0.0822069386624165  1.0000
  C   C52       1.0  0.3958248726965294  0.8621083027799941  0.4177934217310195  1.0000
  C   C53       1.0  0.24574512049216676  0.9060296379303807  0.966032022673211  1.0000
  C   C54       1.0  0.7457448283645292  0.09397023544835288  0.5339681755230288  1.0000
  C   C55       1.0  0.7542554922516942  0.09397107289062488  0.033968337720231986  1.0000
  C   C56       1.0  0.2542545873801956  0.9060304753726527  0.46603218487040715  1.0000
  N   N1        1.0  0.6692110973353138  0.6055947083976037  0.1458208415705684  1.0000
  N   N2        1.0  0.1692089954646718  0.394406002423402  0.35417877642134943  1.0000
  N   N3        1.0  0.3307907124076834  0.394406839865681  0.8541789386185457  1.0000
  N   N4        1.0  0.8307892232809024  0.6055938709553246  0.6458206793733723  1.0000
  N   N5        1.0  0.985868840894085  0.8643233376051072  0.07965764393540546  1.0000
  N   N6        1.0  0.48586913302172263  0.1356765357736194  0.4203432966623595  1.0000
  N   N7        1.0  0.014131771849776  0.1356756983313403  0.9203431344651632  1.0000
  N   N8        1.0  0.5141314797221312  0.8643250124896653  0.5796572259282797  1.0000
  O   O1        1.0  0.4948753545529527  0.7889459956112717  0.17541568007605685  1.0000
  O   O2        1.0  0.9948738654261788  0.2110538777674549  0.32458377571866487  1.0000
  O   O3        1.0  0.5051264551900445  0.2110538777674549  0.8245837757186648  1.0000
  O   O4        1.0  0.0051243533194025  0.7889451581689926  0.6754162602803788  1.0000
  O   O5        1.0  0.2644913240275955  0.695943005993925  0.17620699631889633  1.0000
  O   O6        1.0  0.7644922288991012  0.3040560299425223  0.32379303968014733  1.0000
  O   O7        1.0  0.7355080917171222  0.3040560299425223  0.8237937820816654  1.0000
  O   O8        1.0  0.2355107778430394  0.6959438434362041  0.6762056737130493  1.0000
  O   O9        1.0  0.9761372378838615  0.6468680510651836  0.15394613547532998  1.0000
  O   O10       1.0  0.4761363330123629  0.3531309848712638  0.3460524157206777  1.0000
  O   O11       1.0  0.0238645718591357  0.3531326597558219  0.8460527401150697  1.0000
  O   O12       1.0  0.5238618857332114  0.6468680510651836  0.65394613547533  1.0000
  O   O13       1.0  0.0412809093497515  0.4622254278589607  0.11160063209150198  1.0000
  O   O14       1.0  0.5412794202229705  0.5377736080774937  0.38839717670298046  1.0000
  O   O15       1.0  0.9587209003932459  0.5377752829620448  0.8883982434988908  1.0000
  O   O16       1.0  0.4587176015234675  0.4622254278589607  0.611600632091502  1.0000
  O   O17       1.0  0.7245651255769658  0.7662621966290928  0.005514961652167509  1.0000
  O   O18       1.0  0.2245666147037468  0.2337376767496409  0.4944852365440724  1.0000
  O   O19       1.0  0.2754342901677518  0.2337376767496409  0.9944852365440724  1.0000
  O   O20       1.0  0.7754328010409708  0.7662621966290928  0.5055149616521675  1.0000
  O   O21       1.0  0.9974258675931863  0.8916859265940644  0.27913610481616047  1.0000
  O   O22       1.0  0.497426159720824  0.1083131093423901  0.2208646735844084  1.0000
  O   O23       1.0  0.0025735481515312  0.1083139467846692  0.7208640933800792  1.0000
  O   O24       1.0  0.5025744530230369  0.8916859265940644  0.7791361048161602  1.0000
  O   O25       1.0  0.7825812799065375  0.7804459564903253  0.845397019623725  1.0000
  O   O26       1.0  0.2825815720341751  0.2195539168884082  0.6546031785725148  1.0000
  O   O27       1.0  0.2174181358381873  0.21955475433068017  0.15460334076971088  1.0000
  O   O28       1.0  0.7174166467114063  0.7804459564903253  0.3453970196237249  1.0000
  O   O29       1.0  0.1960923991555177  0.0179162400939461  0.2881646970792318  1.0000
  O   O30       1.0  0.6960921070278729  0.9820844707270595  0.2118356633142042  1.0000
  O   O31       1.0  0.8039082135883433  0.9820844707270595  0.7118356633142042  1.0000
  O   O32       1.0  0.3039073087168447  0.0179162400939461  0.7881639546777066  1.0000
