data_image0
_chemical_formula_structural       Zn4H32C40N20O20
_chemical_formula_sum              "Zn4 H32 C40 N20 O20"
_cell_length_a       7.223337255
_cell_length_b       9.29951605971911
_cell_length_c       20.219
_cell_angle_alpha    90.0
_cell_angle_beta     90.0
_cell_angle_gamma    109.58131828480111

_space_group_name_H-M_alt    "P 1"
_space_group_IT_number       1

loop_
  _space_group_symop_operation_xyz
  'x, y, z'

loop_
  _atom_site_type_symbol
  _atom_site_label
  _atom_site_symmetry_multiplicity
  _atom_site_fract_x
  _atom_site_fract_y
  _atom_site_fract_z
  _atom_site_occupancy
  Zn  Zn1       1.0  0.5364754226056051  0.7760028084812021  0.9906053711855165  1.0000
  Zn  Zn2       1.0  0.9635095666709361  0.2239897621344937  0.4906048766012177  1.0000
  Zn  Zn3       1.0  0.4635234995654828  0.2240000341194275  0.0093931450615727  1.0000
  Zn  Zn4       1.0  0.036489847954833  0.7760142217978014  0.5093951233987823  1.0000
  H   H1        1.0  0.600759922049754  0.9400486905370968  0.6394332063900308  1.0000
  H   H2        1.0  0.8992207280970491  0.059937032088647896  0.139432217221426  1.0000
  H   H3        1.0  0.39924333925107913  0.0599610000534909  0.3605638261041619  1.0000
  H   H4        1.0  0.10078520904468036  0.9400692345069642  0.8605692665314777  1.0000
  H   H5        1.0  0.8780786271207504  0.1708927306800874  0.8561610366487002  1.0000
  H   H6        1.0  0.6219031008978108  0.8290986986039499  0.3561605420643943  1.0000
  H   H7        1.0  0.12191773981452773  0.829100981267267  0.1438394579356057  1.0000
  H   H8        1.0  0.37809246705290184  0.1708995786700456  0.6438389633512998  1.0000
  H   H9        1.0  0.2702482121258498  0.5871740507750687  0.804776695187698  1.0000
  H   H10       1.0  0.2297271987755849  0.4128196611722927  0.3047776843562957  1.0000
  H   H11       1.0  0.7297543707954972  0.4128276504939024  0.1952223156437043  1.0000
  H   H12       1.0  0.7702682762127324  0.5871751921067272  0.6952247885652127  1.0000
  H   H13       1.0  0.21002325144646508  0.5187694791060053  0.6920619219545969  1.0000
  H   H14       1.0  0.2899560337727181  0.4812139608564223  0.1920634057075006  1.0000
  H   H15       1.0  0.7899834846798299  0.48123222216296574  0.3079385726297019  1.0000
  H   H16       1.0  0.7100423029812931  0.5187843164175732  0.8079370888767983  1.0000
  H   H17       1.0  0.3203380340386204  0.49892172155060877  0.9716182798357949  1.0000
  H   H18       1.0  0.1796605121985451  0.5010742730600697  0.47161976358870566  1.0000
  H   H19       1.0  0.6796645488827338  0.5010799797183623  0.028380236411294398  1.0000
  H   H20       1.0  0.8203425631774837  0.498928569540567  0.528382214748504  1.0000
  H   H21       1.0  0.516294249736788  0.5102985155306072  0.92976853454671  1.0000
  H   H22       1.0  0.9837076312467233  0.48970432707002237  0.42976952371531496  1.0000
  H   H23       1.0  0.483709318093922  0.48970546840168083  0.0702309708689839  1.0000
  H   H24       1.0  0.016294059727663103  0.5102985155306072  0.5702314654532898  1.0000
  H   H25       1.0  0.28913165729344575  0.8795432752821171  0.0487185320737922  1.0000
  H   H26       1.0  0.21086944417952222  0.12046184998183661  0.5487185320737922  1.0000
  H   H27       1.0  0.710866279968272  0.1204572846551955  0.951280478757603  1.0000
  H   H28       1.0  0.7891271086805531  0.8795387099554759  0.4512824570948126  1.0000
  H   H29       1.0  0.2808466717838556  0.715684571618354  0.0738236312379428  1.0000
  H   H30       1.0  0.21914178414949254  0.2843137056556415  0.573822642069338  1.0000
  H   H31       1.0  0.7191540342811678  0.2843159883189585  0.9261763687620572  1.0000
  H   H32       1.0  0.7808626756281927  0.715689136944988  0.4261768633463562  1.0000
  C   C1        1.0  0.5850105045856466  0.8893301942606939  0.8667871803748923  1.0000
  C   C2        1.0  0.9149701455611491  0.1106555283650437  0.3667847074533839  1.0000
  C   C3        1.0  0.4149878321683645  0.1106680830133016  0.1332133142094065  1.0000
  C   C4        1.0  0.08502394502551168  0.8893393249139692  0.6332177654681246  1.0000
  C   C5        1.0  0.6632977348918132  0.9776373074047982  0.8077897027548319  1.0000
  C   C6        1.0  0.8366811313610542  0.0223506978842636  0.3077852514961208  1.0000
  C   C7        1.0  0.33669783305889933  0.0223609698691973  0.1922102972451682  1.0000
  C   C8        1.0  0.16331028338471756  0.977647579389732  0.6922167268410888  1.0000
  C   C9        1.0  0.5890553244835389  0.9129409222968334  0.7454607052772175  1.0000
  C   C10       1.0  0.9109328330885802  0.0870493656555453  0.2454577377714031  1.0000
  C   C11       1.0  0.4109439971798352  0.0870596376404791  0.2545392947227825  1.0000
  C   C12       1.0  0.08906045851351511  0.9129500529501087  0.7545422622285969  1.0000
  C   C13       1.0  0.4380008775034341  0.7617007814583943  0.7431875958257095  1.0000
  C   C14       1.0  0.0619838247172524  0.2382952131522771  0.243180671645483  1.0000
  C   C15       1.0  0.561997459250577  0.2382974958155941  0.2568124041742905  1.0000
  C   C16       1.0  0.9380075900285121  0.7617030641217184  0.7568208121074207  1.0000
  C   C17       1.0  0.8808721153214522  0.222129391529819  0.6290128097334176  1.0000
  C   C18       1.0  0.6191065650066179  0.7778517657692845  0.1290128097334176  1.0000
  C   C19       1.0  0.11913096005458358  0.7778734510708105  0.3709857065136788  1.0000
  C   C20       1.0  0.38089454055068483  0.2221465115047039  0.8709857065136787  1.0000
  C   C21       1.0  0.8025104834484226  0.1359599925836008  0.6891883871605913  1.0000
  C   C22       1.0  0.6974774881988992  0.8640234473788198  0.1891869034076876  1.0000
  C   C23       1.0  0.19749397632925542  0.8640428500170287  0.3108106236708039  1.0000
  C   C24       1.0  0.30252490879765054  0.1359714059001931  0.8108116128394087  1.0000
  C   C25       1.0  0.8788969681201736  0.1992662357305264  0.7511657351995638  1.0000
  C   C26       1.0  0.6210910964895435  0.8007206282268768  0.2511672189524674  1.0000
  C   C27       1.0  0.12110601429345993  0.8007331828751276  0.2488342648004362  1.0000
  C   C28       1.0  0.3789123783787716  0.1992799317104357  0.7488312972946218  1.0000
  C   C29       1.0  0.034729852130070106  0.3480707748079936  0.7532716751570305  1.0000
  C   C30       1.0  0.4652551566205005  0.6519195131443851  0.2532692022355221  1.0000
  C   C31       1.0  0.9652800522918028  0.6519286437976533  0.24672931401157433  1.0000
  C   C32       1.0  0.5347422881865428  0.3480799054612689  0.7467298085958731  1.0000
  C   C33       1.0  0.6586724648055196  0.9915752496282906  0.6867852020376901  1.0000
  C   C34       1.0  0.8413256901080218  0.0084093316657956  0.1867837182847794  1.0000
  C   C35       1.0  0.3413342713207755  0.0084264516406805  0.3132138087937122  1.0000
  C   C36       1.0  0.15867956865422886  0.9915889456082  0.8132167762995194  1.0000
  C   C37       1.0  0.8106216547417306  0.1204915246049794  0.8097512240961464  1.0000
  C   C38       1.0  0.6893669952850701  0.879499904679065  0.3097507295118476  1.0000
  C   C39       1.0  0.18937668201228064  0.8795067526690161  0.1902487759038536  1.0000
  C   C40       1.0  0.3106304495219661  0.120499513926589  0.6902487759038536  1.0000
  N   N1        1.0  0.446984578486088  0.754828823537693  0.8634942380928834  1.0000
  N   N2        1.0  0.05299390774852242  0.2451591817513687  0.3634922597556738  1.0000
  N   N3        1.0  0.5530141577602024  0.2451671710729784  0.1365067510757214  1.0000
  N   N4        1.0  0.9470010747851065  0.7548345301959927  0.636508729412931  1.0000
  N   N5        1.0  0.3788597391460726  0.6960776350430677  0.8031267619565767  1.0000
  N   N6        1.0  0.12112022445258933  0.3039137942409695  0.3031247836193671  1.0000
  N   N7        1.0  0.6211395825173014  0.3039229248942377  0.1968737326277292  1.0000
  N   N8        1.0  0.8788738661340787  0.6960810590380504  0.6968767001335365  1.0000
  N   N9        1.0  0.03141222632464749  0.3528757810936867  0.632313170779959  1.0000
  N   N10       1.0  0.46856715185693093  0.6471110828637094  0.1323161382857734  1.0000
  N   N11       1.0  0.9685923264154326  0.6471304855019184  0.3676863346357422  1.0000
  N   N12       1.0  0.5314316773517547  0.3528883357419446  0.8676828725456289  1.0000
  N   N13       1.0  0.1001143715724808  0.4104205820244218  0.6936114545724337  1.0000
  N   N14       1.0  0.3998690668516431  0.5895628579379988  0.1936124437410385  1.0000
  N   N15       1.0  0.8998877188941848  0.5895799779128907  0.3063885454275663  1.0000
  N   N16       1.0  0.6001310537962967  0.4104331366726726  0.8063870616746628  1.0000
  N   N17       1.0  0.4708380770798328  0.5440442687014126  0.9744260349176486  1.0000
  N   N18       1.0  0.029159177718078393  0.4559551499042414  0.4744280132548583  1.0000
  N   N19       1.0  0.5291645058415142  0.4559574325675584  0.0255724813294407  1.0000
  N   N20       1.0  0.97084162130934  0.5440488340280538  0.5255734704980455  1.0000
  O   O1        1.0  0.6524021109382262  0.9402472822458137  0.9265576932588147  1.0000
  O   O2        1.0  0.8475749714207057  0.05974300570656511  0.42655620950591105  1.0000
  O   O3        1.0  0.34759591928589373  0.0597567016864744  0.0734423067411853  1.0000
  O   O4        1.0  0.15242139551457262  0.9402507062407963  0.5734467579999034  1.0000
  O   O5        1.0  0.36545219864298434  0.696023992455082  0.6899554874128313  1.0000
  O   O6        1.0  0.1345245036976976  0.3039662954972968  0.1899574657500338  1.0000
  O   O7        1.0  0.634545246164052  0.303975426150572  0.3100455017557735  1.0000
  O   O8        1.0  0.8654724486546641  0.6960319817766987  0.8100459963400793  1.0000
  O   O9        1.0  0.8058309624712479  0.167174272134055  0.5721697413324094  1.0000
  O   O10       1.0  0.6941582076529258  0.8328023198384074  0.072171719669619  1.0000
  O   O11       1.0  0.19416983655617065  0.8328297117982331  0.427828280330381  1.0000
  O   O12       1.0  0.3058450812905989  0.167191392108947  0.9278258074088725  1.0000
  O   O13       1.0  0.10614040724149729  0.4133172817757469  0.8068267471190467  1.0000
  O   O14       1.0  0.393833526295886  0.5866730061766319  0.3068297146248611  1.0000
  O   O15       1.0  0.8938625751721361  0.5866821368299  0.1931732528809533  1.0000
  O   O16       1.0  0.606162534109508  0.4133264124290221  0.6931688016222353  1.0000
  O   O17       1.0  0.27294479121115245  0.7725662588550222  0.0332261734012533  1.0000
  O   O18       1.0  0.2270465264878894  0.2274354424139489  0.5332246896483497  1.0000
  O   O19       1.0  0.7270545304522217  0.2274343010822903  0.9667738265987467  1.0000
  O   O20       1.0  0.7729523027208032  0.7725639761917051  0.46677580493594917  1.0000
