data_image0
_chemical_formula_structural       Zn4H16C32N32
_chemical_formula_sum              "Zn4 H16 C32 N32"
_cell_length_a       5.612027319502271
_cell_length_b       9.879578577271007
_cell_length_c       18.381915422355135
_cell_angle_alpha    90.00053300482304
_cell_angle_beta     90.00037264632056
_cell_angle_gamma    100.30508074265639

_space_group_name_H-M_alt    "P 1"
_space_group_IT_number       1

loop_
  _space_group_symop_operation_xyz
  'x, y, z'

loop_
  _atom_site_type_symbol
  _atom_site_label
  _atom_site_symmetry_multiplicity
  _atom_site_fract_x
  _atom_site_fract_y
  _atom_site_fract_z
  _atom_site_occupancy
  Zn  Zn1       1.0  0.7204937880182103  0.3009420323444517  0.15131704154494227  1.0000
  Zn  Zn2       1.0  0.2795064764498747  0.1990572140861104  0.6513164713811503  1.0000
  Zn  Zn3       1.0  0.2795094857027039  0.6990621726866453  0.8486839901894143  1.0000
  Zn  Zn4       1.0  0.720494712454098  0.8009459475374429  0.3486834723226195  1.0000
  H   H1        1.0  0.20336210685885459  0.42578827645879613  0.9060804034724229  1.0000
  H   H2        1.0  0.7966332596947653  0.07420572066238411  0.4060761806162603  1.0000
  H   H3        1.0  0.7966462274121754  0.5742149440416427  0.0939200842515575  1.0000
  H   H4        1.0  0.2033670338080143  0.9257943549139329  0.5939226750529867  1.0000
  H   H5        1.0  0.7251255087371788  0.2922469649154778  0.7621848116551107  1.0000
  H   H6        1.0  0.27487216142125  0.20776574765385186  0.262185658873058  1.0000
  H   H7        1.0  0.27486406227875904  0.7077468649880033  0.2378129559618998  1.0000
  H   H8        1.0  0.7251337895707695  0.7922354007602692  0.7378137408174652  1.0000
  H   H9        1.0  0.8785303496981528  0.1715107973070999  0.864658204823705  1.0000
  H   H10       1.0  0.12146984065380202  0.3284967851078875  0.3646631597391945  1.0000
  H   H11       1.0  0.12144730499016994  0.8284726722139126  0.1353390187425205  1.0000
  H   H12       1.0  0.8785396874430165  0.6715105500912699  0.6353356959574512  1.0000
  H   H13       1.0  0.6956703156264014  0.1748717473568178  0.9877605450517846  1.0000
  H   H14       1.0  0.30433682986687677  0.3251260194762154  0.4877647594040439  1.0000
  H   H15       1.0  0.3043171661775547  0.8251148818116293  0.012238854583941397  1.0000
  H   H16       1.0  0.6956777587950358  0.6748803312032053  0.5122346403081152  1.0000
  C   C1        1.0  0.4450582930608391  0.3068062702099112  0.9554119841606551  1.0000
  C   C2        1.0  0.5549420052734605  0.1931887460955082  0.455412772340928  1.0000
  C   C3        1.0  0.5549354476114701  0.6931896465250276  0.044589591556380995  1.0000
  C   C4        1.0  0.44506959875280233  0.8068073177852783  0.5445855393165786  1.0000
  C   C5        1.0  0.3567821107570951  0.3741577878227318  0.8968953122797173  1.0000
  C   C6        1.0  0.6432124102798795  0.12584012503332792  0.3968921306132103  1.0000
  C   C7        1.0  0.6432184812452207  0.6258433164596441  0.10310626345714269  1.0000
  C   C8        1.0  0.3567893711157097  0.8741589365929912  0.6031078130808751  1.0000
  C   C9        1.0  0.45477773138122773  0.3688400154112657  0.8272927479577631  1.0000
  C   C10       1.0  0.5452190462592058  0.1311647452458402  0.3272926618009748  1.0000
  C   C11       1.0  0.5452136260270565  0.6311538292482767  0.17270882775170548  1.0000
  C   C12       1.0  0.454790477412594  0.8688364326039989  0.6727067378931719  1.0000
  C   C13       1.0  0.646374895369931  0.2970201838625998  0.8161812943424848  1.0000
  C   C14       1.0  0.35362097922251234  0.20298229650602206  0.3161800984548506  1.0000
  C   C15       1.0  0.35360455011326763  0.7029694577474147  0.1838175612798381  1.0000
  C   C16       1.0  0.6463819915813502  0.7970147224751545  0.6838193012223499  1.0000
  C   C17       1.0  0.7324270013596035  0.22871647733690992  0.8742382706799815  1.0000
  C   C18       1.0  0.26756511370506086  0.27128712368844543  0.3742432298961234  1.0000
  C   C19       1.0  0.2675485729592638  0.7712721061422487  0.12575895289698738  1.0000
  C   C20       1.0  0.7324408373019439  0.7287140247365899  0.6257572578202968  1.0000
  C   C21       1.0  0.6312999384097894  0.2319631901152803  0.9434937464303415  1.0000
  C   C22       1.0  0.3686982497050623  0.26803772973782714  0.44349617078989917  1.0000
  C   C23       1.0  0.3686851645551529  0.7680275243270814  0.056505109200308795  1.0000
  C   C24       1.0  0.6313103830130516  0.731966519430472  0.556503228911069  1.0000
  C   C25       1.0  0.32459319588929253  0.3111993605493453  0.025651313893916894  1.0000
  C   C26       1.0  0.6754039006631771  0.18879223608620072  0.5256514810765651  1.0000
  C   C27       1.0  0.6754062022347826  0.6887976289961134  0.9743480857796527  1.0000
  C   C28       1.0  0.32459936860274763  0.8112058115737428  0.474347918603506  1.0000
  C   C29       1.0  0.3442919299466283  0.4334717192236468  0.7676575565131144  1.0000
  C   C30       1.0  0.6557040957233582  0.0665287736756923  0.2676546464074292  1.0000
  C   C31       1.0  0.6557047909063415  0.5665283269387871  0.23234347520428858  1.0000
  C   C32       1.0  0.3443021537307232  0.933473403417203  0.7323447532859645  1.0000
  N   N1        1.0  0.4148852825498111  0.2987159897731645  0.09365843119145718  1.0000
  N   N2        1.0  0.5851101148365317  0.20127694178995637  0.5936579370456129  1.0000
  N   N3        1.0  0.5851153094375193  0.7012851144982977  0.9063420565195129  1.0000
  N   N4        1.0  0.4148904771283172  0.7987241624651348  0.4063409186265048  1.0000
  N   N5        1.0  0.2351199816221126  0.3058976705335823  0.1407491189223862  1.0000
  N   N6        1.0  0.7648743342498251  0.19410029106414586  0.640750034974765  1.0000
  N   N7        1.0  0.7648826951671737  0.6941044771345091  0.8592513687932737  1.0000
  N   N8        1.0  0.2351289438811151  0.8059100713053554  0.3592493647361863  1.0000
  N   N9        1.0  0.045772158364002294  0.3229148828288473  0.1019521455440966  1.0000
  N   N10       1.0  0.9542255567706377  0.17708541589806262  0.601953897565316  1.0000
  N   N11       1.0  0.9542290305624453  0.6770882788110698  0.8980494301985189  1.0000
  N   N12       1.0  0.04577831829193003  0.8229270038344368  0.39804604616433176  1.0000
  N   N13       1.0  0.09300821664349003  0.3273846352649273  0.030702827994630894  1.0000
  N   N14       1.0  0.9069908098578883  0.17261323479682741  0.5307039194781069  1.0000
  N   N15       1.0  0.9069888026640598  0.672616439570817  0.9692976597127014  1.0000
  N   N16       1.0  0.09301306077217934  0.8273930275808966  0.4692960242361012  1.0000
  N   N17       1.0  0.25895782685224594  0.5521252272179568  0.7726697602039251  1.0000
  N   N18       1.0  0.7410368333535688  0.947880280431974  0.2726678438228305  1.0000
  N   N19       1.0  0.7410421682259383  0.447873819706878  0.2273318155271866  1.0000
  N   N20       1.0  0.25896733129106053  0.052120853258834594  0.7273310118529253  1.0000
  N   N21       1.0  0.15539212202985922  0.5724062888046364  0.707768963161989  1.0000
  N   N22       1.0  0.8445962821644174  0.9275948013238846  0.20776715143660598  1.0000
  N   N23       1.0  0.8446048973001652  0.42759478604747875  0.2922331565841886  1.0000
  N   N24       1.0  0.15539865230370253  0.07240523008794501  0.7922306162012943  1.0000
  N   N25       1.0  0.17638355938635186  0.4714705145059455  0.6645817191781305  1.0000
  N   N26       1.0  0.8236000980413253  0.028525779529132905  0.1645794971110348  1.0000
  N   N27       1.0  0.8236119720583589  0.5285315743016241  0.3354198565561575  1.0000
  N   N28       1.0  0.17639453797222165  0.9714732232093796  0.8354188145369434  1.0000
  N   N29       1.0  0.29402046860905534  0.382251800947337  0.7004200977306922  1.0000
  N   N30       1.0  0.7059650715089562  0.11774829811616172  0.2004175445435905  1.0000
  N   N31       1.0  0.7059804218403444  0.6177503320028991  0.2995803899831486  1.0000
  N   N32       1.0  0.29403403258556443  0.8822538201053051  0.7995818551425343  1.0000
