data_image0
_chemical_formula_structural       Cd4H20C20O16
_chemical_formula_sum              "Cd4 H20 C20 O16"
_cell_length_a       6.810529336486381
_cell_length_b       7.437507436018056
_cell_length_c       11.503592955062942
_cell_angle_alpha    89.99983257342647
_cell_angle_beta     91.71181481284901
_cell_angle_gamma    90.00019501503377

_space_group_name_H-M_alt    "P 1"
_space_group_IT_number       1

loop_
  _space_group_symop_operation_xyz
  'x, y, z'

loop_
  _atom_site_type_symbol
  _atom_site_label
  _atom_site_symmetry_multiplicity
  _atom_site_fract_x
  _atom_site_fract_y
  _atom_site_fract_z
  _atom_site_occupancy
  Cd  Cd1       1.0  0.324319302912883  0.16841039194339658  0.013675237710323494  1.0000
  Cd  Cd2       1.0  0.17567998043961808  0.6684101450523344  0.9863240741298112  1.0000
  Cd  Cd3       1.0  0.6756819628010006  0.8315919404253975  0.986325027862186  1.0000
  Cd  Cd4       1.0  0.82431835840908  0.3315921873140013  0.0136752573997327  1.0000
  H   H1        1.0  0.6891062130235921  0.6759871891108276  0.4908439200404472  1.0000
  H   H2        1.0  0.8108950481362525  0.1759878380168587  0.5091540737806283  1.0000
  H   H3        1.0  0.31089211482726137  0.32401245418057567  0.5091562805664153  1.0000
  H   H4        1.0  0.18910623955874678  0.8240118052829645  0.4908444536445983  1.0000
  H   H5        1.0  0.10802424363679819  0.3308495179129665  0.32682322533039343  1.0000
  H   H6        1.0  0.39197412445246016  0.8308513665302542  0.6731783655053858  1.0000
  H   H7        1.0  0.8919740622256498  0.6691487808380006  0.6731787134274255  1.0000
  H   H8        1.0  0.6080271632425392  0.16914827676956892  0.3268201619198408  1.0000
  H   H9        1.0  0.5843680714118232  0.7057904916513849  0.2829696450144182  1.0000
  H   H10       1.0  0.9156347663091751  0.2057905263050159  0.7170283270302136  1.0000
  H   H11       1.0  0.4156317363708125  0.29421452979011786  0.7170297189967341  1.0000
  H   H12       1.0  0.08436797932920112  0.7942131506044563  0.2829711019502525  1.0000
  H   H13       1.0  0.5075750486893253  0.5237722010943812  0.37176326287752187  1.0000
  H   H14       1.0  0.9924256627511028  0.023771533763053295  0.6282350080732896  1.0000
  H   H15       1.0  0.4924247810792862  0.4762328203510863  0.628234362983896  1.0000
  H   H16       1.0  0.0075741120452903  0.9762294540630732  0.3717669631661309  1.0000
  H   H17       1.0  0.1271894057688456  0.3775037750381287  0.8513727117964078  1.0000
  H   H18       1.0  0.37280915279286825  0.8775039068778411  0.14862705595064798  1.0000
  H   H19       1.0  0.8728089220820081  0.6224958682532743  0.14862748881045457  1.0000
  H   H20       1.0  0.6271921129185783  0.12249708095448142  0.8513732096230837  1.0000
  C   C1        1.0  0.8237848654398261  0.5970886475835472  0.494168280978485  1.0000
  C   C2        1.0  0.6762160887950586  0.0970888902462406  0.505831594638444  1.0000
  C   C3        1.0  0.17621197149110657  0.4029083066287171  0.5058336252965034  1.0000
  C   C4        1.0  0.3237866568360417  0.9029107530538238  0.4941678343456956  1.0000
  C   C5        1.0  0.061233844161605995  0.40369087925223823  0.4033263750709324  1.0000
  C   C6        1.0  0.43876331806249164  0.9036932208801718  0.596675050662533  1.0000
  C   C7        1.0  0.9387615128472573  0.5963060749558197  0.5966763677948846  1.0000
  C   C8        1.0  0.5612379806254921  0.09630642242164102  0.4033226076878264  1.0000
  C   C9        1.0  0.8846713005847274  0.4996665384487784  0.397397511565984  1.0000
  C   C10       1.0  0.6153281586914331  0.9996678414428714  0.6026024352077783  1.0000
  C   C11       1.0  0.1153240784125344  0.5003317602997228  0.6026034931488765  1.0000
  C   C12       1.0  0.38467311801058196  0.0003318018549621  0.3973969612923155  1.0000
  C   C13       1.0  0.5825282516865469  0.5582437271230207  0.291096341545824  1.0000
  C   C14       1.0  0.9174711043278165  0.05824514888334418  0.708902703233697  1.0000
  C   C15       1.0  0.4174685962446602  0.44175726070064775  0.7089046956506309  1.0000
  C   C16       1.0  0.08253018336718299  0.941754494416479  0.2910958241915296  1.0000
  C   C17       1.0  0.45823100055872595  0.47851274609335087  0.1912944296433636  1.0000
  C   C18       1.0  0.041769391721082606  0.9785128851091259  0.8087051866868646  1.0000
  C   C19       1.0  0.5417746609445685  0.5214868972071827  0.8087068024586016  1.0000
  C   C20       1.0  0.9582245513236243  0.0214840691066343  0.19129317832057066  1.0000
  O   O1        1.0  0.7786242819474649  0.48929754305935097  0.2933421849083614  1.0000
  O   O2        1.0  0.7213780887300485  0.9892973617756058  0.7066569766381718  1.0000
  O   O3        1.0  0.22137697277585736  0.510706133843925  0.7066589497377861  1.0000
  O   O4        1.0  0.27862319897223387  0.010706315133632  0.2933415507833813  1.0000
  O   O5        1.0  0.5287975113519252  0.3502200129037334  0.13064058771585246  1.0000
  O   O6        1.0  0.9712014191957364  0.8502198759066886  0.8693587620725082  1.0000
  O   O7        1.0  0.47120077252696996  0.6497796303797259  0.8693630891904716  1.0000
  O   O8        1.0  0.028798421551293495  0.14977707832194648  0.13063799472138268  1.0000
  O   O9        1.0  0.28905888433554583  0.5443813511349944  0.17896354685461088  1.0000
  O   O10       1.0  0.2109428779606262  0.04438296327994352  0.8210369248388856  1.0000
  O   O11       1.0  0.7109380075700359  0.455620981233089  0.8210340140411599  1.0000
  O   O12       1.0  0.789061270641632  0.9556166800104221  0.17896775107848834  1.0000
  O   O13       1.0  0.13083530715228867  0.3804077869604044  0.9363665750996687  1.0000
  O   O14       1.0  0.36916473082688833  0.8804082925119304  0.06363321984393619  1.0000
  O   O15       1.0  0.86916448963008  0.6195932008696944  0.06363365799001737  1.0000
  O   O16       1.0  0.6308365348845654  0.11959269532039228  0.9363670457297955  1.0000
