data_image0
_chemical_formula_structural       Zn2H22C16N14
_chemical_formula_sum              "Zn2 H22 C16 N14"
_cell_length_a       6.154508682631894
_cell_length_b       9.481226045942575
_cell_length_c       9.627157952746556
_cell_angle_alpha    85.67779318306103
_cell_angle_beta     76.1412290652649
_cell_angle_gamma    81.86020132310225

_space_group_name_H-M_alt    "P 1"
_space_group_IT_number       1

loop_
  _space_group_symop_operation_xyz
  'x, y, z'

loop_
  _atom_site_type_symbol
  _atom_site_label
  _atom_site_symmetry_multiplicity
  _atom_site_fract_x
  _atom_site_fract_y
  _atom_site_fract_z
  _atom_site_occupancy
  Zn  Zn1       1.0  0.7182421522281076  0.045937368488786504  0.5458092663658791  1.0000
  Zn  Zn2       1.0  0.28176075003169393  0.9540570500505227  0.4541904913403557  1.0000
  H   H1        1.0  0.9652971604708258  0.25801758053059837  0.6103742527813908  1.0000
  H   H2        1.0  0.034709290950274904  0.7419757904619857  0.3896219130594149  1.0000
  H   H3        1.0  0.6522741100689586  0.3995949917331887  0.035524469993980276  1.0000
  H   H4        1.0  0.3477297832875762  0.6004026463755849  0.9644707519330855  1.0000
  H   H5        1.0  0.35709320322098403  0.2431606008204525  0.04386557179192611  1.0000
  H   H6        1.0  0.6429188238524545  0.7568381270736355  0.9561262361410247  1.0000
  H   H7        1.0  0.2697703679054442  0.08131879106601053  0.7419272595538831  1.0000
  H   H8        1.0  0.7302174889890837  0.9186755923703132  0.2580769079897466  1.0000
  H   H9        1.0  0.19727812106035708  0.08176998740617593  0.9328234708720378  1.0000
  H   H10       1.0  0.8027213712312286  0.9182329422841704  0.06718036887053105  1.0000
  H   H11       1.0  0.41301283180705883  0.9533290670706338  0.8435014516900741  1.0000
  H   H12       1.0  0.586988119062049  0.04667492764921379  0.1565031257194819  1.0000
  H   H13       1.0  0.09742024217840144  0.40482136717358946  0.901551784052764  1.0000
  H   H14       1.0  0.9025669550239002  0.5951762155501471  0.09845225974280676  1.0000
  H   H15       1.0  0.9232681846976334  0.5480159634972426  0.8432737299094986  1.0000
  H   H16       1.0  0.07673750417814063  0.4519891541615664  0.15671860834682866  1.0000
  H   H17       1.0  0.2852195498346291  0.34934848451644024  0.6445128493236967  1.0000
  H   H18       1.0  0.7147934122004003  0.6506459342977209  0.3554895055015806  1.0000
  H   H19       1.0  0.30278954015867043  0.5263861451285196  0.6816135668663396  1.0000
  H   H20       1.0  0.6972253257859009  0.4736072015205224  0.3183906463141143  1.0000
  H   H21       1.0  0.10452515245103909  0.4923054251991346  0.5851916664722697  1.0000
  H   H22       1.0  0.895492157630599  0.5076922103852082  0.41480771040650694  1.0000
  C   C1        1.0  0.8352707731911053  0.2585710898031408  0.7098200469237246  1.0000
  C   C2        1.0  0.16474321392701802  0.7414340945752329  0.29015853669291414  1.0000
  C   C3        1.0  0.8351756270759694  0.34432600001910174  0.8210190688539786  1.0000
  C   C4        1.0  0.1648079457979037  0.6556811559484645  0.17899005391807077  1.0000
  C   C5        1.0  0.6598620563341201  0.3365117462707019  0.9439199343399313  1.0000
  C   C6        1.0  0.340156526413999  0.6634955667670326  0.056060903527019035  1.0000
  C   C7        1.0  0.4961446863271207  0.24827654925669418  0.9499012420997208  1.0000
  C   C8        1.0  0.5038350787276755  0.7517327510411036  0.05010416396196861  1.0000
  C   C9        1.0  0.5075241388651365  0.1641365440505353  0.8344963000680612  1.0000
  C   C10       1.0  0.4924886483332358  0.8358664785148308  0.16548885445738656  1.0000
  C   C11       1.0  0.3372410756563369  0.06519878446618321  0.8385407287707028  1.0000
  C   C12       1.0  0.6627563094398851  0.9348062708093967  0.16146432593581758  1.0000
  C   C13       1.0  0.01130556959454048  0.44114848198869794  0.8147604724411227  1.0000
  C   C14       1.0  0.9886928817655447  0.5588512671592271  0.18523855937518627  1.0000
  C   C15       1.0  0.18464226103488812  0.4525909839542521  0.6734843610205349  1.0000
  C   C16       1.0  0.8153688081649973  0.547404498352343  0.3265182118285497  1.0000
  N   N1        1.0  0.9804777916402755  0.09776582995945662  0.3891166655556122  1.0000
  N   N2        1.0  0.019517764713533784  0.9022317717841236  0.6108850436846966  1.0000
  N   N3        1.0  0.9750204304759151  0.1460751781850078  0.2698501406120856  1.0000
  N   N4        1.0  0.024972601036502246  0.8539266646567186  0.7301568538514335  1.0000
  N   N5        1.0  0.9761220242347264  0.19214593316667822  0.15436188693465894  1.0000
  N   N6        1.0  0.023869885641872188  0.8078612591660888  0.8456407485241473  1.0000
  N   N7        1.0  0.4375464950310146  0.1309572382005726  0.45300297671843054  1.0000
  N   N8        1.0  0.5624476304312511  0.8690392768318131  0.5470031858023462  1.0000
  N   N9        1.0  0.4053480084115862  0.239734852629276  0.3817700080099727  1.0000
  N   N10       1.0  0.5946461336622662  0.7602616493940958  0.6182392690792826  1.0000
  N   N11       1.0  0.37319881979873765  0.34419923079609305  0.3149588080340423  1.0000
  N   N12       1.0  0.6267951134520968  0.6557983289837283  0.685052504184846  1.0000
  N   N13       1.0  0.6777550871625451  0.17043636920942623  0.7163691458122589  1.0000
  N   N14       1.0  0.32222866131117206  0.8295697550197191  0.2836317126932003  1.0000
