data_image0
_chemical_formula_structural       Cd2H88C84N24Cl4
_chemical_formula_sum              "Cd2 H88 C84 N24 Cl4"
_cell_length_a       7.872455426000123
_cell_length_b       12.517818187615829
_cell_length_c       24.613620399663592
_cell_angle_alpha    103.07717997625137
_cell_angle_beta     90.00000612135214
_cell_angle_gamma    89.99997996420085

_space_group_name_H-M_alt    "P 1"
_space_group_IT_number       1

loop_
  _space_group_symop_operation_xyz
  'x, y, z'

loop_
  _atom_site_type_symbol
  _atom_site_label
  _atom_site_symmetry_multiplicity
  _atom_site_fract_x
  _atom_site_fract_y
  _atom_site_fract_z
  _atom_site_occupancy
  Cd  Cd1       1.0  0.9999990346087557  0.9999998073336869  5.0699824798886815e-08  1.0000
  Cd  Cd2       1.0  1.2163296148000003e-06  0.4999999367218635  0.5000003880908181  1.0000
  H   H1        1.0  0.18273443951530774  0.5845635609593387  0.0005437787194252924  1.0000
  H   H2        1.0  0.18273189161183723  0.9154346012316025  0.49945484480379315  1.0000
  H   H3        1.0  0.8172698444085995  0.41543536773717443  0.9994544693530543  1.0000
  H   H4        1.0  0.8172736625645954  0.08456435926399311  0.5005482822518417  1.0000
  H   H5        1.0  0.0195173778914821  0.7388297321834048  0.9763765357950118  1.0000
  H   H6        1.0  0.0195172955203589  0.761168422886726  0.52362281620249  1.0000
  H   H7        1.0  0.9804830952774851  0.2611692044633287  0.023622932023236787  1.0000
  H   H8        1.0  0.980488258656088  0.23882970953295768  0.47637899804703915  1.0000
  H   H9        1.0  0.3298421960197402  0.9712725814343341  0.07345355065584865  1.0000
  H   H10       1.0  0.3298449181619176  0.5287263741945268  0.4265459803986928  1.0000
  H   H11       1.0  0.6701570068972985  0.028727175338651996  0.9265460102227151  1.0000
  H   H12       1.0  0.6701568252586939  0.4712733878780496  0.5734543936437503  1.0000
  H   H13       1.0  0.5018089177489956  0.8289010425532765  0.10519179338823643  1.0000
  H   H14       1.0  0.5018102803230562  0.6710986958089434  0.39480783225462784  1.0000
  H   H15       1.0  0.4981928256713389  0.17109870891955128  0.8948069543264835  1.0000
  H   H16       1.0  0.4981927333491925  0.3289018916894691  0.6051934480120024  1.0000
  H   H17       1.0  0.20325288158066002  0.4120758447436187  0.11041714059313526  1.0000
  H   H18       1.0  0.20325174783055638  0.08792239958064842  0.3895818434372344  1.0000
  H   H19       1.0  0.7967501320916597  0.5879239173288155  0.8895832334493078  1.0000
  H   H20       1.0  0.796749995590268  0.9120757142899052  0.6104171247387666  1.0000
  H   H21       1.0  0.18826390078527314  0.40614686138609807  0.03790206888352538  1.0000
  H   H22       1.0  0.18826278816992206  0.09385302644962217  0.4620971011343044  1.0000
  H   H23       1.0  0.8117353021314813  0.5938545409389633  0.9620984912795477  1.0000
  H   H24       1.0  0.811731333739985  0.9061475478000816  0.5379021462226347  1.0000
  H   H25       1.0  0.12626924064234396  0.5272067069950308  0.08662572817382848  1.0000
  H   H26       1.0  0.12626790233531437  0.972792290249764  0.41337339448992333  1.0000
  H   H27       1.0  0.8737312325259196  0.4727955154560064  0.9133749250495737  1.0000
  H   H28       1.0  0.8737300303303641  0.027205823621208894  0.5866255736860566  1.0000
  H   H29       1.0  0.8906355515579848  0.6529148799605763  0.07538726191648237  1.0000
  H   H30       1.0  0.8906355567145925  0.8470864167564754  0.4246129598838521  1.0000
  H   H31       1.0  0.1093661918622075  0.3470856942883031  0.9246119854404923  1.0000
  H   H32       1.0  0.1093661867052447  0.15291662847045728  0.575388192981805  1.0000
  H   H33       1.0  0.7640981348237403  0.7575803348904202  0.11658057535105115  1.0000
  H   H34       1.0  0.7640994541731346  0.7424201665650683  0.38341914568269425  1.0000
  H   H35       1.0  0.2359010680932343  0.24241941923262533  0.8834185789455873  1.0000
  H   H36       1.0  0.23590228924690854  0.2575820585357603  0.6165819141226406  1.0000
  H   H37       1.0  0.7422002615145616  0.7274179538451547  0.043279685240356976  1.0000
  H   H38       1.0  0.7422015888796949  0.772581734895695  0.4567203491204238  1.0000
  H   H39       1.0  0.25780148190583674  0.2725818002776137  0.9567194690562956  1.0000
  H   H40       1.0  0.2578001545403482  0.22742049020514093  0.5432807106849182  1.0000
  H   H41       1.0  0.43241902210859  0.2945879780438219  0.08855745866308239  1.0000
  H   H42       1.0  0.4324178308274255  0.2054118646519925  0.4114429332699672  1.0000
  H   H43       1.0  0.5675814510603061  0.7054117840288896  0.9114429153793466  1.0000
  H   H44       1.0  0.567577561334545  0.7945878947713325  0.5885570341905079  1.0000
  H   H45       1.0  0.6594358653938032  0.30613905515951956  0.09219981988164959  1.0000
  H   H46       1.0  0.6594346792663686  0.19385991274718606  0.40779966784436533  1.0000
  H   H47       1.0  0.3405658780268013  0.6938607069130569  0.9078005541607862  1.0000
  H   H48       1.0  0.34056071289546  0.8061398413762715  0.5921994864522586  1.0000
  H   H49       1.0  0.8941415236438458  0.4332109396518361  0.17450754831436643  1.0000
  H   H50       1.0  0.8941403799924146  0.06678962012200879  0.32549253419969654  1.0000
  H   H51       1.0  0.10585640902119312  0.5667904626733672  0.8254930118487067  1.0000
  H   H52       1.0  0.1058562824212004  0.9332101366512474  0.6745070266788601  1.0000
  H   H53       1.0  0.8583560277350841  0.2907572404349991  0.15101065590083348  1.0000
  H   H54       1.0  0.8583535430634299  0.2092433271202907  0.34898942629524743  1.0000
  H   H55       1.0  0.14164317518160627  0.7092441592401356  0.8489894976803072  1.0000
  H   H56       1.0  0.1416418490985407  0.7907564323030413  0.6510105411652275  1.0000
  H   H57       1.0  0.9212233227663448  0.3434456166324864  0.2207701194097352  1.0000
  H   H58       1.0  0.9212183032092086  0.15655411182707005  0.2792290571207587  1.0000
  H   H59       1.0  0.0787784206539826  0.6565549629162604  0.7792299411110973  1.0000
  H   H60       1.0  0.0787758187009047  0.8434456422965295  0.7207700971758582  1.0000
  H   H61       1.0  0.2466752171389857  0.3489442741406422  0.3096078589736138  1.0000
  H   H62       1.0  0.24667652197297943  0.15105642641968586  0.19039221778742635  1.0000
  H   H63       1.0  0.7533214452746858  0.6510563133584667  0.690393421292981  1.0000
  H   H64       1.0  0.7533239511952204  0.848944965305499  0.8096067160479378  1.0000
  H   H65       1.0  0.14522653647586029  0.42078639769233916  0.2640514884333171  1.0000
  H   H66       1.0  0.14522154506511947  0.0792134968520273  0.235947274620159  1.0000
  H   H67       1.0  0.8547739366929648  0.5792133617304387  0.7359484790271861  1.0000
  H   H68       1.0  0.8547725768444396  0.9207878922239132  0.7640512526332442  1.0000
  H   H69       1.0  0.279560725839886  0.49183848540312164  0.31871062594898797  1.0000
  H   H70       1.0  0.2795582957757787  0.008162205356967402  0.18128904452230185  1.0000
  H   H71       1.0  0.720439747328939  0.5081612740196562  0.6812893415115155  1.0000
  H   H72       1.0  0.7204370963853535  0.9918400064948756  0.8187099823733561  1.0000
  H   H73       1.0  0.4720204146723078  0.3687543443933378  0.3595031711795115  1.0000
  H   H74       1.0  0.472019173148702  0.1312463151174299  0.14049812732960018  1.0000
  H   H75       1.0  0.5279787882443757  0.6312478833577017  0.6404982952077487  1.0000
  H   H76       1.0  0.5279800297687558  0.8687526294792461  0.8595025602344318  1.0000
  H   H77       1.0  0.8900614732051295  0.5067267414713896  0.2836461917294811  1.0000
  H   H78       1.0  0.8900613275177277  0.993274552720571  0.21635362348382603  1.0000
  H   H79       1.0  0.10993899996236682  0.49327793605809217  0.7163539275110364  1.0000
  H   H80       1.0  0.1099391456513104  0.006724386576095798  0.7836462509163551  1.0000
  H   H81       1.0  0.6252165830270471  0.4198875004159461  0.4485372848205528  1.0000
  H   H82       1.0  0.6252127992703649  0.08011393796002858  0.051462888364298486  1.0000
  H   H83       1.0  0.37479024139992123  0.5801138992583573  0.5514628687606303  1.0000
  H   H84       1.0  0.3747864036466027  0.9198866442389289  0.9485375787384452  1.0000
  H   H85       1.0  0.03277240747154049  0.5431414953476691  0.3757071977017644  1.0000
  H   H86       1.0  0.032770980654675  0.9568616228578575  0.12429238943284553  1.0000
  H   H87       1.0  0.9672293359480194  0.4568615392795293  0.6242923288361764  1.0000
  H   H88       1.0  0.9672294925134466  0.0431405942933054  0.8757074506266986  1.0000
  C   C1        1.0  0.3560589952740116  0.692493162674168  0.05645367921010088  1.0000
  C   C2        1.0  0.35605775841181503  0.8075066047306405  0.44354553855576734  1.0000
  C   C3        1.0  0.6439440183980382  0.3075065887985317  0.9435450685046264  1.0000
  C   C4        1.0  0.6439439850089955  0.1924931652917365  0.5564560552324592  1.0000
  C   C5        1.0  0.2169778651639547  0.6688659065586504  0.019657645031529048  1.0000
  C   C6        1.0  0.2169778978905157  0.8311322481860302  0.48034097879596505  1.0000
  C   C7        1.0  0.7830238782565218  0.33113302213813967  0.9803406030409362  1.0000
  C   C8        1.0  0.7830301967890634  0.1688675297854658  0.5196618347380735  1.0000
  C   C9        1.0  0.12779092590669447  0.7536713210483511  0.004927673702553537  1.0000
  C   C10       1.0  0.12779228068215792  0.7463260382629856  0.4950716694360152  1.0000
  C   C11       1.0  0.8722095472624148  0.24632679282233735  0.9950712944734406  1.0000
  C   C12       1.0  0.8722120032420121  0.25367372910918107  0.504929517770293  1.0000
  C   C13       1.0  0.30161087341961235  0.8839322627500861  0.059367220189962155  1.0000
  C   C14       1.0  0.30161355206515583  0.6160658788913621  0.44063221755340715  1.0000
  C   C15       1.0  0.6983883294975756  0.11606667124685538  0.9406318410463541  1.0000
  C   C16       1.0  0.698389461607512  0.3839330683548354  0.559368876592572  1.0000
  C   C17       1.0  0.3969953697852233  0.8040710185935892  0.07623620666944926  1.0000
  C   C18       1.0  0.3969967283928071  0.6959270996574104  0.4237628253395157  1.0000
  C   C19       1.0  0.6030051033836088  0.19592791275326954  0.9237624479849341  1.0000
  C   C20       1.0  0.6030088257834195  0.30407185288838423  0.5762390819703356  1.0000
  C   C21       1.0  0.4545149618909504  0.6062466998007209  0.07239011419367354  1.0000
  C   C22       1.0  0.4545136720300392  0.8937522234195328  0.42760860480476726  1.0000
  C   C23       1.0  0.545486781529533  0.39375222889606926  0.9276081338787916  1.0000
  C   C24       1.0  0.5454868011388428  0.10624836672909771  0.5723930820437744  1.0000
  C   C25       1.0  0.3943558698917471  0.504943620961086  0.07958614532793007  1.0000
  C   C26       1.0  0.39435325140678396  0.9950544952143473  0.4204124800756403  1.0000
  C   C27       1.0  0.6056471437803738  0.4950561331615403  0.9204130089687224  1.0000
  C   C28       1.0  0.6056446812589584  0.0049444493824637  0.5795882074883849  1.0000
  C   C29       1.0  0.21890871535138254  0.46002549307747387  0.07853743502023038  1.0000
  C   C30       1.0  0.21890761881530102  0.03997274519261399  0.4214611425673168  1.0000
  C   C31       1.0  0.7810930280689448  0.5399750864712728  0.9214626255006022  1.0000
  C   C32       1.0  0.7810903138504485  0.9600253713282926  0.5785382321905956  1.0000
  C   C33       1.0  0.6334502418678767  0.6051744095451282  0.08252298209846028  1.0000
  C   C34       1.0  0.6334502182557029  0.8948244800667099  0.41747655165376324  1.0000
  C   C35       1.0  0.3665515015528769  0.3948237016754916  0.9174755794956153  1.0000
  C   C36       1.0  0.36655025491283066  0.1051769249081573  0.5825244150912424  1.0000
  C   C37       1.0  0.7637970974984399  0.6900896122088582  0.07910902884075446  1.0000
  C   C38       1.0  0.7637971219342462  0.8099108919621612  0.42089109877223746  1.0000
  C   C39       1.0  0.23620591617368092  0.30991014191376814  0.9208901254558982  1.0000
  C   C40       1.0  0.23620589173751227  0.19009133313853246  0.5791099610331045  1.0000
  C   C41       1.0  0.539578716009828  0.3459184263117692  0.10764704735810676  1.0000
  C   C42       1.0  0.5395762764011636  0.15408139308310353  0.39235334552709833  1.0000
  C   C43       1.0  0.460421757158919  0.654082158536987  0.8923538263265769  1.0000
  C   C44       1.0  0.46041911576052297  0.8459191838163987  0.6076463084117734  1.0000
  C   C45       1.0  0.6620729077350445  0.3754790399697043  0.20467757975536927  1.0000
  C   C46       1.0  0.6620691815394224  0.12451910988770719  0.2953222215156686  1.0000
  C   C47       1.0  0.33792756543391533  0.6245207247529478  0.7953232008689922  1.0000
  C   C48       1.0  0.3379262106231096  0.8754781865073654  0.7046770601819076  1.0000
  C   C49       1.0  0.8430431301163923  0.36044545188857313  0.18690206842610016  1.0000
  C   C50       1.0  0.8430381313494664  0.13955265861834218  0.31309773445293837  1.0000
  C   C51       1.0  0.1569560728006394  0.639555132960318  0.8130988052585832  1.0000
  C   C52       1.0  0.1569547203096349  0.8604446377770075  0.6869015472446235  1.0000
  C   C53       1.0  0.5857841323299482  0.4003417815409732  0.2576367212982546  1.0000
  C   C54       1.0  0.5857804020392834  0.09965638755480197  0.242363485876858  1.0000
  C   C55       1.0  0.41421507058701934  0.599658800657984  0.7423637458044964  1.0000
  C   C56       1.0  0.4142137198718103  0.9003400913642352  0.7576361093423216  1.0000
  C   C57       1.0  0.4068069357383237  0.39502226072520585  0.24706865460535704  1.0000
  C   C58       1.0  0.406804476318257  0.1049775848899657  0.2529313305181873  1.0000
  C   C59       1.0  0.5931935374310627  0.6049758637452243  0.7529319398983532  1.0000
  C   C60       1.0  0.5931921860952941  0.895022169233357  0.7470678237784439  1.0000
  C   C61       1.0  0.2623450202705158  0.41498815314908893  0.2871675122468601  1.0000
  C   C62       1.0  0.2623450988830598  0.08501171857811579  0.21283165842921647  1.0000
  C   C63       1.0  0.7376541826468709  0.5850107887976533  0.7128327687352394  1.0000
  C   C64       1.0  0.7376541040335667  0.9149888503711664  0.7871667757638858  1.0000
  C   C65       1.0  0.6696867997394519  0.4289629331181715  0.3116187559883556  1.0000
  C   C66       1.0  0.6696843373365197  0.0710368606356013  0.18838204463484942  1.0000
  C   C67       1.0  0.3303111329251678  0.5710401094592469  0.6883819902953546  1.0000
  C   C68       1.0  0.3303135953294358  0.928961263835106  0.8116185498688535  1.0000
  C   C69       1.0  0.5956895704085312  0.40781769178810373  0.360279189403485  1.0000
  C   C70       1.0  0.5956858096953325  0.09218211805595188  0.1397216105622192  1.0000
  C   C71       1.0  0.40431090275972537  0.5921845306629264  0.6397214638199172  1.0000
  C   C72       1.0  0.4043121229708361  0.9078151862886443  0.8602788908811616  1.0000
  C   C73       1.0  0.8287642191940564  0.48191317362574176  0.3184514067636499  1.0000
  C   C74       1.0  0.82876432423879  0.018088223139827202  0.18154917481176366  1.0000
  C   C75       1.0  0.1712337134700803  0.5180915065539579  0.6815491190587861  1.0000
  C   C76       1.0  0.1712348786786038  0.9819107188069153  0.818451106170336  1.0000
  C   C77       1.0  0.682339791946461  0.4354459769373093  0.41067485824559197  1.0000
  C   C78       1.0  0.6823372997796469  0.06455544901750442  0.08932531544683538  1.0000
  C   C79       1.0  0.31766068122138347  0.5645570576900242  0.5893246682923489  1.0000
  C   C80       1.0  0.31766190313746273  0.9354443104054085  0.9106746520136682  1.0000
  C   C81       1.0  0.9079796590904365  0.504402681001018  0.3701702460910283  1.0000
  C   C82       1.0  0.9079794829937883  0.9955994294208779  0.12982966234181245  1.0000
  C   C83       1.0  0.09202208432904511  0.49560117905215845  0.6298301866710999  1.0000
  C   C84       1.0  0.09202099017475261  0.004401147478070298  0.8701699915970806  1.0000
  N   N1        1.0  0.1682712814955565  0.8598673598688008  0.02445379957560327  1.0000
  N   N2        1.0  0.1682726883504913  0.6401316335425234  0.47554613662523326  1.0000
  N   N3        1.0  0.8317279214217023  0.14013157677806728  0.9755456682426383  1.0000
  N   N4        1.0  0.8317303253217503  0.35986895395588897  0.524455143641397  1.0000
  N   N5        1.0  0.5339171725462535  0.45076879949830573  0.09208882409077288  1.0000
  N   N6        1.0  0.5339147960841827  0.04923102112761771  0.4079115687441259  1.0000
  N   N7        1.0  0.4660845708741448  0.5492317827003746  0.9079116430119852  1.0000
  N   N8        1.0  0.46608059607778785  0.950768738295707  0.5920883987163491  1.0000
  N   N9        1.0  0.6802272894279896  0.5101932004129139  0.09413636556714516  1.0000
  N   N10       1.0  0.6802272094476365  0.9898073245796861  0.4058641678852266  1.0000
  N   N11       1.0  0.31977445399247983  0.48980655635978815  0.9058631953114329  1.0000
  N   N12       1.0  0.31977199346919605  0.010193252319396596  0.5941354860536662  1.0000
  N   N13       1.0  0.531089630421306  0.35843331194723765  0.16749930107344818  1.0000
  N   N14       1.0  0.5310859073258457  0.14156568651762305  0.33250059209407107  1.0000
  N   N15       1.0  0.46890957249593873  0.6415664527755497  0.8325014795509061  1.0000
  N   N16       1.0  0.46890821458448073  0.8584332474798657  0.6674984691422238  1.0000
  N   N17       1.0  0.3753516898786984  0.3713499454821303  0.19242160590118826  1.0000
  N   N18       1.0  0.3753479655278937  0.12864908684679222  0.3075782858825277  1.0000
  N   N19       1.0  0.624650053542183  0.6286489991142757  0.807579081662851  1.0000
  N   N20       1.0  0.6246461563822268  0.8713506672768077  0.6924208684140891  1.0000
  N   N21       1.0  0.8380408841371787  0.48089169276996574  0.41584462129047484  1.0000
  N   N22       1.0  0.8380371450782108  0.0191105221049881  0.08415605342766949  1.0000
  N   N23       1.0  0.1619646700378681  0.519110527030584  0.5841556253510233  1.0000
  N   N24       1.0  0.16196205783875675  0.9808900600939693  0.9158444136750743  1.0000
  Cl  Cl1       1.0  0.22387675169658652  0.14743166784090528  0.05220038175612269  1.0000
  Cl  Cl2       1.0  0.223876761630649  0.35256657729860313  0.44779941562136116  1.0000
  Cl  Cl3       1.0  0.7761237214724446  0.8525672714557683  0.9477994926440514  1.0000
  Cl  Cl4       1.0  0.7761237115383892  0.6474323619980707  0.5522004587788202  1.0000
