data_image0
_chemical_formula_structural       Zn8H48C48O50
_chemical_formula_sum              "Zn8 H48 C48 O50"
_cell_length_a       16.93198780954538
_cell_length_b       17.576433049018025
_cell_length_c       18.414825465904276
_cell_angle_alpha    66.86220377511391
_cell_angle_beta     66.83464984622432
_cell_angle_gamma    65.92433627303025

_space_group_name_H-M_alt    "P 1"
_space_group_IT_number       1

loop_
  _space_group_symop_operation_xyz
  'x, y, z'

loop_
  _atom_site_type_symbol
  _atom_site_label
  _atom_site_symmetry_multiplicity
  _atom_site_fract_x
  _atom_site_fract_y
  _atom_site_fract_z
  _atom_site_occupancy
  Zn  Zn1       1.0  0.9114987628488506  0.038229606040943116  0.11339151601466578  1.0000
  Zn  Zn2       1.0  0.07124212806652253  0.0251081149956036  0.9463036915000417  1.0000
  Zn  Zn3       1.0  0.08476787398225848  0.8693690423420648  0.10221910932661164  1.0000
  Zn  Zn4       1.0  0.1032692945474096  0.0430301510207869  0.1031008459720084  1.0000
  Zn  Zn5       1.0  0.677123926192998  0.4467247738741166  0.5373113842870437  1.0000
  Zn  Zn6       1.0  0.4920632172512641  0.4652775231881138  0.6845120433066043  1.0000
  Zn  Zn7       1.0  0.5003723673805569  0.44659807256122963  0.5116862887138396  1.0000
  Zn  Zn8       1.0  0.5063156532506312  0.6182803142324785  0.5259335859779953  1.0000
  H   H1        1.0  0.7470277669040113  0.11117777631547912  0.948494499327275  1.0000
  H   H2        1.0  0.8090892814105859  0.10292016173948332  0.7399717177914198  1.0000
  H   H3        1.0  0.7149240515810931  0.1174581710223919  0.8312438043513098  1.0000
  H   H4        1.0  0.655496807088561  0.2587481189295461  0.85521661611881  1.0000
  H   H5        1.0  0.6704397920874926  0.3981244675423453  0.823987692154283  1.0000
  H   H6        1.0  0.9080290040201718  0.35883245236065875  0.7792969179383248  1.0000
  H   H7        1.0  0.8002806995104805  0.37779670104080043  0.857175725426963  1.0000
  H   H8        1.0  0.7421694881689974  0.2527741262391032  0.9346411200334899  1.0000
  H   H9        1.0  0.820535457439604  0.8665870626718969  0.3523785270840707  1.0000
  H   H10       1.0  0.9247524818376578  0.6495555654672884  0.4617484536689957  1.0000
  H   H11       1.0  0.8287638618329893  0.7463375286954205  0.47145303466716365  1.0000
  H   H12       1.0  0.7076011477747528  0.7679753871837249  0.4182817223925922  1.0000
  H   H13       1.0  0.6559038236681546  0.7297120806166789  0.3375954627835044  1.0000
  H   H14       1.0  0.8505101159391585  0.6760169041490515  0.17283018800260672  1.0000
  H   H15       1.0  0.7456463722816838  0.7589350438702667  0.2024346647659598  1.0000
  H   H16       1.0  0.7484734134780027  0.8468403195256614  0.2763328708822855  1.0000
  H   H17       1.0  0.8297964604615373  0.2815314818142483  0.17483320348599557  1.0000
  H   H18       1.0  0.9284093769086257  0.3823843336629906  0.23708123041137696  1.0000
  H   H19       1.0  0.8346515875984226  0.3976807828420376  0.20225429616139223  1.0000
  H   H20       1.0  0.7186226098805973  0.32773399126378416  0.3050712524587882  1.0000
  H   H21       1.0  0.6801790397610433  0.22139088852632943  0.4329370418477368  1.0000
  H   H22       1.0  0.8893266855317066  0.06729569305801421  0.4605651331951322  1.0000
  H   H23       1.0  0.7855176433505022  0.08735073810746033  0.4383413338137459  1.0000
  H   H24       1.0  0.7740349827532499  0.1797578995898022  0.29824210252251504  1.0000
  H   H25       1.0  0.11402264621881389  0.8097687044347668  0.8560401149232676  1.0000
  H   H26       1.0  0.19734909929318428  0.5773933885968746  0.9267383509552687  1.0000
  H   H27       1.0  0.14514479822901205  0.6677559642444635  0.8512470285226712  1.0000
  H   H28       1.0  0.24457720069709418  0.7471795384515686  0.7367803283260413  1.0000
  H   H29       1.0  0.38399990001543216  0.7804359135875103  0.6810672291847126  1.0000
  H   H30       1.0  0.44936020487376993  0.7508686145891303  0.8545867830885142  1.0000
  H   H31       1.0  0.40407377408799067  0.8300515510705679  0.7698433182635539  1.0000
  H   H32       1.0  0.2462755185600471  0.8548957786765927  0.7854150723374502  1.0000
  H   H33       1.0  0.3226249583383308  0.0862981987441529  0.8277626781601556  1.0000
  H   H34       1.0  0.4565458921679949  0.15824787583179759  0.8816466431437888  1.0000
  H   H35       1.0  0.4532747025774739  0.11766349967880531  0.8061131017521745  1.0000
  H   H36       1.0  0.3692451131966692  0.22326900134743968  0.7071209897410217  1.0000
  H   H37       1.0  0.2644984364246171  0.360225238491843  0.6671649636546418  1.0000
  H   H38       1.0  0.10665315129364225  0.3995770063364645  0.8573854102779562  1.0000
  H   H39       1.0  0.12599227037230787  0.3631452453880826  0.7700780882167635  1.0000
  H   H40       1.0  0.2183481333650974  0.21559498980361266  0.7721427268944794  1.0000
  H   H41       1.0  0.16490154818162497  0.7541881862917066  0.28681641829711424  1.0000
  H   H42       1.0  0.16760086745400585  0.7932355295536124  0.4618841163984513  1.0000
  H   H43       1.0  0.16348650716053484  0.7144800674865195  0.4231949579540241  1.0000
  H   H44       1.0  0.30699548414145295  0.634645112753951  0.3455445855521191  1.0000
  H   H45       1.0  0.46021050731962276  0.6198423431396735  0.2729091823983865  1.0000
  H   H46       1.0  0.4671929437143591  0.8411669377281684  0.172123771706964  1.0000
  H   H47       1.0  0.46334802593032987  0.7467376407920555  0.15646354850385782  1.0000
  H   H48       1.0  0.3182595720176381  0.722091220163989  0.20628974832062139  1.0000
  C   C1        1.0  0.8785475652811883  0.09206439104548281  0.9532517779173162  1.0000
  C   C2        1.0  0.8082803429514771  0.1294235315262995  0.905930380115322  1.0000
  C   C3        1.0  0.7793534217175803  0.13178868053280013  0.7913174421033492  1.0000
  C   C4        1.0  0.7235895714128234  0.2655538779159414  0.8199762357206525  1.0000
  C   C5        1.0  0.7151300185932997  0.36196799056138934  0.7776270391239137  1.0000
  C   C6        1.0  0.8432555618873677  0.3450723805397189  0.8076360552464835  1.0000
  C   C7        1.0  0.7820577606881545  0.22910072239351112  0.8793194934957427  1.0000
  C   C8        1.0  0.6683419338080796  0.3942027033447815  0.7104035842167635  1.0000
  C   C9        1.0  0.9167868022405087  0.8688250971913974  0.23428479369994185  1.0000
  C   C10       1.0  0.8643077499799221  0.8200902638506093  0.3153284396363106  1.0000
  C   C11       1.0  0.8753170188740569  0.7026704462414628  0.43168609238944805  1.0000
  C   C12       1.0  0.7602010565368007  0.7288912360049551  0.3767536504441864  1.0000
  C   C13       1.0  0.7167988516758755  0.6815484557763581  0.3559840431792053  1.0000
  C   C14       1.0  0.8054433106818523  0.7078676517320659  0.22123571284171822  1.0000
  C   C15       1.0  0.8026259108094109  0.7894005401882893  0.29751787671239055  1.0000
  C   C16       1.0  0.6842086997400045  0.6146884908339912  0.4336120951843797  1.0000
  C   C17       1.0  0.9320481927825811  0.16156479753944103  0.17136129385252025  1.0000
  C   C18       1.0  0.8789823557634406  0.23650221235898533  0.21044960284196185  1.0000
  C   C19       1.0  0.8819837802540887  0.35192659841501944  0.23976583410513558  1.0000
  C   C20       1.0  0.7730808743030623  0.28358917226805147  0.33472857244453286  1.0000
  C   C21       1.0  0.7309894544044511  0.249479118372939  0.4271829313184768  1.0000
  C   C22       1.0  0.8381763117437018  0.115155379502518  0.42963881337830406  1.0000
  C   C23       1.0  0.8234794969126042  0.20551153949713102  0.2988581971166582  1.0000
  C   C24       1.0  0.6797335732929641  0.3237064917396993  0.4671452201460794  1.0000
  C   C25       1.0  0.1347294039216393  0.8419133626815665  0.9455271664722532  1.0000
  C   C26       1.0  0.16462407597001072  0.7831404729904391  0.8909398261443614  1.0000
  C   C27       1.0  0.19479578648665108  0.6433108746299183  0.8868708094453979  1.0000
  C   C28       1.0  0.28701973810854037  0.7228740009558764  0.7790122172976338  1.0000
  C   C29       1.0  0.38501760742430957  0.717127549595766  0.7279609306298414  1.0000
  C   C30       1.0  0.4050446782848312  0.7664898242321884  0.8172972450437258  1.0000
  C   C31       1.0  0.25515525008654566  0.7886322850459778  0.8279262200539462  1.0000
  C   C32       1.0  0.42507896784967164  0.6481961612558111  0.6821909471746821  1.0000
  C   C33       1.0  0.20580470150884622  0.0986187895286363  0.9298585284351829  1.0000
  C   C34       1.0  0.28480409624768305  0.1312581501271666  0.8671877258944605  1.0000
  C   C35       1.0  0.41456034749246845  0.1603864935925401  0.8479195743551814  1.0000
  C   C36       1.0  0.32993323563154314  0.25766778510059407  0.7555052113442359  1.0000
  C   C37       1.0  0.29344329262819  0.35496213470419485  0.7140224954987247  1.0000
  C   C38       1.0  0.15615073161606574  0.36183235470092273  0.8146858386429444  1.0000
  C   C39       1.0  0.2502557906167837  0.2214558484948412  0.8111414919835056  1.0000
  C   C40       1.0  0.37063829540441173  0.3953215667872599  0.6696809347627737  1.0000
  C   C41       1.0  0.17505166427722693  0.8735310578907018  0.19769344896499766  1.0000
  C   C42       1.0  0.1989464662521813  0.8024388828313249  0.2731058398731107  1.0000
  C   C43       1.0  0.1932672680996035  0.7661895316572683  0.40974996607676667  1.0000
  C   C44       1.0  0.3277868073732294  0.6928705939459122  0.3290813604586731  1.0000
  C   C45       1.0  0.4306583672426358  0.6648086767764242  0.3117889724577336  1.0000
  C   C46       1.0  0.4384222711116407  0.7871965614462298  0.1993115778555535  1.0000
  C   C47       1.0  0.30075405774864816  0.7575391718417421  0.25133946259838075  1.0000
  C   C48       1.0  0.4553528592635986  0.6152129051156338  0.39281775687010867  1.0000
  O   O1        1.0  0.04131776821597557  0.9967243688143838  0.06575113168833012  1.0000
  O   O2        1.0  0.9601468195844947  0.06747013711989779  0.9137218266544663  1.0000
  O   O3        1.0  0.8460860932081575  0.0916316833340716  0.028766270188285117  1.0000
  O   O4        1.0  0.8424265579054195  0.0951401856317489  0.8375236102668354  1.0000
  O   O5        1.0  0.7626924717735195  0.22215502568366216  0.7570861614302871  1.0000
  O   O6        1.0  0.8004672216500596  0.3768886119940191  0.7448741978039025  1.0000
  O   O7        1.0  0.8626164140630977  0.2541443885174175  0.8416717961445386  1.0000
  O   O8        1.0  0.5882391243600085  0.3887228799107092  0.7378070329963647  1.0000
  O   O9        1.0  0.7111208426805862  0.4220057552683514  0.6368331527349439  1.0000
  O   O10       1.0  7.139844601771362e-05  0.8327178575199172  0.2088414292603104  1.0000
  O   O11       1.0  0.8686873980343107  0.9418151366345597  0.1997207001280188  1.0000
  O   O12       1.0  0.9243168730762862  0.7498439801383513  0.3581213859268359  1.0000
  O   O13       1.0  0.8261485700440617  0.6645013332523533  0.4171526314981478  1.0000
  O   O14       1.0  0.7769598739795428  0.6432354908645409  0.29147792880157647  1.0000
  O   O15       1.0  0.8556254134243348  0.7463961978149812  0.23446736375390037  1.0000
  O   O16       1.0  0.6200217170380498  0.6479121197338742  0.4888837353257712  1.0000
  O   O17       1.0  0.7207533003689905  0.534810303066962  0.43819495490541266  1.0000
  O   O18       1.0  0.016679261167531906  0.143168063695029  0.14478123371760893  1.0000
  O   O19       1.0  0.8812413332176021  0.1256490728472031  0.169091772103009  1.0000
  O   O20       1.0  0.935199931457504  0.27995354516599497  0.20729057294263956  1.0000
  O   O21       1.0  0.8327567579811161  0.328240560747659  0.32330676633679195  1.0000
  O   O22       1.0  0.7976574054200612  0.1848613350685895  0.4657151300152976  1.0000
  O   O23       1.0  0.8833470056889965  0.1394469840060495  0.3450006533628454  1.0000
  O   O24       1.0  0.6022966587363784  0.365373458850911  0.45422628504446994  1.0000
  O   O25       1.0  0.7162554538905753  0.33839838108657005  0.5062261821162578  1.0000
  O   O26       1.0  0.11233331567598273  0.8092125070935269  0.02274442929893178  1.0000
  O   O27       1.0  0.13429443619175171  0.9198078035297357  0.9064095643740939  1.0000
  O   O28       1.0  0.16803198452996065  0.696499120585827  0.9387017926021954  1.0000
  O   O29       1.0  0.2820435611755771  0.6393237960024506  0.8322232315583661  1.0000
  O   O30       1.0  0.4397772326046264  0.700000728305753  0.7781004162649764  1.0000
  O   O31       1.0  0.31765983249821544  0.7703100099104673  0.8712772303916196  1.0000
  O   O32       1.0  0.4188837978088318  0.6772695245737951  0.608351465280677  1.0000
  O   O33       1.0  0.4589936915051853  0.5707538935972991  0.7193483994053836  1.0000
  O   O34       1.0  0.19797107650366297  0.08030645912126032  0.005316735669090578  1.0000
  O   O35       1.0  0.15602323163455617  0.0929248229461308  0.8961762577965757  1.0000
  O   O36       1.0  0.34171178566492705  0.13092552667154683  0.9070248149717062  1.0000
  O   O37       1.0  0.38673313303426243  0.2473967178083782  0.8011249908330882  1.0000
  O   O38       1.0  0.22674571460132145  0.40005185210215904  0.7718805728448146  1.0000
  O   O39       1.0  0.18524698222182684  0.27565562709593655  0.8623048372182681  1.0000
  O   O40       1.0  0.41290388613320783  0.38660342461994185  0.5973654265776389  1.0000
  O   O41       1.0  0.3859354840149295  0.4308360503670556  0.7085874932536527  1.0000
  O   O42       1.0  0.1418805585676779  0.9519569777245708  0.19903164333071283  1.0000
  O   O43       1.0  0.1909650293552545  0.8451979670359722  0.1374915857243692  1.0000
  O   O44       1.0  0.16925659822639733  0.8348800860911255  0.3419773287674772  1.0000
  O   O45       1.0  0.28769081641977584  0.7302121335796697  0.3964034681971997  1.0000
  O   O46       1.0  0.4656194577262554  0.7366599102960265  0.27187629162935434  1.0000
  O   O47       1.0  0.34424895027478203  0.8237244370817437  0.21545272636949145  1.0000
  O   O48       1.0  0.447123053876787  0.5390157110733684  0.42432679111978205  1.0000
  O   O49       1.0  0.4796791828895339  0.6543675453920557  0.42108589782610306  1.0000
  O   O50       1.0  0.5438538904710626  0.4917400203739533  0.5649840401875253  1.0000
