data_image0
_chemical_formula_structural       Cd2H8C8S8N12
_chemical_formula_sum              "Cd2 H8 C8 S8 N12"
_cell_length_a       7.948973906586149
_cell_length_b       8.127764635512202
_cell_length_c       8.127661739461638
_cell_angle_alpha    82.63991047416016
_cell_angle_beta     87.6567503064968
_cell_angle_gamma    87.65635455321085

_space_group_name_H-M_alt    "P 1"
_space_group_IT_number       1

loop_
  _space_group_symop_operation_xyz
  'x, y, z'

loop_
  _atom_site_type_symbol
  _atom_site_label
  _atom_site_symmetry_multiplicity
  _atom_site_fract_x
  _atom_site_fract_y
  _atom_site_fract_z
  _atom_site_occupancy
  Cd  Cd1       1.0  0.25000051725623257  0.0839486045539246  0.9160476498293805  1.0000
  Cd  Cd2       1.0  0.7500015184963474  0.9160491035413397  0.08395420540288975  1.0000
  H   H1        1.0  0.1204202173216657  0.37943445859449537  0.5038822071283422  1.0000
  H   H2        1.0  0.37957813132103985  0.496121597955181  0.6205628616238243  1.0000
  H   H3        1.0  0.8795806633903851  0.6205607053734141  0.4961151269103254  1.0000
  H   H4        1.0  0.6204237299603221  0.5038810752370962  0.3794383018837096  1.0000
  H   H5        1.0  0.28030163423483856  0.3172572879425885  0.3643171116989735  1.0000
  H   H6        1.0  0.21969606194788577  0.6356774449069462  0.6827360770823603  1.0000
  H   H7        1.0  0.7196979395154983  0.6827391347461782  0.6356813243778349  1.0000
  H   H8        1.0  0.780300897879016  0.3643214952235353  0.31726456307074363  1.0000
  C   C1        1.0  0.08085317813065268  0.7169546118800056  0.03170351885889742  1.0000
  C   C2        1.0  0.4191455551554454  0.9682930379840399  0.28304488055425747  1.0000
  C   C3        1.0  0.9191476111322315  0.28304305044149897  0.9682946977224561  1.0000
  C   C4        1.0  0.5808488512200469  0.031707115093546186  0.716953222986078  1.0000
  C   C5        1.0  0.1232057389346792  0.5064911777150554  0.2693338675966502  1.0000
  C   C6        1.0  0.37679355408618403  0.7306690032154464  0.4935007790485387  1.0000
  C   C7        1.0  0.8767963052450085  0.49350649877002417  0.7306655308254977  1.0000
  C   C8        1.0  0.6232058409793808  0.26933240037542555  0.5064981937086018  1.0000
  S   S1        1.0  0.0733287406220171  0.8485559712905797  0.8479097851061895  1.0000
  S   S2        1.0  0.4266693034919981  0.15208742564016117  0.1514474455130639  1.0000
  S   S3        1.0  0.9266707458927071  0.15144293394669006  0.15208830510825072  1.0000
  S   S4        1.0  0.5733313169954926  0.8479141027499039  0.8485613079202922  1.0000
  S   S5        1.0  0.23844032706286097  0.5644630746115807  0.08354902220001757  1.0000
  S   S6        1.0  0.2615585477407406  0.9164511442575858  0.43553641825466377  1.0000
  S   S7        1.0  0.7615652637782092  0.43554085073550647  0.9164530570885888  1.0000
  S   S8        1.0  0.7384369995523629  0.0835526835859852  0.5644574347126722  1.0000
  N   N1        1.0  0.9615275512964913  0.7155249445716476  0.14960340751267157  1.0000
  N   N2        1.0  0.5384712709621483  0.8503958008178568  0.2844755859269483  1.0000
  N   N3        1.0  0.038472057644547406  0.28447026845303464  0.8503976583054469  1.0000
  N   N4        1.0  0.46153192404451454  0.14960443559966308  0.7155295620938703  1.0000
  N   N5        1.0  0.9828045295544073  0.5994091293172444  0.2844661871581168  1.0000
  N   N6        1.0  0.5171945702202619  0.7155353159578084  0.4005939765088869  1.0000
  N   N7        1.0  0.017202355607715  0.4005935847242483  0.7155384753075255  1.0000
  N   N8        1.0  0.48280360933274835  0.2844648480003257  0.5994052157437012  1.0000
  N   N9        1.0  0.17153216775191274  0.38304851401913  0.38425606809018126  1.0000
  N   N10       1.0  0.3284609387709878  0.6157373879111387  0.6169560133051492  1.0000
  N   N11       1.0  0.8284697019565568  0.6169541275629696  0.6157426386072303  1.0000
  N   N12       1.0  0.6715348097569205  0.38426029678151247  0.38304361793834135  1.0000
