data_image0
_chemical_formula_structural       Mn4H36C20N4Cl8O8
_chemical_formula_sum              "Mn4 H36 C20 N4 Cl8 O8"
_cell_length_a       6.891170743029587
_cell_length_b       9.831369248201568
_cell_length_c       12.833359521231456
_cell_angle_alpha    90.00067576577001
_cell_angle_beta     89.99998641669988
_cell_angle_gamma    89.99967615751198

_space_group_name_H-M_alt    "P 1"
_space_group_IT_number       1

loop_
  _space_group_symop_operation_xyz
  'x, y, z'

loop_
  _atom_site_type_symbol
  _atom_site_label
  _atom_site_symmetry_multiplicity
  _atom_site_fract_x
  _atom_site_fract_y
  _atom_site_fract_z
  _atom_site_occupancy
  Mn  Mn1       1.0  0.34369924829559295  0.7355397839103617  0.0014930727138704003  1.0000
  Mn  Mn2       1.0  0.15630628792511198  0.26446219702599194  0.5014902537516974  1.0000
  Mn  Mn3       1.0  0.8436999328679774  0.7644601500575874  0.998500954747975  1.0000
  Mn  Mn4       1.0  0.6563070721601818  0.23554147749328538  0.49849784195377106  1.0000
  H   H1        1.0  0.6166860883685032  0.055560215880071005  0.718601536199067  1.0000
  H   H2        1.0  0.8833150415028898  0.9444299032494995  0.21860619496859363  1.0000
  H   H3        1.0  0.11667513584688999  0.444444637734506  0.2813920270206367  1.0000
  H   H4        1.0  0.3833261176417864  0.5555596973402501  0.7813909363511655  1.0000
  H   H5        1.0  0.7245890384470499  0.14904798661017793  0.9127256928390608  1.0000
  H   H6        1.0  0.7754048847627787  0.8509461932609029  0.41272799934084503  1.0000
  H   H7        1.0  0.22457731607784132  0.3509503232513182  0.08727017267888472  1.0000
  H   H8        1.0  0.2754166327229299  0.6490570712205397  0.5872722842489537  1.0000
  H   H9        1.0  0.6495853695482052  0.2605313078939275  0.8113926400596583  1.0000
  H   H10       1.0  0.8504186860074442  0.7394612832136359  0.3113970500827605  1.0000
  H   H11       1.0  0.14957309245045988  0.2394744285140504  0.18860792536473533  1.0000
  H   H12       1.0  0.35042233307556364  0.760531503320074  0.6886086634346072  1.0000
  H   H13       1.0  0.4184952541099988  0.3185786910426388  0.9491409659146514  1.0000
  H   H14       1.0  0.08149733495955047  0.6814211540900813  0.44914494917583886  1.0000
  H   H15       1.0  0.9184876412755967  0.18141882665335626  0.0508657451774468  1.0000
  H   H16       1.0  0.5815032882597819  0.8185859542059577  0.5508678654297157  1.0000
  H   H17       1.0  0.40055704033780865  0.1450437069818733  0.9898045318820223  1.0000
  H   H18       1.0  0.0994341078729803  0.8549547414329625  0.4898131652890357  1.0000
  H   H19       1.0  0.9005350015095814  0.3549477810648867  0.010195172086469  1.0000
  H   H20       1.0  0.5994515643578281  0.6450573792619069  0.5101926304911686  1.0000
  H   H21       1.0  0.23061731922722126  0.2736502192605244  0.7912452754742958  1.0000
  H   H22       1.0  0.2693795833976226  0.7263430817483965  0.2912589463074369  1.0000
  H   H23       1.0  0.7306050418768351  0.2263551860996529  0.20875838029326843  1.0000
  H   H24       1.0  0.7693931831765184  0.7736520702199456  0.7087530275067664  1.0000
  H   H25       1.0  0.1168809408974241  0.1577018797186867  0.8791640810109057  1.0000
  H   H26       1.0  0.3831130816522688  0.8422938168562837  0.3791732884707599  1.0000
  H   H27       1.0  0.6168677356137948  0.3423060246285274  0.120838053569976  1.0000
  H   H28       1.0  0.8831203093237151  0.6576988360967275  0.6208331935595552  1.0000
  H   H29       1.0  0.2970030066245216  0.08095291066821629  0.6996339476421909  1.0000
  H   H30       1.0  0.202996775173709  0.9190297995739698  0.1996407778598623  1.0000
  H   H31       1.0  0.7969965028188993  0.419053240557723  0.3003642318568822  1.0000
  H   H32       1.0  0.7030031964840118  0.5809574863557642  0.8003642046835111  1.0000
  H   H33       1.0  0.2699155821738373  0.9785469750989078  0.8052275872941195  1.0000
  H   H34       1.0  0.23008567738769165  0.021443493569307703  0.3052287852274631  1.0000
  H   H35       1.0  0.7698990973113737  0.521456311855637  0.1947711396593732  1.0000
  H   H36       1.0  0.7301005753399182  0.4785517423476761  0.6947701953494914  1.0000
  C   C1        1.0  0.5437202687643605  0.0550961229620981  0.7947094427289585  1.0000
  C   C2        1.0  0.9562852337114265  0.9448962065325476  0.2947086271984176  1.0000
  C   C3        1.0  0.043704940023872  0.4449039431018066  0.20529505342992146  1.0000
  C   C4        1.0  0.4562890385976104  0.5550981817176465  0.7052908179088532  1.0000
  C   C5        1.0  0.6030769144865077  0.1768964514933486  0.8621334719378383  1.0000
  C   C6        1.0  0.8969169959407709  0.8230999866605659  0.36214094619876397  1.0000
  C   C7        1.0  0.103065422414879  0.32310540630503226  0.1378647710398226  1.0000
  C   C8        1.0  0.3969256369050597  0.676899729957114  0.637865531342861  1.0000
  C   C9        1.0  0.4178919931102953  0.2127315768779923  0.922213798313834  1.0000
  C   C10       1.0  0.0821034914389713  0.7872647946558757  0.4222233954755056  1.0000
  C   C11       1.0  0.9178748534657971  0.28726492610102383  0.0777866792193365  1.0000
  C   C12       1.0  0.5821131806003024  0.7127402768085744  0.5777839643876064  1.0000
  C   C13       1.0  0.2549923298012189  0.18767679937664644  0.8438351725129039  1.0000
  C   C14       1.0  0.24500893949512198  0.812317326109806  0.34384260088865665  1.0000
  C   C15       1.0  0.7549909766575525  0.3123274892138141  0.1561676960476746  1.0000
  C   C16       1.0  0.7450159419137421  0.6876789425588116  0.6561647055960691  1.0000
  C   C17       1.0  0.5791753191818075  0.9185814852676585  0.8485448446794237  1.0000
  C   C18       1.0  0.9207808583651486  0.0814177913670235  0.3485519665968368  1.0000
  C   C19       1.0  0.07920780126818269  0.581424615156223  0.1514484901978861  1.0000
  C   C20       1.0  0.42080212619487156  0.4185817511324644  0.6514414970249263  1.0000
  N   N1        1.0  0.32755954997712416  0.0702225107959009  0.7786568506827152  1.0000
  N   N2        1.0  0.17244315401374172  0.9297665241581469  0.2786622276666861  1.0000
  N   N3        1.0  0.8275485890185906  0.42977944700945164  0.2213444356701828  1.0000
  N   N4        1.0  0.6724510903445379  0.5702280066615302  0.721341985693485  1.0000
  Cl  Cl1       1.0  0.08125816626803581  0.6270384975079182  0.8905256255457132  1.0000
  Cl  Cl2       1.0  0.4187474682285456  0.37295127408309264  0.39051195732604077  1.0000
  Cl  Cl3       1.0  0.5812577788109367  0.8729614916020833  0.10947316316221391  1.0000
  Cl  Cl4       1.0  0.9187534814130486  0.12703301936069517  0.6094674809509826  1.0000
  Cl  Cl5       1.0  0.607277893549842  0.5642756477319113  0.9659544578237487  1.0000
  Cl  Cl6       1.0  0.8927305543831565  0.43572852101532783  0.46595460158111013  1.0000
  Cl  Cl7       1.0  0.10727855573458808  0.9357232179270482  0.0340458807978194  1.0000
  Cl  Cl8       1.0  0.39273134211219946  0.0642762219232509  0.534042767347465  1.0000
  O   O1        1.0  0.4304069854799338  0.844349116249262  0.863883469575548  1.0000
  O   O2        1.0  0.0696117024270535  0.1556544778196098  0.36388045583169054  1.0000
  O   O3        1.0  0.9303604148457082  0.6556636865518541  0.136112867218138  1.0000
  O   O4        1.0  0.569649400890782  0.3443515850941949  0.6361022137302328  1.0000
  O   O5        1.0  0.7525581617076966  0.8906838827228681  0.8725547734521725  1.0000
  O   O6        1.0  0.7474763830632938  0.109309667190395  0.37255051124846256  1.0000
  O   O7        1.0  0.2525048030055999  0.6093235438884649  0.1274509721817196  1.0000
  O   O8        1.0  0.2475022161511191  0.3906783775542877  0.6274445675046607  1.0000
