data_image0
_chemical_formula_structural       Mn4H20C24N8O22
_chemical_formula_sum              "Mn4 H20 C24 N8 O22"
_cell_length_a       8.587750602575658
_cell_length_b       10.49601507474878
_cell_length_c       10.650412126920923
_cell_angle_alpha    77.18358004639738
_cell_angle_beta     66.22289747612432
_cell_angle_gamma    65.84868802405302

_space_group_name_H-M_alt    "P 1"
_space_group_IT_number       1

loop_
  _space_group_symop_operation_xyz
  'x, y, z'

loop_
  _atom_site_type_symbol
  _atom_site_label
  _atom_site_symmetry_multiplicity
  _atom_site_fract_x
  _atom_site_fract_y
  _atom_site_fract_z
  _atom_site_occupancy
  Mn  Mn1       1.0  0.03727962648422061  0.3184866100042286  0.5897799516123854  1.0000
  Mn  Mn2       1.0  0.9458984767276631  0.18158706439628253  0.9100310996497644  1.0000
  Mn  Mn3       1.0  0.9627632440524603  0.6816694330971417  0.41003266165985514  1.0000
  Mn  Mn4       1.0  0.05411704594958862  0.8182441479727917  0.09011685209243579  1.0000
  H   H1        1.0  0.21005357326728086  0.33534040275007737  0.7397728319091001  1.0000
  H   H2        1.0  0.28512019715986964  0.1646808026624669  0.760434948074476  1.0000
  H   H3        1.0  0.7899595543976896  0.6646160010603597  0.2601753039665197  1.0000
  H   H4        1.0  0.7147916736168652  0.8353406923633033  0.23960662875808947  1.0000
  H   H5        1.0  0.5805982318416979  0.3518263764162911  0.3575942520775187  1.0000
  H   H6        1.0  0.29052525824989317  0.14819810502594788  0.1423332147163308  1.0000
  H   H7        1.0  0.4194691636379345  0.6482199410017844  0.6423048295970234  1.0000
  H   H8        1.0  0.709477639740562  0.8517890172810142  0.8577910294783068  1.0000
  H   H9        1.0  0.6919874558996777  0.9843778560734083  0.6083120223003463  1.0000
  H   H10       1.0  0.2849544818270786  0.5157051630305248  0.8917792087058986  1.0000
  H   H11       1.0  0.3078168757500919  0.015791362395461306  0.3917952190514527  1.0000
  H   H12       1.0  0.7151626849532987  0.4841202349642942  0.10808889084078291  1.0000
  H   H13       1.0  0.3240703752770173  0.30732443023834594  0.35571821536277787  1.0000
  H   H14       1.0  0.9874509064223815  0.19252641413761754  0.14421934905705314  1.0000
  H   H15       1.0  0.6760585042371899  0.6925859322740852  0.6442379499759741  1.0000
  H   H16       1.0  0.012536558525531896  0.8075557955952279  0.8558260765731164  1.0000
  H   H17       1.0  0.4057575778517089  0.18983733650027557  0.45753912517778883  1.0000
  H   H18       1.0  0.05334112769174475  0.31016254535553145  0.042535880835401885  1.0000
  H   H19       1.0  0.5943075717865224  0.8101422181292153  0.5424693750282188  1.0000
  H   H20       1.0  0.9467179176456707  0.689852502165657  0.9574265763082153  1.0000
  C   C1        1.0  0.8034753659948635  0.4574228224230269  0.39783819053364067  1.0000
  C   C2        1.0  0.6591269140005026  0.0425807201446489  0.10191076171828678  1.0000
  C   C3        1.0  0.19667772583441936  0.5425761711767195  0.6019544116575944  1.0000
  C   C4        1.0  0.34081937945231994  0.9574117721912219  0.8982788448434533  1.0000
  C   C5        1.0  0.7693463484090162  0.3237117264525153  0.45660692629184757  1.0000
  C   C6        1.0  0.550166155413308  0.17628081548966887  0.04311444459414565  1.0000
  C   C7        1.0  0.2307992824062381  0.6762810752977372  0.5432283480498299  1.0000
  C   C8        1.0  0.4498022011534099  0.8237389410648464  0.9570996220445807  1.0000
  C   C9        1.0  0.651240193244078  0.28480203769246515  0.426954779066712  1.0000
  C   C10       1.0  0.36347594211612494  0.21520598258296528  0.0728867744552986  1.0000
  C   C11       1.0  0.348819645873952  0.7152379959821078  0.5729424985374791  1.0000
  C   C12       1.0  0.6365309055947603  0.7847696146700757  0.9272320347523364  1.0000
  C   C13       1.0  0.7124072727098394  0.0829233639212177  0.5649021354395317  1.0000
  C   C14       1.0  0.36058780539927654  0.41712947094366387  0.9350686173595124  1.0000
  C   C15       1.0  0.2874983561635742  0.9171964516771568  0.43510576821490327  1.0000
  C   C16       1.0  0.6394849562395992  0.5827568590328623  0.06490698204118668  1.0000
  C   C17       1.0  0.8290835741569397  0.12267123211524482  0.5964519178143065  1.0000
  C   C18       1.0  0.5485435487618134  0.3774091098222599  0.9034307712926832  1.0000
  C   C19       1.0  0.17087924824981093  0.877409786372262  0.4035232422205866  1.0000
  C   C20       1.0  0.451483345594376  0.6225223878332145  0.09662144461797338  1.0000
  C   C21       1.0  0.9290956441211409  0.03774391929665201  0.692941222643441  1.0000
  C   C22       1.0  0.6598802945341332  0.4624753563353607  0.8069264186008599  1.0000
  C   C23       1.0  0.07074992684523787  0.9623184724877948  0.3071360054397728  1.0000
  C   C24       1.0  0.34009196786637813  0.5374611862023358  0.1930338193670593  1.0000
  N   N1        1.0  0.8547025806277163  0.24400999949725846  0.5429982081358347  1.0000
  N   N2        1.0  0.642186787574559  0.25601461153053146  0.9567376182660822  1.0000
  N   N3        1.0  0.14539315491634824  0.7560111417806896  0.456874468560983  1.0000
  N   N4        1.0  0.3577977544746389  0.7439862307852465  0.043441028929692004  1.0000
  N   N5        1.0  0.6201095535356559  0.16591475353349952  0.4829241220745218  1.0000
  N   N6        1.0  0.269314636155393  0.3341292412748729  0.01705200878780741  1.0000
  N   N7        1.0  0.3798659815934469  0.8341725221038843  0.5170400359084866  1.0000
  N   N8        1.0  0.7307377572389554  0.6657875363764421  0.9829684989206342  1.0000
  O   O1        1.0  0.9054323853140075  0.482811139346012  0.44244859712876655  1.0000
  O   O2        1.0  0.8310515197481152  0.017218353643649202  0.05759276122607567  1.0000
  O   O3        1.0  0.09467499020642804  0.5172496082400005  0.5573427390107853  1.0000
  O   O4        1.0  0.16891770699987743  0.982705079434524  0.9426083000151522  1.0000
  O   O5        1.0  0.7301831813753026  0.5330489570520245  0.3127398153810645  1.0000
  O   O6        1.0  0.5763867409970304  0.9668433546256453  0.18683009443023482  1.0000
  O   O7        1.0  0.2699645475196703  0.4669207172856461  0.6870471020984042  1.0000
  O   O8        1.0  0.4235324138477949  0.03316272877463429  0.8133513981740422  1.0000
  O   O9        1.0  0.012207742671435278  0.09928760604382351  0.7208052279084215  1.0000
  O   O10       1.0  0.8324468729159803  0.4009639932530433  0.7787802273271256  1.0000
  O   O11       1.0  0.9873990835268244  0.9008515660888536  0.2794486115514231  1.0000
  O   O12       1.0  0.1675539082185722  0.5988809167000114  0.2209047348981414  1.0000
  O   O13       1.0  0.9253465756938227  0.9173515176761313  0.7375105376413273  1.0000
  O   O14       1.0  0.5801000086659585  0.5829670726135417  0.762658019210207  1.0000
  O   O15       1.0  0.07460819932784085  0.08265507615075052  0.2624118544696543  1.0000
  O   O16       1.0  0.4197776449891533  0.41705990866177  0.23750544960361006  1.0000
  O   O17       1.0  0.17703682054286665  0.25000498704813623  0.7500467584977742  1.0000
  O   O18       1.0  0.8228824458546524  0.7499902617734693  0.2499568437122335  1.0000
  O   O19       1.0  0.29526677365895165  0.2342358175773357  0.43056996170356854  1.0000
  O   O20       1.0  0.9603594148116629  0.26569717611100435  0.06941791257052195  1.0000
  O   O21       1.0  0.7048518945794623  0.7656860410112359  0.5693775353273551  1.0000
  O   O22       1.0  0.039630449549569714  0.7343629879597415  0.9305961228178249  1.0000
