data_image0
_chemical_formula_structural       Hg2H38C52Br4N8Cl24
_chemical_formula_sum              "Hg2 H38 C52 Br4 N8 Cl24"
_cell_length_a       10.810889832096164
_cell_length_b       11.671639822942023
_cell_length_c       16.1584
_cell_angle_alpha    104.59618652204162
_cell_angle_beta     95.90218028927883
_cell_angle_gamma    101.06910470084028

_space_group_name_H-M_alt    "P 1"
_space_group_IT_number       1

loop_
  _space_group_symop_operation_xyz
  'x, y, z'

loop_
  _atom_site_type_symbol
  _atom_site_label
  _atom_site_symmetry_multiplicity
  _atom_site_fract_x
  _atom_site_fract_y
  _atom_site_fract_z
  _atom_site_occupancy
  Hg  Hg1       1.0  0.826609175061435  0.8706106792295786  0.03514941257433431  1.0000
  Hg  Hg2       1.0  0.17338911351630062  0.1293895644592027  0.9648510710253361  1.0000
  H   H1        1.0  0.5787779823214976  0.5756018178204982  0.5011414803437475  1.0000
  H   H2        1.0  0.42122058781722416  0.4243956990262348  0.4988579073873609  1.0000
  H   H3        1.0  0.8922636548119273  0.8808108864101456  0.5951534525081996  1.0000
  H   H4        1.0  0.1077374889747205  0.1191857214892309  0.4048459468327649  1.0000
  H   H5        1.0  0.8243187640462821  0.8470389475584242  0.4244560260946102  1.0000
  H   H6        1.0  0.1756805198946623  0.1529576603409524  0.5755426264169614  1.0000
  H   H7        1.0  0.4500322748394439  0.5419407705456791  0.18063062118193327  1.0000
  H   H8        1.0  0.5499650838154436  0.45805947314310913  0.8193704173127684  1.0000
  H   H9        1.0  0.2626716176989632  0.35123270879469  0.1751574113324423  1.0000
  H   H10       1.0  0.737325524835299  0.6487666259467417  0.824842209091443  1.0000
  H   H11       1.0  0.7147166747020606  0.5379886674605672  0.21548259333494002  1.0000
  H   H12       1.0  0.2852834737213712  0.4620115762282211  0.7845173993478198  1.0000
  H   H13       1.0  0.8023076372740122  0.6321801546732573  0.10478043714650201  1.0000
  H   H14       1.0  0.19769344107226766  0.36782008901552393  0.8952202383875303  1.0000
  H   H15       1.0  0.6974284138797914  0.9540538640086424  0.21320996654188207  1.0000
  H   H16       1.0  0.3025724483458703  0.0459454707327964  0.7867905286676447  1.0000
  H   H17       1.0  0.6114896230507582  0.8755208128233606  0.33059242706928416  1.0000
  H   H18       1.0  0.38851052537267344  0.12447943086542071  0.6694075656134686  1.0000
  H   H19       1.0  0.702117611586793  0.9037799859871357  0.7781787638475065  1.0000
  H   H20       1.0  0.2978823207160133  0.0962193487542962  0.2218216673838995  1.0000
  H   H21       1.0  0.8720014492466531  0.05741275052160691  0.889133348707766  1.0000
  H   H22       1.0  0.12799755313331218  0.9425865842198249  0.11086763741867134  1.0000
  H   H23       1.0  0.14739836268309858  0.8647879624947095  0.8198727186954001  1.0000
  H   H24       1.0  0.8526020018609586  0.1352131901414282  0.1801280731850241  1.0000
  H   H25       1.0  0.9914437065135359  0.7072246659227872  0.701387746345965  1.0000
  H   H26       1.0  0.0085575879533693  0.2927764867133504  0.29861249063942097  1.0000
  H   H27       1.0  0.5652595103416331  0.18227030348533194  0.009659735069526203  1.0000
  H   H28       1.0  0.4347397081589506  0.8177299402034565  0.9903395747619538  1.0000
  H   H29       1.0  0.7863734931846551  0.2281648731664276  0.9680875474768198  1.0000
  H   H30       1.0  0.2136255091953103  0.7718344615750041  0.03191158203014769  1.0000
  H   H31       1.0  0.1954805026792457  0.7224877098522171  0.2315528998796665  1.0000
  H   H32       1.0  0.8045211585885285  0.2775188964680311  0.7684477362014945  1.0000
  H   H33       1.0  0.2002886341145782  0.5516837772083534  0.2953499129558637  1.0000
  H   H34       1.0  0.7997135248348003  0.4483210112171889  0.7046498075812478  1.0000
  H   H35       1.0  0.7093125827620739  0.2863565915684276  0.48071146148185306  1.0000
  H   H36       1.0  0.2906862034972661  0.7136418342256547  0.5192868688274572  1.0000
  H   H37       1.0  0.5263150518734179  0.2839987821381627  0.3740318886323307  1.0000
  H   H38       1.0  0.4736867402750916  0.7160005526032691  0.6259674328090057  1.0000
  C   C1        1.0  0.7327293369350798  0.7190727946519502  0.5768518623025328  1.0000
  C   C2        1.0  0.26726994700587176  0.2809238132474263  0.42314802795534934  1.0000
  C   C3        1.0  0.8158979704225686  0.8110600845368197  0.5515028673168274  1.0000
  C   C4        1.0  0.1841003835955348  0.1889365233625639  0.4484963400897755  1.0000
  C   C5        1.0  0.7804463634425929  0.7943163653714933  0.4644794236947973  1.0000
  C   C6        1.0  0.21955248825711496  0.20567842463318442  0.535518868167756  1.0000
  C   C7        1.0  0.6729155631418279  0.6925669809295698  0.4338682688758127  1.0000
  C   C8        1.0  0.3270830069969008  0.3074305359171632  0.5661304999821368  1.0000
  C   C9        1.0  0.6061144608263546  0.64337384130922  0.3491399352214443  1.0000
  C   C10       1.0  0.3938826817079146  0.3566254934322188  0.6508590663292823  1.0000
  C   C11       1.0  0.5002886889523097  0.5432769231526464  0.3211438831913469  1.0000
  C   C12       1.0  0.4997086697025778  0.4567233205361347  0.6788552986838923  1.0000
  C   C13       1.0  0.4301311907967715  0.5019279991773118  0.23296848873791018  1.0000
  C   C14       1.0  0.5698670977809641  0.4980722445114765  0.7670313759886013  1.0000
  C   C15       1.0  0.3349448268798199  0.4051287420126428  0.23013316726918018  1.0000
  C   C16       1.0  0.6650525317750677  0.5948715016761454  0.7698672523523697  1.0000
  C   C17       1.0  0.3470642410282494  0.3888304070496389  0.3168709962230025  1.0000
  C   C18       1.0  0.6529321877037901  0.6111698366391423  0.6831299782935787  1.0000
  C   C19       1.0  0.735589009926983  0.7026472070597194  0.6599483509822619  1.0000
  C   C20       1.0  0.2644118522986716  0.2973521276817195  0.3400521442272647  1.0000
  C   C21       1.0  0.6560892895849832  0.6990777708096658  0.28253055545710737  1.0000
  C   C22       1.0  0.3439097127949751  0.3009215639317731  0.7174691929230191  1.0000
  C   C23       1.0  0.7097739625118678  0.6307376552261417  0.21748024558544188  1.0000
  C   C24       1.0  0.2902271158344121  0.3692625884626466  0.7825204299485975  1.0000
  C   C25       1.0  0.7580303271898926  0.6824485790106536  0.15557089382311767  1.0000
  C   C26       1.0  0.24197053503576882  0.3175507557307853  0.84442898251325  1.0000
  C   C27       1.0  0.7017710704027137  0.862817364636264  0.21688067403390923  1.0000
  C   C28       1.0  0.2982309378664141  0.1371828790525242  0.7831206843514024  1.0000
  C   C29       1.0  0.6532749327355916  0.8184089238751612  0.28211785038835296  1.0000
  C   C30       1.0  0.3467261456106883  0.1815913198136201  0.7178822062725274  1.0000
  C   C31       1.0  0.8335583562515794  0.7932619864435395  0.7295578168972696  1.0000
  C   C32       1.0  0.16644343589692312  0.20673734829789234  0.2704427422903776  1.0000
  C   C33       1.0  0.8000128731941415  0.8925063119842349  0.7840103812248813  1.0000
  C   C34       1.0  0.1999879890315128  0.1074930227571969  0.2159901139846454  1.0000
  C   C35       1.0  0.8939918932120108  0.9779819030416519  0.8462285244206383  1.0000
  C   C36       1.0  0.1060059631244883  0.0220165227524305  0.1537722174031728  1.0000
  C   C37       1.0  0.048203516757695276  0.8712060397449335  0.806908801558663  1.0000
  C   C38       1.0  0.9517968477863619  0.1287951128912042  0.19309199032175428  1.0000
  C   C39       1.0  0.9606452853825117  0.783073595578543  0.7417114823559885  1.0000
  C   C40       1.0  0.0393569390072344  0.2169275570575877  0.2582888186075181  1.0000
  C   C41       1.0  0.6210076557675066  0.2749856601988938  0.019018288073702577  1.0000
  C   C42       1.0  0.3789915627330771  0.7250145834898944  0.9809816406309295  1.0000
  C   C43       1.0  0.7117519210856784  0.2747493338874563  0.9524748309024247  1.0000
  C   C44       1.0  0.2882475135355236  0.7252518187486814  0.04752527812672008  1.0000
  C   C45       1.0  0.1677358687676076  0.7270815297676165  0.295546146517033  1.0000
  C   C46       1.0  0.8322648625773184  0.2729250765526317  0.7044538067128485  1.0000
  C   C47       1.0  0.1206997131916978  0.5975928900470748  0.3014653037290742  1.0000
  C   C48       1.0  0.8793026618783059  0.4024128073258169  0.6985352160056948  1.0000
  C   C49       1.0  0.7102195592258056  0.2530673037604458  0.41098699163578095  1.0000
  C   C50       1.0  0.2897837457670391  0.7469383936124531  0.5890117354576532  1.0000
  C   C51       1.0  0.5727200363088443  0.2067991567178069  0.3637678622988004  1.0000
  C   C52       1.0  0.4272787499505029  0.7931992690762755  0.6362310868836616  1.0000
  Br  Br1       1.0  0.6540472180271378  0.976247631494644  0.9985217806808392  1.0000
  Br  Br2       1.0  0.3459517843528204  0.0237517032467878  0.001478586572439192  1.0000
  Br  Br3       1.0  0.9564462342219714  0.7206480004124174  0.9736675470325551  1.0000
  Br  Br4       1.0  0.0435539142014605  0.2793522432763709  0.0263324456502048  1.0000
  N   N1        1.0  0.6478625042319308  0.6500855085540351  0.5038682436909099  1.0000
  N   N2        1.0  0.3521367797090207  0.3499110993453485  0.4961310276938136  1.0000
  N   N3        1.0  0.4476249898569407  0.474062400216809  0.3714510274636211  1.0000
  N   N4        1.0  0.5523749424458728  0.5259369345246228  0.6285487848946261  1.0000
  N   N5        1.0  0.7534247833829611  0.7963505895445593  0.15505607235080987  1.0000
  N   N6        1.0  0.2465772248861668  0.20364965414422898  0.844944667161343  1.0000
  N   N7        1.0  0.015613975683791565  0.9674935595506042  0.8574096023452354  1.0000
  N   N8        1.0  0.9843859566190148  0.0325057751908346  0.14259082888616348  1.0000
  Cl  Cl1       1.0  0.5106773919361913  0.3669002342956205  0.010983242370720273  1.0000
  Cl  Cl2       1.0  0.4893218265643852  0.6331000093931607  0.9890160674607599  1.0000
  Cl  Cl3       1.0  0.7140333168130367  0.3197076877963241  0.12431193737010905  1.0000
  Cl  Cl4       1.0  0.2859649717646917  0.6802925558924642  0.8756879273564094  1.0000
  Cl  Cl5       1.0  0.7896246654400585  0.42241782958897295  0.9514957219675182  1.0000
  Cl  Cl6       1.0  0.21037433693989976  0.5775815051524589  0.048504026412608404  1.0000
  Cl  Cl7       1.0  0.6259308501261032  0.1886038486318427  0.8477449741025183  1.0000
  Cl  Cl8       1.0  0.3740665085287844  0.8113963950569385  0.15225420777271378  1.0000
  Cl  Cl9       1.0  0.05064518441193397  0.8150112786745751  0.3073982128712061  1.0000
  Cl  Cl10      1.0  0.9493590505037658  0.1849944186983166  0.6926042914392737  1.0000
  Cl  Cl11      1.0  0.3087541810633567  0.7986420458181486  0.3728823987811509  1.0000
  Cl  Cl12      1.0  0.6912473295241668  0.2013600157653457  0.6271173996555887  1.0000
  Cl  Cl13      1.0  0.07000694521505578  0.5929236275014915  0.4019605077632845  1.0000
  Cl  Cl14      1.0  0.9299944999321  0.4070820698714073  0.5980399479933708  1.0000
  Cl  Cl15      1.0  0.998343407557094  0.5154349568232988  0.21328849974931066  1.0000
  Cl  Cl16      1.0  0.0016564593053516082  0.4845680137075449  0.7867113510557004  1.0000
  Cl  Cl17      1.0  0.7864965606541006  0.378881069338135  0.37727719609964067  1.0000
  Cl  Cl18      1.0  0.2135057291760205  0.6211164475085909  0.6227236852902606  1.0000
  Cl  Cl19      1.0  0.798966804392009  0.138392687977607  0.3977842945037295  1.0000
  Cl  Cl20      1.0  0.2010331933511722  0.8616030109744129  0.6022154794077607  1.0000
  Cl  Cl21      1.0  0.5614513666175897  0.1460460246787676  0.2505449503506724  1.0000
  Cl  Cl22      1.0  0.4385483495646056  0.8539524011153148  0.7494522061904404  1.0000
  Cl  Cl23      1.0  0.48846240895272075  0.09851444081729001  0.4105672224303518  1.0000
  Cl  Cl24      1.0  0.5115384532729337  0.9014848939241418  0.5894314161597052  1.0000
