data_image0
_chemical_formula_structural       Na4H40C36S4N8O20F12
_chemical_formula_sum              "Na4 H40 C36 S4 N8 O20 F12"
_cell_length_a       4.892466252
_cell_length_b       6.325785418
_cell_length_c       40.456
_cell_angle_alpha    90.0
_cell_angle_beta     90.0
_cell_angle_gamma    90.0

_space_group_name_H-M_alt    "P 1"
_space_group_IT_number       1

loop_
  _space_group_symop_operation_xyz
  'x, y, z'

loop_
  _atom_site_type_symbol
  _atom_site_label
  _atom_site_symmetry_multiplicity
  _atom_site_fract_x
  _atom_site_fract_y
  _atom_site_fract_z
  _atom_site_occupancy
  Na  Na1       1.0  0.6830788048121619  0.4902916863374358  0.4883826873640515  1.0000
  Na  Na2       1.0  0.8169254102399036  0.5097121996622249  0.9883834289104243  1.0000
  Na  Na3       1.0  0.3169240052225533  0.9902896772588577  0.0116165710895757  1.0000
  Na  Na4       1.0  0.1830753558358964  0.0097110470780777  0.5116175598180774  1.0000
  H   H1        1.0  0.159688377958787  0.6470943494782944  0.4554656911212192  1.0000
  H   H2        1.0  0.3403109830996556  0.35290953652136653  0.9554661854854629  1.0000
  H   H3        1.0  0.840312388117013  0.1470900352314146  0.0445338145145371  1.0000
  H   H4        1.0  0.6596918269350596  0.8529075274427811  0.5445343088787808  1.0000
  H   H5        1.0  0.1432324647540568  0.4097182924708562  0.44507168281590026  1.0000
  H   H6        1.0  0.3567689402633007  0.5902840126974382  0.9450721771801439  1.0000
  H   H7        1.0  0.8567703452806582  0.9097131217295455  0.0549273284556051  1.0000
  H   H8        1.0  0.6432359137303222  0.09028286011329101  0.5549283171840996  1.0000
  H   H9        1.0  0.8616288356157255  0.15684534558772611  0.3928972216729321  1.0000
  H   H10       1.0  0.6383712915185171  0.8431585404119346  0.8928964801265593  1.0000
  H   H11       1.0  0.1383739744189825  0.656843336509141  0.1071032726913188  1.0000
  H   H12       1.0  0.36163356247510586  0.3431573878277874  0.607102531144946  1.0000
  H   H13       1.0  0.7896467345933544  0.3826860761213382  0.3537396183508008  1.0000
  H   H14       1.0  0.7103533925408883  0.6173193907096888  0.8537386296223061  1.0000
  H   H15       1.0  0.2103560754413536  0.8826809053800275  0.1462608760134501  1.0000
  H   H16       1.0  0.2896535054116498  0.11732139978827412  0.6462606288313211  1.0000
  H   H17       1.0  0.9290978753592396  0.9187523154772919  0.3482333893612831  1.0000
  H   H18       1.0  0.5708981638571728  0.0812547321851014  0.8482348724540215  1.0000
  H   H19       1.0  0.0708967588398224  0.41875116289314473  0.1517673521850895  1.0000
  H   H20       1.0  0.4291066901364502  0.5812574656006149  0.6517638916353548  1.0000
  H   H21       1.0  0.1416524845146725  0.6242639828981922  0.3797023927229617  1.0000
  H   H22       1.0  0.35834074466703203  0.3757462264269265  0.8797023927229616  1.0000
  H   H23       1.0  0.8583462376022125  0.1242644111454112  0.1202981016412892  1.0000
  H   H24       1.0  0.6416681972444208  0.8757457981797147  0.6202966185485437  1.0000
  H   H25       1.0  0.68871195557508  0.8053213416794378  0.409500692109944  1.0000
  H   H26       1.0  0.8112943034359006  0.1946825443202229  0.9094992090172055  1.0000
  H   H27       1.0  0.311294942377458  0.3053186082639243  0.0905005438006725  1.0000
  H   H28       1.0  0.1887105505577225  0.694682116073004  0.5905000494364216  1.0000
  H   H29       1.0  0.3513565370629337  0.9190906133895069  0.4097859402807984  1.0000
  H   H30       1.0  0.1486448679544239  0.0809085301160621  0.9097859402807984  1.0000
  H   H31       1.0  0.6486462729717744  0.41909262246808515  0.0902135653549507  1.0000
  H   H32       1.0  0.8513599860392063  0.5809096827002094  0.5902135653549507  1.0000
  H   H33       1.0  0.7349136028337782  0.5459069146060003  0.3017683409135827  1.0000
  H   H34       1.0  0.7650844803415493  0.45408748640547  0.801767599367217  1.0000
  H   H35       1.0  0.265087163242022  0.04590260035912051  0.198232153450661  1.0000
  H   H36       1.0  0.23491628573425058  0.9540902198209835  0.698232153450661  1.0000
  H   H37       1.0  0.524682208886091  0.8396743880824431  0.2707684892228599  1.0000
  H   H38       1.0  0.9753179182481587  0.1603105279408297  0.7707694779513544  1.0000
  H   H39       1.0  0.47532060114862407  0.3396684930041971  0.22923249950563468  1.0000
  H   H40       1.0  0.0246767159509034  0.6603180038504419  0.7292305220486455  1.0000
  C   C1        1.0  0.4717498049284429  0.2589133035305906  0.3804014237690296  1.0000
  C   C2        1.0  0.0282556880067375  0.7410874208063447  0.8804011765869078  1.0000
  C   C3        1.0  0.5282550490651801  0.7589128752833716  0.1195988234130922  1.0000
  C   C4        1.0  0.9717512099458004  0.2410894298849229  0.6195980818667195  1.0000
  C   C5        1.0  0.1056481482705607  0.8367292992485745  0.3381283369586683  1.0000
  C   C6        1.0  0.394349168828974  0.16327300591972  0.8381298200514137  1.0000
  C   C7        1.0  0.8943505738463314  0.33673288915852595  0.16187215740557548  1.0000
  C   C8        1.0  0.6056577291235641  0.6632741585038673  0.6618696855843353  1.0000
  C   C9        1.0  0.45421468141790194  0.5676559925321172  0.3429130413288489  1.0000
  C   C10       1.0  0.0457826356816327  0.4323463126361774  0.8429127941467272  1.0000
  C   C11       1.0  0.5457840406989901  0.06765483994796992  0.1570872058532728  1.0000
  C   C12       1.0  0.9542201743530824  0.9323458843889584  0.6570867114890219  1.0000
  C   C13       1.0  0.2147669387745808  0.8994472028421896  0.3077845066244791  1.0000
  C   C14       1.0  0.2852303783249468  0.100548779000647  0.8077864840814684  1.0000
  C   C15       1.0  0.7852297393833894  0.3994428885953099  0.1922167292861374  1.0000
  C   C16       1.0  0.7147622119152003  0.6005530932475267  0.6922130215542808  1.0000
  C   C17       1.0  0.2235436983449617  0.6709870347359939  0.3557637927625095  1.0000
  C   C18       1.0  0.2764536187545659  0.3290152704323077  0.8557642871267532  1.0000
  C   C19       1.0  0.7764570677308384  0.1709874629832058  0.14423645441961946  1.0000
  C   C20       1.0  0.7235471473212343  0.829016423016455  0.644234971326874  1.0000
  C   C21       1.0  0.5687499630401119  0.9495105513552247  0.4140134961439585  1.0000
  C   C22       1.0  0.9312481201352156  0.050493334644443215  0.9140130017797076  1.0000
  C   C23       1.0  0.431250803035688  0.4495078179397042  0.0859867510381633  1.0000
  C   C24       1.0  0.06875468989949239  0.5504944872285905  0.5859862566739196  1.0000
  C   C25       1.0  0.5598771374008464  0.6290175428141609  0.3120731164722201  1.0000
  C   C26       1.0  0.9401250336923113  0.3709752773659432  0.8120728692900911  1.0000
  C   C27       1.0  0.4401256726338687  0.1290163902300137  0.1879278722562816  1.0000
  C   C28       1.0  0.059875732383488894  0.8709764299500904  0.6879271307099089  1.0000
  C   C29       1.0  0.4410985970762269  0.7935520521635271  0.2946368894601576  1.0000
  C   C30       1.0  0.0588966760643856  0.2064423488479434  0.7946381253707742  1.0000
  C   C31       1.0  0.5588980810817432  0.2935461570852809  0.2053631105398424  1.0000
  C   C32       1.0  0.9411000020935844  0.7064450822634569  0.705361627447104  1.0000
  C   C33       1.0  0.1007222072913763  0.0821700335457081  0.28899421593830243  1.0000
  C   C34       1.0  0.3992771537670663  0.9178180441403045  0.7889976764880372  1.0000
  C   C35       1.0  0.8992765148255158  0.5821680244671228  0.2110065256080702  1.0000
  C   C36       1.0  0.600707260637428  0.4178279573757138  0.7110025706940846  1.0000
  S   S1        1.0  0.6047195519827184  0.9985179045161203  0.45785890844373967  1.0000
  S   S2        1.0  0.8952683113980555  0.0014875623149067003  0.957857919715245  1.0000
  S   S3        1.0  0.3952689503396059  0.4985135902692406  0.0421415859205041  1.0000
  S   S4        1.0  0.1047344986366596  0.5014871340676876  0.5421410915562603  1.0000
  N   N1        1.0  0.6569733615814002  0.12162600359644672  0.3939178366620553  1.0000
  N   N2        1.0  0.8430267655528425  0.8783778824032213  0.8939168479335606  1.0000
  N   N3        1.0  0.3430314924122229  0.6216239945178614  0.1060829048843175  1.0000
  N   N4        1.0  0.1569780884407805  0.3783798914817993  0.6060824105200737  1.0000
  N   N5        1.0  0.5919366329437921  0.4095112035619763  0.36042144552106237  1.0000
  N   N6        1.0  0.9080594062726276  0.5904926824376844  0.8604207039746896  1.0000
  N   N7        1.0  0.4080682210498381  0.9095076136520319  0.1395788016610666  1.0000
  N   N8        1.0  0.0919454477209953  0.09049311068490341  0.6395785544789375  1.0000
  O   O1        1.0  0.4574196089927368  0.19610213088641612  0.4657961736207241  1.0000
  O   O2        1.0  0.0425674883122298  0.8039049167759772  0.9657959264386021  1.0000
  O   O3        1.0  0.5425668493706794  0.6960953793137323  0.034203579197154  1.0000
  O   O4        1.0  0.9574353217224781  0.3039037641918299  0.5342033320150321  1.0000
  O   O5        1.0  0.47196237665534807  0.8117063195645713  0.4731918627644873  1.0000
  O   O6        1.0  0.0280267646085335  0.1882991472664557  0.9731908740359927  1.0000
  O   O7        1.0  0.5280240817080681  0.3117035861490578  0.0268083844176417  1.0000
  O   O8        1.0  0.9719760454261817  0.6882971381878775  0.5268076428712689  1.0000
  O   O9        1.0  0.22019569364624658  0.24631407754780105  0.38479829938698623  1.0000
  O   O10       1.0  0.279801623453281  0.7536882276204935  0.8847978050227424  1.0000
  O   O11       1.0  0.7798091603473762  0.7463120684692157  0.11520219497725749  1.0000
  O   O12       1.0  0.7202011865814271  0.2536886558677125  0.6152017006130137  1.0000
  O   O13       1.0  0.8977496775178578  0.012929619738173404  0.4644952541032268  1.0000
  O   O14       1.0  0.6022402298218239  0.9870790087555861  0.9644935238283593  1.0000
  O   O15       1.0  0.10223882480446629  0.5129244489968556  0.0355059818073968  1.0000
  O   O16       1.0  0.3977605362539762  0.4870762753400726  0.5355049930789022  1.0000
  O   O17       1.0  0.0329220462040283  0.5377766988933956  0.4475281787621128  1.0000
  O   O18       1.0  0.4670814027722371  0.4622256062749059  0.9475299090369802  1.0000
  O   O19       1.0  0.9670807638306798  0.0377723846465159  0.0524700909630198  1.0000
  O   O20       1.0  0.5329234512213858  0.9622251780276869  0.5524710796915144  1.0000
  F   F1        1.0  0.0039427967422583  0.0265073803361844  0.2583186671939899  1.0000
  F   F2        1.0  0.4960953995355197  0.9734870206752859  0.7583238580185848  1.0000
  F   F3        1.0  0.9960416176622429  0.5265022095948666  0.24168232153450475  1.0000
  F   F4        1.0  0.5038951467457125  0.4734921914166037  0.741676389163537  1.0000
  F   F5        1.0  0.29456718263735837  0.2350174566101586  0.2834125964010282  1.0000
  F   F6        1.0  0.2054260465443463  0.7649832677267696  0.7834125964010283  1.0000
  F   F7        1.0  0.7054397153151795  0.7350217708570383  0.2165866620525989  1.0000
  F   F8        1.0  0.7945481480655869  0.2649868576367211  0.7165878979632225  1.0000
  F   F9        1.0  0.8885723020006253  0.17937377337702293  0.3050501779711325  1.0000
  F   F10       1.0  0.6114032976266728  0.8206064001521582  0.805056851888473  1.0000
  F   F11       1.0  0.1114366399108278  0.6793638601416135  0.1949515523037348  1.0000
  F   F12       1.0  0.3885831607367436  0.32061631338756774  0.6949436424757778  1.0000
