data_image0
_chemical_formula_structural       Ag8H16C20S4N8O28
_chemical_formula_sum              "Ag8 H16 C20 S4 N8 O28"
_cell_length_a       5.473704082501654
_cell_length_b       9.4983392224702
_cell_length_c       19.013640141122252
_cell_angle_alpha    90.00029431128903
_cell_angle_beta     89.99965956171683
_cell_angle_gamma    99.39648299791939

_space_group_name_H-M_alt    "P 1"
_space_group_IT_number       1

loop_
  _space_group_symop_operation_xyz
  'x, y, z'

loop_
  _atom_site_type_symbol
  _atom_site_label
  _atom_site_symmetry_multiplicity
  _atom_site_fract_x
  _atom_site_fract_y
  _atom_site_fract_z
  _atom_site_occupancy
  Ag  Ag1       1.0  0.7446685035846342  0.6016907994876916  0.5202108565329695  1.0000
  Ag  Ag2       1.0  0.2553290780892821  0.8983102078735494  0.0202127222170887  1.0000
  Ag  Ag3       1.0  0.25532742375852274  0.39831081532550877  0.47978794533283053  1.0000
  Ag  Ag4       1.0  0.7446670882632419  0.10168502686390468  0.9797902871461303  1.0000
  Ag  Ag5       1.0  0.7300155922854756  0.2043794203898058  0.5234454102016386  1.0000
  Ag  Ag6       1.0  0.2699871784924709  0.2956209515304024  0.0234459368971116  1.0000
  Ag  Ag7       1.0  0.2699818755351657  0.7956137019097509  0.47655286571378497  1.0000
  Ag  Ag8       1.0  0.7300179119318527  0.7043807703910898  0.9765533908989423  1.0000
  H   H1        1.0  0.5151808159762865  0.5616753253488367  0.1532660182036452  1.0000
  H   H2        1.0  0.48482727121101715  0.9383269936253239  0.6532675722187449  1.0000
  H   H3        1.0  0.4848331719523954  0.4383254367525564  0.8467317317686636  1.0000
  H   H4        1.0  0.5151725869524383  0.06167573095407869  0.34673228152142593  1.0000
  H   H5        1.0  0.7471466718258242  0.4355314299690247  0.2226290143682235  1.0000
  H   H6        1.0  0.25286388295850054  0.06447187643446027  0.7226347613538451  1.0000
  H   H7        1.0  0.25286025122483835  0.5644703133690783  0.7773692615498007  1.0000
  H   H8        1.0  0.7471372766133867  0.9355287357368952  0.27736719613535843  1.0000
  H   H9        1.0  0.19825157504397586  0.743857219003864  0.3256901154094507  1.0000
  H   H10       1.0  0.8017351228040821  0.7561314971048742  0.825689067514304  1.0000
  H   H11       1.0  0.8017453881537548  0.2561412164614012  0.6743060567603081  1.0000
  H   H12       1.0  0.19826027333954235  0.24386798387448033  0.1743107862256892  1.0000
  H   H13       1.0  0.2275179862503691  0.7062205439284452  0.1957075668817438  1.0000
  H   H14       1.0  0.7724794001457128  0.7937788377253339  0.6957087702498725  1.0000
  H   H15       1.0  0.7724865730203302  0.2937790441362437  0.8042875534063256  1.0000
  H   H16       1.0  0.22751809420564933  0.2062217315967274  0.30429160942786376  1.0000
  C   C1        1.0  0.6275192652737828  0.5003822995601153  0.2485874093187377  1.0000
  C   C2        1.0  0.37248479404428986  0.9996186963723869  0.74858774017153  1.0000
  C   C3        1.0  0.37248372694281057  0.4996183340186632  0.7514113925395662  1.0000
  C   C4        1.0  0.6275127003162523  0.0003818729450841998  0.2514115876297751  1.0000
  C   C5        1.0  0.6154857888543146  0.5123173241211774  0.3205152716770314  1.0000
  C   C6        1.0  0.38451465093991277  0.9876821445510583  0.8205197583905316  1.0000
  C   C7        1.0  0.3845135381371562  0.4876832666106095  0.6794824783080244  1.0000
  C   C8        1.0  0.6154841448152979  0.012316312365250296  0.17948325097445658  1.0000
  C   C9        1.0  0.46762188047509307  0.6073834793132916  0.352327948328373  1.0000
  C   C10       1.0  0.5323709125727802  0.8926098013043882  0.8523271981928814  1.0000
  C   C11       1.0  0.532374046863481  0.39261813550219665  0.6476713794756463  1.0000
  C   C12       1.0  0.46762551939787034  0.10738650034080877  0.1476731814803713  1.0000
  C   C13       1.0  0.3224951746236612  0.6755731441615322  0.30451301634266054  1.0000
  C   C14       1.0  0.6774960893079296  0.8244175637570377  0.8045165694467542  1.0000
  C   C15       1.0  0.6775015229926707  0.32442422437762264  0.695481578011325  1.0000
  C   C16       1.0  0.32250297203786715  0.17558196008078394  0.1954869658575689  1.0000
  C   C17       1.0  0.33632411608445517  0.6559570911137766  0.23328148482763572  1.0000
  C   C18       1.0  0.6636739158168081  0.844040506157327  0.7332798529114726  1.0000
  C   C19       1.0  0.6636786105277748  0.34404247555037404  0.766718368905984  1.0000
  C   C20       1.0  0.33632384413431987  0.1559611300816641  0.2667200008291672  1.0000
  S   S1        1.0  0.7771477041761796  0.4008641190228416  0.3712685508361986  1.0000
  S   S2        1.0  0.2228523941249634  0.09913826556128667  0.8712686537631456  1.0000
  S   S3        1.0  0.2228440267193648  0.5991353191209967  0.6287328807216355  1.0000
  S   S4        1.0  0.7771419661778648  0.9008643947591108  0.1287322518582457  1.0000
  N   N1        1.0  0.49121432511915225  0.5713527285463513  0.2066235357327741  1.0000
  N   N2        1.0  0.5087891653046909  0.9286500134547349  0.7066297561797086  1.0000
  N   N3        1.0  0.5087928635450467  0.4286500817017893  0.793372636433503  1.0000
  N   N4        1.0  0.4912119942442529  0.07135059872810247  0.29337483100058387  1.0000
  N   N5        1.0  0.8282458659474016  0.9138916304010463  0.42916022951379057  1.0000
  N   N6        1.0  0.1717542442518649  0.5861077412948957  0.9291588118933233  1.0000
  N   N7        1.0  0.1717573918460005  0.08611007010613747  0.5708406760985056  1.0000
  N   N8        1.0  0.8282487479647216  0.4138928922838828  0.0708399899649805  1.0000
  O   O1        1.0  0.9381868374876202  0.49751876087350416  0.4198184140704555  1.0000
  O   O2        1.0  0.06181398024418169  0.0024830021035668996  0.9198222376479706  1.0000
  O   O3        1.0  0.06180829307000824  0.5024796531820355  0.5801803877919767  1.0000
  O   O4        1.0  0.9381877105088845  0.9975197439108141  0.0801807717199168  1.0000
  O   O5        1.0  0.9152954321517368  0.3254234007267128  0.32287307574686247  1.0000
  O   O6        1.0  0.0847154708391784  0.174581869216837  0.8228783484093255  1.0000
  O   O7        1.0  0.08469706899402499  0.6745717911545626  0.6771267779902387  1.0000
  O   O8        1.0  0.9152854231191724  0.8254176760444807  0.177125712831625  1.0000
  O   O9        1.0  0.5808248245149414  0.30486338446335287  0.41038367951949084  1.0000
  O   O10       1.0  0.419186622446638  0.19513629082535994  0.9103863089504215  1.0000
  O   O11       1.0  0.419169270201884  0.6951382089332369  0.5896161742243392  1.0000
  O   O12       1.0  0.580815838565826  0.8048622089218751  0.08961407072029459  1.0000
  O   O13       1.0  0.46366817748945266  0.6286606664244231  0.41931252211534087  1.0000
  O   O14       1.0  0.5363231805489902  0.8713321321126557  0.9193153924357277  1.0000
  O   O15       1.0  0.5363298480889894  0.3713420367177135  0.5806836500589084  1.0000
  O   O16       1.0  0.46366985177795067  0.12866519361165266  0.0806855131800575  1.0000
  O   O17       1.0  0.6285934045954845  0.9666039391434891  0.42677481741354484  1.0000
  O   O18       1.0  0.37140674724216877  0.5333954117285769  0.9267739643626598  1.0000
  O   O19       1.0  0.371404620918689  0.03339876403079241  0.5732287178957378  1.0000
  O   O20       1.0  0.6285959793746514  0.4666041549332788  0.0732253634327407  1.0000
  O   O21       1.0  0.8829978473355167  0.8581848059479356  0.48767652222943525  1.0000
  O   O22       1.0  0.11700280832675962  0.6418140311443423  0.9876763950413334  1.0000
  O   O23       1.0  0.11700881009701188  0.14181587048243213  0.5123243833785551  1.0000
  O   O24       1.0  0.8829978200685529  0.35818444718169207  0.012323984630974397  1.0000
  O   O25       1.0  0.9684103503524495  0.9164031523223742  0.3770817064379912  1.0000
  O   O26       1.0  0.031592767203662185  0.583596853039502  0.8770821082293024  1.0000
  O   O27       1.0  0.0315910748329884  0.08359852675901178  0.6229181472994654  1.0000
  O   O28       1.0  0.9684102250037508  0.41640378054386656  0.1229177455054398  1.0000
