data_image0
_chemical_formula_structural       Cd2H14C16O12F2
_chemical_formula_sum              "Cd2 H14 C16 O12 F2"
_cell_length_a       6.891843712792278
_cell_length_b       7.23032771241274
_cell_length_c       10.845111107442262
_cell_angle_alpha    103.3973113310992
_cell_angle_beta     93.62954837322015
_cell_angle_gamma    115.54356327748292

_space_group_name_H-M_alt    "P 1"
_space_group_IT_number       1

loop_
  _space_group_symop_operation_xyz
  'x, y, z'

loop_
  _atom_site_type_symbol
  _atom_site_label
  _atom_site_symmetry_multiplicity
  _atom_site_fract_x
  _atom_site_fract_y
  _atom_site_fract_z
  _atom_site_occupancy
  Cd  Cd1       1.0  0.22956146415653944  0.6922760363715598  0.4395304335114929  1.0000
  Cd  Cd2       1.0  0.7704361231517041  0.30772139282876054  0.5604695514893052  1.0000
  H   H1        1.0  0.7931971474448501  0.019962162892035503  0.1497875512522882  1.0000
  H   H2        1.0  0.20680342909492574  0.9800416879736388  0.8502181472893398  1.0000
  H   H3        1.0  0.8210849015644259  0.8260075404859535  0.9354125070146608  1.0000
  H   H4        1.0  0.17891716120363554  0.17400268505483754  0.06459054064099941  1.0000
  H   H5        1.0  0.7842255206613729  0.4567180588762271  0.8984245429099929  1.0000
  H   H6        1.0  0.2157816319332754  0.5432937778829656  0.10157341794672453  1.0000
  H   H7        1.0  0.029791413926588527  0.25575876023273025  0.328282218555735  1.0000
  H   H8        1.0  0.9702061744775535  0.7442354992053596  0.6717218897891328  1.0000
  H   H9        1.0  0.2722431554666188  0.3384165392439444  0.2985066574666462  1.0000
  H   H10       1.0  0.7277537003321585  0.6615792973662666  0.7014948984922924  1.0000
  H   H11       1.0  0.10629799906237042  0.8522421211543617  0.24693363124305995  1.0000
  H   H12       1.0  0.8937002916849296  0.14775370719466716  0.7530633688943951  1.0000
  H   H13       1.0  0.35170528920642147  0.021838765279831307  0.3019058854445191  1.0000
  H   H14       1.0  0.6482930064019288  0.9781570670157222  0.6980920375678181  1.0000
  C   C1        1.0  0.7324176294742204  0.45140607215368805  0.09133239326199323  1.0000
  C   C2        1.0  0.26758582182364427  0.5485977661361474  0.9086651165115428  1.0000
  C   C3        1.0  0.7155333404542503  0.5541357982208694  0.21311030370487322  1.0000
  C   C4        1.0  0.2844671507783972  0.44586164208280366  0.7868870297770982  1.0000
  C   C5        1.0  0.741961866476764  0.7643955224967983  0.23418930288598722  1.0000
  C   C6        1.0  0.2580379310389347  0.23560352655123037  0.7658128612090778  1.0000
  C   C7        1.0  0.7807495371938917  0.8608611798680035  0.13384178082895914  1.0000
  C   C8        1.0  0.21925028839221034  0.1391410626214409  0.8661617971713013  1.0000
  C   C9        1.0  0.7954447372034111  0.7517828379233579  0.013489938228126216  1.0000
  C   C10       1.0  0.20455583337941624  0.24822417875802222  0.9865107140945568  1.0000
  C   C11       1.0  0.7733216983480062  0.5453864026336889  0.991451110268322  1.0000
  C   C12       1.0  0.22668324027404207  0.45462064056903273  0.008547871963315919  1.0000
  C   C13       1.0  0.6733678273388931  0.43870715696196777  0.3153297918767278  1.0000
  C   C14       1.0  0.3266290041546328  0.5612886599155901  0.6846671497078275  1.0000
  C   C15       1.0  0.7132350288502993  0.8820361978266931  0.3596612098492571  1.0000
  C   C16       1.0  0.28675963995039677  0.11796120843069252  0.6403386580457351  1.0000
  O   O1        1.0  0.4872124933702864  0.2825647178274835  0.3016380314528249  1.0000
  O   O2        1.0  0.5127879697919441  0.7174295290347674  0.6983578881239509  1.0000
  O   O3        1.0  0.8325533585910138  0.5023447149291087  0.40768441481716877  1.0000
  O   O4        1.0  0.16744056411705804  0.49765108689857135  0.5923142554113312  1.0000
  O   O5        1.0  0.5860929672008055  0.7758313782593406  0.42429368885792945  1.0000
  O   O6        1.0  0.41390606101290933  0.2241628768640994  0.57570678654033  1.0000
  O   O7        1.0  0.8191477059681845  0.08693104042202998  0.392044480663408  1.0000
  O   O8        1.0  0.18085206833815454  0.9130648191311154  0.6079571924013436  1.0000
  O   O9        1.0  0.1426053311234909  0.3660671583784065  0.2960646509366285  1.0000
  O   O10       1.0  0.8573922475585505  0.6339270931666263  0.7039376116584819  1.0000
  O   O11       1.0  0.24809723661616814  0.8662530307520557  0.2813675355949671  1.0000
  O   O12       1.0  0.7519010687142895  0.13374280943656203  0.7186322331671278  1.0000
  F   F1        1.0  0.7086468599092158  0.24863146755654245  0.0691649775222984  1.0000
  F   F2        1.0  0.2913624138205933  0.7513724047795735  0.9308299978382237  1.0000
