data_image0
_chemical_formula_structural       Zn2H4C16N4O8
_chemical_formula_sum              "Zn2 H4 C16 N4 O8"
_cell_length_a       8.126152123616123
_cell_length_b       9.25721723831109
_cell_length_c       10.892141898072632
_cell_angle_alpha    90.64286037098428
_cell_angle_beta     101.41386304203667
_cell_angle_gamma    84.63687461174209

_space_group_name_H-M_alt    "P 1"
_space_group_IT_number       1

loop_
  _space_group_symop_operation_xyz
  'x, y, z'

loop_
  _atom_site_type_symbol
  _atom_site_label
  _atom_site_symmetry_multiplicity
  _atom_site_fract_x
  _atom_site_fract_y
  _atom_site_fract_z
  _atom_site_occupancy
  Zn  Zn1       1.0  0.33292039733631634  0.5141650180318037  0.4750043241760194  1.0000
  Zn  Zn2       1.0  0.6670892668449396  0.4858100645536895  0.5249977829794759  1.0000
  H   H1        1.0  0.3242728611265163  0.7120936076601012  0.8988567637021913  1.0000
  H   H2        1.0  0.6756997828096658  0.28791651794072237  0.10114160802399401  1.0000
  H   H3        1.0  0.20676381698651616  0.48218733117421664  0.0207188335160495  1.0000
  H   H4        1.0  0.7932120654357674  0.5178280611099311  0.9792779655879326  1.0000
  C   C1        1.0  0.4990042771904442  0.7788502957154078  0.49710179768160145  1.0000
  C   C2        1.0  0.5010463738891815  0.2211351190947966  0.5029349276903474  1.0000
  C   C3        1.0  0.5147259577117751  0.5066257950887733  0.7413452780537566  1.0000
  C   C4        1.0  0.4852462022922666  0.4933713373894832  0.2586437942282558  1.0000
  C   C5        1.0  0.40101425404798613  0.6171028337675323  0.9443993643521437  1.0000
  C   C6        1.0  0.598959202495024  0.3829169551525382  0.05558987971518548  1.0000
  C   C7        1.0  0.3365806777537586  0.49109513983665204  0.01067350482529861  1.0000
  C   C8        1.0  0.6633991068515356  0.5089233073877039  0.9893162343896901  1.0000
  C   C9        1.0  0.556043356330825  0.6237233098215712  0.05690132516001261  1.0000
  C   C10       1.0  0.44392713231025727  0.37626846270360653  0.9430820659704789  1.0000
  C   C11       1.0  0.48881367380636204  0.4939881414640084  0.12243828405569697  1.0000
  C   C12       1.0  0.5111631317778346  0.5060283626976556  0.8775761119730702  1.0000
  C   C13       1.0  0.4995729579258139  0.9345581441793624  0.49861279311818396  1.0000
  C   C14       1.0  0.5004845337663467  0.06540967578483499  0.5014216515644632  1.0000
  C   C15       1.0  0.6128639121832291  0.7518160393173332  0.11854509344740898  1.0000
  C   C16       1.0  0.38713231086497046  0.24820061434753882  0.8814367157939668  1.0000
  N   N1        1.0  0.9424066319332806  0.4898516562841878  0.517317343893488  1.0000
  N   N2        1.0  0.05758315479876331  0.5102139619190567  0.4826733291405389  1.0000
  N   N3        1.0  0.6594790116369609  0.8568802778774371  0.16910126143491055  1.0000
  N   N4        1.0  0.34054184693798817  0.14314072637789368  0.8308714391188372  1.0000
  O   O1        1.0  0.35489212722623614  0.7291774722249185  0.47526716900998867  1.0000
  O   O2        1.0  0.6451570750512658  0.2707936844321494  0.5247030041673566  1.0000
  O   O3        1.0  0.3573000909851132  0.2943820528615008  0.4815919481245743  1.0000
  O   O4        1.0  0.6427446842874858  0.7055853167691595  0.5184691561253912  1.0000
  O   O5        1.0  0.3709374636914687  0.5168118610592527  0.6678189214179041  1.0000
  O   O6        1.0  0.6290213218542745  0.4832528766149125  0.33217114730746994  1.0000
  O   O7        1.0  0.34148341203094645  0.5054449178601529  0.2896167462378614  1.0000
  O   O8        1.0  0.6584956718727921  0.49446111596594733  0.7103790478826965  1.0000
