data_image0
_chemical_formula_structural       Zn2H44C44N6Cl2O4
_chemical_formula_sum              "Zn2 H44 C44 N6 Cl2 O4"
_cell_length_a       9.367817129735313
_cell_length_b       10.757159960527835
_cell_length_c       11.297
_cell_angle_alpha    109.24055033112579
_cell_angle_beta     102.26584991178402
_cell_angle_gamma    98.76743154119943

_space_group_name_H-M_alt    "P 1"
_space_group_IT_number       1

loop_
  _space_group_symop_operation_xyz
  'x, y, z'

loop_
  _atom_site_type_symbol
  _atom_site_label
  _atom_site_symmetry_multiplicity
  _atom_site_fract_x
  _atom_site_fract_y
  _atom_site_fract_z
  _atom_site_occupancy
  Zn  Zn1       1.0  0.059302310822495506  0.3527467552492424  0.9001752482917311  1.0000
  Zn  Zn2       1.0  0.9406993255674081  0.6472539551302814  0.09982561697308506  1.0000
  H   H1        1.0  0.6226305287310511  0.23437958924690608  0.08004920957993987  1.0000
  H   H2        1.0  0.3773689365848867  0.7656130048284098  0.9199487264136434  1.0000
  H   H3        1.0  0.6703004521978074  0.1898444135305368  0.930799008577516  1.0000
  H   H4        1.0  0.32969764931193885  0.8101471660067574  0.06919925399773776  1.0000
  H   H5        1.0  0.0743368972046312  0.23387130569600598  0.6245316806910566  1.0000
  H   H6        1.0  0.9256636467633257  0.7661294046835181  0.3754681069328143  1.0000
  H   H7        1.0  0.21516138970854123  0.7896534978865972  0.47340264690803474  1.0000
  H   H8        1.0  0.7848405180656073  0.21034822703095557  0.526598584515682  1.0000
  H   H9        1.0  0.4405238943939622  0.2748840053869728  0.1683787303122628  1.0000
  H   H10       1.0  0.5594796485706155  0.7251197486066302  0.8316225406886844  1.0000
  H   H11       1.0  0.27467744339158884  0.3334005296362079  0.14070851621763583  1.0000
  H   H12       1.0  0.7253250140360095  0.6665991662052946  0.8592912901477021  1.0000
  H   H13       1.0  0.1784745097500888  0.5701277598747012  0.6656942922755462  1.0000
  H   H14       1.0  0.8215265769863579  0.42987497958087306  0.3343088832384069  1.0000
  H   H15       1.0  0.5468176101710043  0.0638651687209943  0.6930915528456012  1.0000
  H   H16       1.0  0.4531812986065233  0.9361335125824793  0.306906424819516  1.0000
  H   H17       1.0  0.3909084074834084  0.025134165049941298  0.467881105184901  1.0000
  H   H18       1.0  0.6090915868310987  0.9748685744056331  0.5321183371158327  1.0000
  H   H19       1.0  0.9755231065403153  0.8398812464654525  0.9149475222077825  1.0000
  H   H20       1.0  0.02447743742764171  0.1601194639140715  0.08505403579760439  1.0000
  H   H21       1.0  0.13434859128698665  0.9482521693000692  0.622268589730112  1.0000
  H   H22       1.0  0.8656505888747789  0.051747526541433296  0.3777324096661872  1.0000
  H   H23       1.0  0.20015216777588313  0.5824148299045646  0.34201705534979965  1.0000
  H   H24       1.0  0.7998494686140207  0.41758588047495937  0.6579855802965326  1.0000
  H   H25       1.0  0.1264612703392061  0.5150900865157624  0.4455751240437564  1.0000
  H   H26       1.0  0.8735414584726443  0.48491062386376166  0.5544277040527632  1.0000
  H   H27       1.0  0.25382951954387073  0.3312314473371529  0.3935074815115769  1.0000
  H   H28       1.0  0.7461737520364694  0.6687712921184215  0.6064951937119859  1.0000
  H   H29       1.0  0.5075642296771435  0.9528855644636706  0.8577646326704594  1.0000
  H   H30       1.0  0.492429773529075  0.0471070296116451  0.14223145588143637  1.0000
  H   H31       1.0  0.6635303881415666  0.9987721048303441  0.9968804293368265  1.0000
  H   H32       1.0  0.3364636150646518  0.0012204892449788  0.0031174295965854877  1.0000
  H   H33       1.0  0.021408955998609296  0.005667209411839699  0.8054728699257511  1.0000
  H   H34       1.0  0.9785904955474083  0.9943335009676842  0.1945284956294486  1.0000
  H   H35       1.0  0.1622387203842379  0.1092231347762507  0.4350618752451894  1.0000
  H   H36       1.0  0.8377604597775276  0.8907765610652517  0.5649364685788285  1.0000
  H   H37       1.0  0.5091679961053616  0.7459796649540917  0.5678778775418394  1.0000
  H   H38       1.0  0.49083391166878715  0.2540220599634607  0.43212423907263536  1.0000
  H   H39       1.0  0.4988790684321955  0.5268648148426252  0.2769397325556326  1.0000
  H   H40       1.0  0.5011201048446097  0.4731389391509779  0.7230563426907821  1.0000
  H   H41       1.0  0.41859023318748007  0.541304734563127  0.126037611764815  1.0000
  H   H42       1.0  0.5814064907461615  0.4586939467403467  0.8739564402368956  1.0000
  H   H43       1.0  0.587838848179949  0.4843455261834179  0.1496325284397813  1.0000
  H   H44       1.0  0.4121586899064198  0.5156561987341348  0.8503626220386381  1.0000
  C   C1        1.0  0.3923494600479813  0.16654351869312478  0.7817294106378724  1.0000
  C   C2        1.0  0.6076521763419153  0.8334571916863993  0.21826968424542065  1.0000
  C   C3        1.0  0.5825125059078218  0.16704470047784528  0.9767275666874866  1.0000
  C   C4        1.0  0.41748395352652784  0.8329489081354992  0.02327015811444975  1.0000
  C   C5        1.0  0.1760048060028154  0.19667326898186124  0.6389403729366094  1.0000
  C   C6        1.0  0.8239960093493863  0.8033284559356844  0.36106066603692  1.0000
  C   C7        1.0  0.0740160302552511  0.6963322321259608  0.7946671731761725  1.0000
  C   C8        1.0  0.925983692675004  0.3036694927915917  0.20533632891944356  1.0000
  C   C9        1.0  0.3834991299570447  0.33367851305526125  0.11904519883616865  1.0000
  C   C10       1.0  0.6165011426266673  0.6663211827862339  0.8809533374380365  1.0000
  C   C11       1.0  0.14334568605760012  0.6651524349805698  0.6934465006700208  1.0000
  C   C12       1.0  0.8566534941041652  0.3348472608609256  0.3065553839170363  1.0000
  C   C13       1.0  0.4435791313590229  0.098291487548785  0.6772275132093029  1.0000
  C   C14       1.0  0.5564211412246891  0.9017082082927103  0.3227701378741443  1.0000
  C   C15       1.0  0.2606061539804756  0.21464581010803127  0.7639542301771696  1.0000
  C   C16       1.0  0.739395482409421  0.7853549002714928  0.2360466350876393  1.0000
  C   C17       1.0  0.3574063688276965  0.07933281546158359  0.5531490295558541  1.0000
  C   C18       1.0  0.6425919902963741  0.9206678949179404  0.4468494879768912  1.0000
  C   C19       1.0  0.16310141794534871  0.7545951218687605  0.6277015371395649  1.0000
  C   C20       1.0  0.8368988546383633  0.24540457397273488  0.3723014250884375  1.0000
  C   C21       1.0  0.02886141957887393  0.8181285366553368  0.8360582784187827  1.0000
  C   C22       1.0  0.9711377605828986  0.18187115918616567  0.1639427209775164  1.0000
  C   C23       1.0  0.3658043050454368  0.5442610983701641  0.47849815120456196  1.0000
  C   C24       1.0  0.634196510306765  0.4557406265473816  0.5215046581504835  1.0000
  C   C25       1.0  0.04543830255450133  0.5976369584429264  0.8582065572146647  1.0000
  C   C26       1.0  0.9545633338354023  0.4023637519365976  0.14179430805014442  1.0000
  C   C27       1.0  0.11993613117839177  0.8784702148128999  0.6724862968587644  1.0000
  C   C28       1.0  0.8800635917518705  0.12153151010465277  0.32751543485533574  1.0000
  C   C29       1.0  0.354074376319602  0.2680571790116986  0.9751743639381162  1.0000
  C   C30       1.0  0.6459256248798653  0.7319415022917752  0.024824691367946572  1.0000
  C   C31       1.0  0.22144034172822563  0.5882839323835326  0.4437221378425917  1.0000
  C   C32       1.0  0.778561566045923  0.4117177925340201  0.5562808639626481  1.0000
  C   C33       1.0  0.36202015547230815  0.40566201505831145  0.4402645084178616  1.0000
  C   C34       1.0  0.63798284472378  0.5943397098592412  0.5597378006468006  1.0000
  C   C35       1.0  0.5531854656492285  0.0180729803907198  0.9621980628645517  1.0000
  C   C36       1.0  0.44680798790354  0.9819216427606534  0.03779768036420716  1.0000
  C   C37       1.0  0.05531871546596534  0.9099259663012942  0.7752601602316175  1.0000
  C   C38       1.0  0.9446796436581053  0.09007474407822967  0.22474012768264368  1.0000
  C   C39       1.0  0.22624666279348568  0.1276116364929791  0.5341502710114909  1.0000
  C   C40       1.0  0.7737541525587162  0.8723900884245736  0.4658498827712804  1.0000
  C   C41       1.0  0.5053676436009198  0.6380186154818759  0.5388586539800713  1.0000
  C   C42       1.0  0.4946342641732215  0.3619831094356769  0.46114434782516156  1.0000
  C   C43       1.0  0.4784608256153363  0.48053796497277546  0.17081792561490516  1.0000
  C   C44       1.0  0.5215364410867879  0.5194627454067486  0.8291768587046134  1.0000
  N   N1        1.0  0.448657436755262  0.2020127826113907  0.9155876248654309  1.0000
  N   N2        1.0  0.5513414720222656  0.7979858986920831  0.0844112379904446  1.0000
  N   N3        1.0  0.2394821373217937  0.27605173865460836  0.8860463742099186  1.0000
  N   N4        1.0  0.760518678030408  0.7239499862629444  0.11395377957285296  1.0000
  N   N5        1.0  0.2208020258702349  0.7253135253695504  0.5221013857285826  1.0000
  N   N6        1.0  0.7791996105196617  0.2746871850099737  0.4779012499177496  1.0000
  Cl  Cl1       1.0  0.8420972650855776  0.2094361573458059  0.7676730051494471  1.0000
  Cl  Cl2       1.0  0.157905192342028  0.7905635384956964  0.2323285715974137  1.0000
  O   O1        1.0  0.12207472968909633  0.5081212248168825  0.8482958801530174  1.0000
  O   O2        1.0  0.8779269067008073  0.4918794855626416  0.15170587030255686  1.0000
  O   O3        1.0  0.9420769792835063  0.604692055873997  0.9164756830445312  1.0000
  O   O4        1.0  0.057923293300206125  0.3953076399675055  0.0835255088019551  1.0000
