data_image0
_chemical_formula_structural       Cu2H40W6C48N12O19
_chemical_formula_sum              "Cu2 H40 W6 C48 N12 O19"
_cell_length_a       10.561988401329003
_cell_length_b       11.125601679931574
_cell_length_c       13.0267
_cell_angle_alpha    98.06976836865613
_cell_angle_beta     108.08573363662792
_cell_angle_gamma    98.16415078900283

_space_group_name_H-M_alt    "P 1"
_space_group_IT_number       1

loop_
  _space_group_symop_operation_xyz
  'x, y, z'

loop_
  _atom_site_type_symbol
  _atom_site_label
  _atom_site_symmetry_multiplicity
  _atom_site_fract_x
  _atom_site_fract_y
  _atom_site_fract_z
  _atom_site_occupancy
  Cu  Cu1       1.0  0.2570458375994562  0.3762386763162553  0.2411122356812712  1.0000
  Cu  Cu2       1.0  0.7429559472036757  0.6237598811635507  0.7588865053041474  1.0000
  H   H1        1.0  0.41396269311498907  0.18974631721895463  0.3589022345180267  1.0000
  H   H2        1.0  0.5860410893492514  0.8102568702524877  0.6410990996928021  1.0000
  H   H3        1.0  0.6539354657116833  0.20256491206186675  0.4777110989070295  1.0000
  H   H4        1.0  0.3460615394196509  0.7974345714162681  0.5222934589271588  1.0000
  H   H5        1.0  0.8180920827842685  0.4065549355492379  0.5289956256332005  1.0000
  H   H6        1.0  0.18190034300734936  0.5934463999255472  0.47100953691500536  1.0000
  H   H7        1.0  0.7312536512156385  0.5910989941661882  0.4651467291077793  1.0000
  H   H8        1.0  0.2687391752401139  0.4089041933052542  0.5348595239828171  1.0000
  H   H9        1.0  0.6239819139956923  0.7637865702021501  0.3899223183201386  1.0000
  H   H10       1.0  0.37601389480280295  0.23621198727765605  0.6100818273734135  1.0000
  H   H11       1.0  0.402591383478935  0.8553085408656216  0.2793647823347811  1.0000
  H   H12       1.0  0.5974080143180842  0.14469279460917053  0.7206352262017859  1.0000
  H   H13       1.0  0.16111186598302396  0.7707908215488075  0.18653870499151987  1.0000
  H   H14       1.0  0.8388847384841824  0.22920680993266987  0.8134609240296484  1.0000
  H   H15       1.0  0.1107160962583364  0.6675355260818492  0.26370216610445146  1.0000
  H   H16       1.0  0.8892834962111779  0.3324621053996282  0.7362974473520936  1.0000
  H   H17       1.0  0.895112954179325  0.5756542680674386  0.13645107481302435  1.0000
  H   H18       1.0  0.10488663829018921  0.42434336341403883  0.8635493062976423  1.0000
  H   H19       1.0  0.2473635234122114  0.5688667003293376  0.036774935589711816  1.0000
  H   H20       1.0  0.7526356740527405  0.43113370914712595  0.9632233761944704  1.0000
  H   H21       1.0  0.0371225240413651  0.415701021026628  0.3487361369525033  1.0000
  H   H22       1.0  0.9628862327671613  0.5842975364531782  0.6512666618707925  1.0000
  H   H23       1.0  0.7878875029066279  0.34360279127372456  0.28962224519459306  1.0000
  H   H24       1.0  0.2121216489064679  0.6563929882111026  0.7103833906093016  1.0000
  H   H25       1.0  0.6700271562059045  0.18993799887267226  0.11083627381653126  1.0000
  H   H26       1.0  0.3299776222591078  0.8100651885987703  0.8891637757825492  1.0000
  H   H27       1.0  0.8087114095430438  0.12500607017368282  0.9955258550820149  1.0000
  H   H28       1.0  0.19129477124645425  0.8750035992860461  0.004471486355349425  1.0000
  H   H29       1.0  0.9679143912969438  0.05951761648007191  0.8976096250672257  1.0000
  H   H30       1.0  0.032087204493258484  0.9404892749846783  0.10239006752237863  1.0000
  H   H31       1.0  0.2194068354499308  0.0849168245958225  0.8749312970765502  1.0000
  H   H32       1.0  0.7805935526882878  0.9150798808873333  0.1250668703241047  1.0000
  H   H33       1.0  0.5985302826441554  0.4591886804651822  0.18812577422085044  1.0000
  H   H34       1.0  0.40146174814289287  0.5408154330045889  0.8118734807302488  1.0000
  H   H35       1.0  0.4501699703383508  0.18572100249077292  0.9966379539778031  1.0000
  H   H36       1.0  0.549832816125118  0.8142821849806694  0.0033539176870149828  1.0000
  H   H37       1.0  0.47368616584037676  0.2559737175776462  0.1346304583319338  1.0000
  H   H38       1.0  0.5263217952994452  0.7440257659004885  0.8653615040812281  1.0000
  H   H39       1.0  0.3331732350399292  0.33506693869393445  0.8507723319337613  1.0000
  H   H40       1.0  0.666816403081441  0.6649353227791792  0.14922226046544304  1.0000
  W   W1        1.0  0.8730572632232665  0.9629734403665253  0.6163690241842161  1.0000
  W   W2        1.0  0.12693934124393283  0.037024191114952  0.38362983718283067  1.0000
  W   W3        1.0  0.0400287372738717  0.2135324362487836  0.5684550508515188  1.0000
  W   W4        1.0  0.9599682678574696  0.7864670472293512  0.43154413340379  1.0000
  W   W5        1.0  0.19828981933692796  0.9847871829595007  0.6388451712927932  1.0000
  W   W6        1.0  0.8017065847982039  0.0152095225236479  0.3611535286301192  1.0000
  C   C1        1.0  0.48790053298407093  0.2765410664222614  0.38397518868768543  1.0000
  C   C2        1.0  0.5121012518190541  0.7234574910575448  0.6160227846436046  1.0000
  C   C3        1.0  0.621882824706482  0.28441946018975983  0.44963984501100634  1.0000
  C   C4        1.0  0.378115376757698  0.7155809492866965  0.5503643573096895  1.0000
  C   C5        1.0  0.7120953425911694  0.3981237207804185  0.478894952374354  1.0000
  C   C6        1.0  0.2879012675356023  0.6018785406926953  0.5211106067498577  1.0000
  C   C7        1.0  0.6647996317205482  0.5004502399252289  0.44246956401297416  1.0000
  C   C8        1.0  0.3351965777420888  0.49955016955122744  0.5575379751853475  1.0000
  C   C9        1.0  0.5287100982389461  0.48613245379063846  0.3770178250531302  1.0000
  C   C10       1.0  0.4712894942305681  0.513865177690839  0.6229817884034149  1.0000
  C   C11       1.0  0.4686275663320103  0.5870218235316926  0.3356732516862238  1.0000
  C   C12       1.0  0.53137322247035  0.4129767339481134  0.6643290768733293  1.0000
  C   C13       1.0  0.5211167227075393  0.7137372866173166  0.3468540366351576  1.0000
  C   C14       1.0  0.47888167342913596  0.28625941886583217  0.6531490029513806  1.0000
  C   C15       1.0  0.4114398480986238  0.7617632638572971  0.2911247802978139  1.0000
  C   C16       1.0  0.5885601450350251  0.2382362196208376  0.7088774590093648  1.0000
  C   C17       1.0  0.1599262780054431  0.6758259891049434  0.20145012856558964  1.0000
  C   C18       1.0  0.8400743104648428  0.32417164237653406  0.7985497355874571  1.0000
  C   C19       1.0  0.0802155151204289  0.5824288718289665  0.0978599609814381  1.0000
  C   C20       1.0  0.9197820853475492  0.4175687596525179  0.9021368481197314  1.0000
  C   C21       1.0  0.9410310480585053  0.542628537729172  0.07622166096287224  1.0000
  C   C22       1.0  0.05896575674076131  0.4573700197506342  0.9237765941941803  1.0000
  C   C23       1.0  0.1389837427832816  0.5390801121394873  0.0210124708410788  1.0000
  C   C24       1.0  0.8610158440266673  0.4609128893503538  0.978990424361932  1.0000
  C   C25       1.0  0.9832702327259639  0.3517895424841697  0.27071253457961575  1.0000
  C   C26       1.0  0.016735736412321983  0.648209940993965  0.729288138290059  1.0000
  C   C27       1.0  0.8432601557093307  0.3114910212843682  0.2367582889726592  1.0000
  C   C28       1.0  0.1567460137610226  0.6885093881920952  0.7632433129952716  1.0000
  C   C29       1.0  0.7784806733573931  0.22724739747239653  0.13746188038799542  1.0000
  C   C30       1.0  0.2215278887786454  0.7727548640007171  0.8625382428988217  1.0000
  C   C31       1.0  0.8553788331598327  0.1897074252892139  0.07409575436469135  1.0000
  C   C32       1.0  0.1446291392991341  0.8103013181721935  0.9259026946756705  1.0000
  C   C33       1.0  0.9954352813533944  0.2353489568367451  0.11248218562585775  1.0000
  C   C34       1.0  0.004570498771961716  0.7646588606263338  0.8875171358856236  1.0000
  C   C35       1.0  0.08338116955572869  0.20416596316952962  0.0507504941468611  1.0000
  C   C36       1.0  0.9166247995825572  0.795833520308598  0.9492501787228138  1.0000
  C   C37       1.0  0.061014564758942014  0.12120762503565892  0.9513507046599017  1.0000
  C   C38       1.0  0.9389912097068419  0.8787955624357764  0.0486465250191729  1.0000
  C   C39       1.0  0.18690119725193446  0.1318843857478527  0.9379566542792332  1.0000
  C   C40       1.0  0.813105767887123  0.8681150977302821  0.06204196632456424  1.0000
  C   C41       1.0  0.4606374211759814  0.3832966355658911  0.0227738704019202  1.0000
  C   C42       1.0  0.5393605799561314  0.6167028479122436  0.9772201909710106  1.0000
  C   C43       1.0  0.5551358165897398  0.4768641365340613  0.10534203676249379  1.0000
  C   C44       1.0  0.44486099386909933  0.5231390509373739  0.8946544719563362  1.0000
  C   C45       1.0  0.4215426801809983  0.2572312233059293  0.0476293551865723  1.0000
  C   C46       1.0  0.578461697619879  0.7427701121688558  0.9523665332536099  1.0000
  C   C47       1.0  0.40583692582456626  0.4071420184886635  0.9168006375966016  1.0000
  C   C48       1.0  0.5941545039662799  0.5928593169861287  0.0831965977138509  1.0000
  N   N1        1.0  0.059784317697896903  0.3143282801587972  0.2115188083962138  1.0000
  N   N2        1.0  0.9402224527686656  0.6856749073126452  0.7884832779041134  1.0000
  N   N3        1.0  0.4407576636593619  0.3746755911400044  0.34771899847164894  1.0000
  N   N4        1.0  0.5592405378048184  0.6253248183364591  0.6522813655784105  1.0000
  N   N5        1.0  0.3346922283686879  0.5595409711764745  0.2755402230682833  1.0000
  N   N6        1.0  0.6653093561023696  0.4404566603050029  0.7244583564730007  1.0000
  N   N7        1.0  0.2150256252042411  0.2628696271200255  0.09396229722410253  1.0000
  N   N8        1.0  0.7849787525966362  0.7371317083547595  0.9060366618325871  1.0000
  N   N9        1.0  0.30148570721514295  0.6665623018400026  0.2492700425968621  1.0000
  N   N10       1.0  0.6985142859185061  0.33343718163813213  0.750731429056195  1.0000
  N   N11       1.0  0.27643889791562515  0.21712993974981035  0.024907923267584012  1.0000
  N   N12       1.0  0.7235684622279949  0.7828667657333384  0.9750912313544405  1.0000
  O   O1        1.0  0.06700345934321211  0.3708178821090442  0.6198797874492854  1.0000
  O   O2        1.0  0.9329957381217326  0.6291825273674192  0.38012005964315426  1.0000
  O   O3        1.0  0.7816487990067316  0.9417106667782065  0.7042981369359538  1.0000
  O   O4        1.0  0.2183472101238308  0.058288816699921114  0.2957015642769818  1.0000
  O   O5        1.0  0.9295246320033215  0.1414017965544332  0.6469039164847528  1.0000
  O   O6        1.0  0.07047177213181041  0.8585949089287227  0.35309478343815937  1.0000
  O   O7        1.0  0.7387660183600673  0.9832926216594589  0.4809872430424633  1.0000
  O   O8        1.0  0.26123178243997097  0.016705935820347403  0.5190127981193413  1.0000
  O   O9        1.0  0.3438012766546521  0.9759281569635335  0.7429594768737006  1.0000
  O   O10       1.0  0.6561949271484124  0.0240676225212937  0.25703982925920593  1.0000
  O   O11       1.0  0.05564795873049625  0.9572396587247313  0.7035394891544016  1.0000
  O   O12       1.0  0.9443500424016167  0.0427598247534036  0.2964614811056521  1.0000
  O   O13       1.0  0.19014790902083692  0.1588939049545388  0.6681008163989405  1.0000
  O   O14       1.0  0.8098476994455909  0.8411037265269387  0.3318977942716046  1.0000
  O   O15       1.0  0.1372480963478182  0.20173614355906014  0.4638756352501757  1.0000
  O   O16       1.0  0.8627483077873137  0.7982605619240957  0.5361215293644861  1.0000
  O   O17       1.0  0.9999967267430634  0.0  0.5000000205305638  1.0000
  O   O18       1.0  0.8750030968661379  0.1837273280923952  0.44323494718393863  1.0000
  O   O19       1.0  0.12499470393390058  0.8162712293874108  0.5567650939778659  1.0000
