data_image0
_chemical_formula_structural       Cu4P4H40C28S8N4O8
_chemical_formula_sum              "Cu4 P4 H40 C28 S8 N4 O8"
_cell_length_a       5.679646626038598
_cell_length_b       9.376169190866442
_cell_length_c       20.368464623213786
_cell_angle_alpha    101.93915525299813
_cell_angle_beta     89.99968610462497
_cell_angle_gamma    90.00039055696286

_space_group_name_H-M_alt    "P 1"
_space_group_IT_number       1

loop_
  _space_group_symop_operation_xyz
  'x, y, z'

loop_
  _atom_site_type_symbol
  _atom_site_label
  _atom_site_symmetry_multiplicity
  _atom_site_fract_x
  _atom_site_fract_y
  _atom_site_fract_z
  _atom_site_occupancy
  Cu  Cu1       1.0  0.040549889076857  0.2755026271589929  0.8172844019232385  1.0000
  Cu  Cu2       1.0  0.5405381347164137  0.2244925659899907  0.6827170674713157  1.0000
  Cu  Cu3       1.0  0.9594599267259126  0.7245055313569541  0.18271536594522786  1.0000
  Cu  Cu4       1.0  0.4594487922143031  0.7754994280709938  0.31728524296313043  1.0000
  P   P1        1.0  0.5579654196703528  0.5041664836657987  0.8235551450913972  1.0000
  P   P2        1.0  0.05795820975079379  0.9958308210777034  0.676447991683723  1.0000
  P   P3        1.0  0.44204791740824584  0.49583307067202775  0.17644634036129497  1.0000
  P   P4        1.0  0.9420357599057565  0.0041721635712760954  0.3235572253488924  1.0000
  H   H1        1.0  0.9678492345326145  0.40441383685357124  0.6836659135348951  1.0000
  H   H2        1.0  0.46785709914157536  0.09558826027588911  0.8163355762221511  1.0000
  H   H3        1.0  0.03214649584891299  0.5955889181926822  0.3163343731705196  1.0000
  H   H4        1.0  0.5321544771715093  0.9043961047134416  0.18366608006945734  1.0000
  H   H5        1.0  0.18676873885770814  0.5245548810151706  0.6069573326934969  1.0000
  H   H6        1.0  0.6867747913872718  0.9754480590140207  0.8930407132509686  1.0000
  H   H7        1.0  0.8132269915463937  0.475454459192463  0.39304450075998426  1.0000
  H   H8        1.0  0.3132226996193879  0.02453151020698391  0.10695120163953219  1.0000
  H   H9        1.0  0.6497771308608336  0.37277253315018305  0.4574719167732295  1.0000
  H   H10       1.0  0.1497842654906236  0.12720561812055564  0.042531190945702194  1.0000
  H   H11       1.0  0.3502238814159071  0.6272162831569404  0.5425320854429572  1.0000
  H   H12       1.0  0.8502290714369493  0.8727745481022854  0.9574735427848463  1.0000
  H   H13       1.0  0.4529516790670413  0.26000736682515685  0.5417405170637222  1.0000
  H   H14       1.0  0.9529535047423678  0.23998709638843255  0.9582613202114272  1.0000
  H   H15       1.0  0.5470475726099551  0.7399822408649116  0.45825716917634896  1.0000
  H   H16       1.0  0.04705102896759429  0.7600169322307552  0.041743004197542205  1.0000
  H   H17       1.0  0.9292424210637049  0.7355380147294143  0.7534079720367115  1.0000
  H   H18       1.0  0.4292326869111206  0.7644395937226139  0.7465875776096238  1.0000
  H   H19       1.0  0.0707603519628819  0.26444600583635497  0.24658628877007518  1.0000
  H   H20       1.0  0.5707577613792977  0.23554565445898135  0.2534097348465139  1.0000
  H   H21       1.0  0.030363059964706493  0.6364850920733431  0.8146482045995851  1.0000
  H   H22       1.0  0.5303669948463678  0.863523109303266  0.6853578676376769  1.0000
  H   H23       1.0  0.9696291490571127  0.36352440885229953  0.18535708008413107  1.0000
  H   H24       1.0  0.46962521419253267  0.13649188691038466  0.3146488703469714  1.0000
  H   H25       1.0  0.8083011445759779  0.7760626399071955  0.8360662584424359  1.0000
  H   H26       1.0  0.30831208541926  0.7239328780830122  0.6639265689792068  1.0000
  H   H27       1.0  0.19167345776609315  0.22393661587725694  0.16392881760634023  1.0000
  H   H28       1.0  0.6916977304234138  0.27606841974468926  0.3360657357496563  1.0000
  H   H29       1.0  0.2560276636227811  0.7460561378856241  0.9529490686791318  1.0000
  H   H30       1.0  0.7560192016647134  0.753944043791627  0.5470545408931711  1.0000
  H   H31       1.0  0.7439839128963115  0.25395851395241215  0.047050273805964986  1.0000
  H   H32       1.0  0.24399237484192324  0.24606286412994652  0.4529416822988423  1.0000
  H   H33       1.0  0.45694412066973195  0.6069930474336689  0.9660142590544677  1.0000
  H   H34       1.0  0.9569904234845195  0.8929950153278414  0.5339939353998558  1.0000
  H   H35       1.0  0.5430093534654077  0.39300010532546287  0.03398962394248169  1.0000
  H   H36       1.0  0.04305108428121678  0.10699931929679003  0.46601201312871143  1.0000
  H   H37       1.0  0.17565210529051706  0.557717774601514  0.9266042986134193  1.0000
  H   H38       1.0  0.6756734934624048  0.9422926419221229  0.5733919479154252  1.0000
  H   H39       1.0  0.8243136938391586  0.4423053206187221  0.07338987508114769  1.0000
  H   H40       1.0  0.32434512590455  0.05772132111074061  0.4265926035871387  1.0000
  C   C1        1.0  0.90173649345153  0.40103664951587364  0.6331773801381004  1.0000
  C   C2        1.0  0.4017591501726443  0.09896049572011383  0.866815916440288  1.0000
  C   C3        1.0  0.0982609977354016  0.5989744341906303  0.36681527258879487  1.0000
  C   C4        1.0  0.5982841184120744  0.9010343088454461  0.13317681365352735  1.0000
  C   C5        1.0  0.023314769602080804  0.46933773462880185  0.589273205699115  1.0000
  C   C6        1.0  0.5233415346287273  0.030667300617885498  0.9107310948542348  1.0000
  C   C7        1.0  0.9766756786921318  0.530661980394065  0.4107317309939375  1.0000
  C   C8        1.0  0.47670173390743986  0.969341087560722  0.08927360332302212  1.0000
  C   C9        1.0  0.9380149588685993  0.46429017755282614  0.5240453936674072  1.0000
  C   C10       1.0  0.438015126898513  0.0357029612535342  0.9759524215210361  1.0000
  C   C11       1.0  0.061987814233255285  0.5357224782080581  0.4759577061890496  1.0000
  C   C12       1.0  0.5619823640555026  0.9642746119052962  0.024043250736220007  1.0000
  C   C13       1.0  0.7280332981710842  0.3854306581910692  0.5070684146693836  1.0000
  C   C14       1.0  0.22803580121902198  0.1145812687333603  0.9929288369986293  1.0000
  C   C15       1.0  0.2719483468227182  0.6145554043220544  0.49292307484694925  1.0000
  C   C16       1.0  0.7719528865961178  0.885442102052686  0.007071253075515888  1.0000
  C   C17       1.0  0.616439193203007  0.3206518896898062  0.5539186564779044  1.0000
  C   C18       1.0  0.116485741593614  0.17932964610751165  0.9460869420684827  1.0000
  C   C19       1.0  0.3835389302826826  0.6793315460932168  0.44608635761245796  1.0000
  C   C20       1.0  0.8835786548619212  0.8206616026205326  0.05392267036773999  1.0000
  C   C21       1.0  0.8788864333573938  0.6892408104651015  0.7963752996801572  1.0000
  C   C22       1.0  0.37888698710863616  0.8107508638219302  0.7036229965329354  1.0000
  C   C23       1.0  0.12110753635033687  0.3107586060763269  0.20362322758688825  1.0000
  C   C24       1.0  0.6211105039122344  0.18924312631920512  0.29637555652922737  1.0000
  C   C25       1.0  0.32184822423749887  0.6360935457618667  0.9325434478394353  1.0000
  C   C26       1.0  0.8218459159107352  0.8639064926180925  0.5674522043734881  1.0000
  C   C27       1.0  0.6781439848832348  0.3639155189129114  0.06745246922434228  1.0000
  C   C28       1.0  0.17815685724692537  0.1361003464067707  0.4325425397252403  1.0000
  S   S1        1.0  0.32423425495359476  0.3798997028664958  0.7618971329226978  1.0000
  S   S2        1.0  0.8242535056096826  0.120106104168535  0.738101429578819  1.0000
  S   S3        1.0  0.6757544327585449  0.6201085244952013  0.23810411405469972  1.0000
  S   S4        1.0  0.17576159219102283  0.8799021461986883  0.26190031041740264  1.0000
  S   S5        1.0  0.7643679394341305  0.4186796581937458  0.884062306021789  1.0000
  S   S6        1.0  0.26436413113339796  0.08130859887798181  0.6159367960753954  1.0000
  S   S7        1.0  0.23564363696780075  0.5813254832713783  0.1159426048632639  1.0000
  S   S8        1.0  0.7356280778259006  0.9186811236029587  0.3840633553314986  1.0000
  N   N1        1.0  0.6990246798467296  0.3276527551767857  0.6165785454629071  1.0000
  N   N2        1.0  0.19901440066396958  0.17235088208311575  0.8834293287219236  1.0000
  N   N3        1.0  0.3009780933147325  0.6723685506893561  0.38342382287274285  1.0000
  N   N4        1.0  0.8009707655062002  0.8276448408064286  0.11658312270741075  1.0000
  O   O1        1.0  0.6970384781288741  0.5830538977060727  0.772370957149995  1.0000
  O   O2        1.0  0.19704154094856816  0.9169349778053832  0.7276273423412432  1.0000
  O   O3        1.0  0.3029642948951262  0.4169401613257692  0.227629075007293  1.0000
  O   O4        1.0  0.8029471466747252  0.08305247308053511  0.27237065004271693  1.0000
  O   O5        1.0  0.4221298500361426  0.6430529712765677  0.8681855876835127  1.0000
  O   O6        1.0  0.9220908500441778  0.8569455501133593  0.6318166752381842  1.0000
  O   O7        1.0  0.5778905297763615  0.35694862505656033  0.13181312646399587  1.0000
  O   O8        1.0  0.0778591028640463  0.1430637900163632  0.3681851582392355  1.0000
