data_image0
_chemical_formula_structural       K8Cd4H24C56N8O32
_chemical_formula_sum              "K8 Cd4 H24 C56 N8 O32"
_cell_length_a       13.010014330429923
_cell_length_b       13.0291
_cell_length_c       13.008147993436317
_cell_angle_alpha    101.85533879081943
_cell_angle_beta     113.3596818429296
_cell_angle_gamma    113.45544672826345

_space_group_name_H-M_alt    "P 1"
_space_group_IT_number       1

loop_
  _space_group_symop_operation_xyz
  'x, y, z'

loop_
  _atom_site_type_symbol
  _atom_site_label
  _atom_site_symmetry_multiplicity
  _atom_site_fract_x
  _atom_site_fract_y
  _atom_site_fract_z
  _atom_site_occupancy
  K   K1        1.0  0.6896725815772201  0.10677540489875532  0.6275009499106616  1.0000
  K   K2        1.0  0.8103198116808344  0.937836091168002  0.9171332736115545  1.0000
  K   K3        1.0  0.4792567659783985  0.9171003418798805  0.10678888812531537  1.0000
  K   K4        1.0  0.020750302537351193  0.6275268276286923  0.9378364354679646  1.0000
  K   K5        1.0  0.31032685055100023  0.8932245599273545  0.3724984822175514  1.0000
  K   K6        1.0  0.18967900238362034  0.0621569801272912  0.08286368289208919  1.0000
  K   K7        1.0  0.5207476003081979  0.08289818701855008  0.8932126918200537  1.0000
  K   K8        1.0  0.9792488205589863  0.37247276048290007  0.06216175884797066  1.0000
  Cd  Cd1       1.0  0.7500465846280095  0.8414430934602424  0.5914155350083661  1.0000
  Cd  Cd2       1.0  0.24995767054993231  0.591309591296323  0.8414263956995641  1.0000
  Cd  Cd3       1.0  0.24995284750021096  0.15855687136586744  0.4085838971198541  1.0000
  Cd  Cd4       1.0  0.7500420706101637  0.40869075024431123  0.1585742742409408  1.0000
  H   H1        1.0  0.608980902983305  0.5394916432681925  0.46775055428947343  1.0000
  H   H2        1.0  0.8910753475880568  0.8587991564635121  0.43040862472206226  1.0000
  H   H3        1.0  0.07154174082247527  0.430337638130503  0.5393953664781109  1.0000
  H   H4        1.0  0.4285574118259351  0.4677618563828433  0.8588316534325032  1.0000
  H   H5        1.0  0.3910188381767911  0.46050793075971813  0.5322501156510313  1.0000
  H   H6        1.0  0.10892461283028611  0.14120170370072316  0.5695904069158715  1.0000
  H   H7        1.0  0.928457691305745  0.5696615591828903  0.46060406565010936  1.0000
  H   H8        1.0  0.5714433859144067  0.5322395083213253  0.14116821552743633  1.0000
  H   H9        1.0  0.40196013721413965  0.353398615562334  0.2782410143145598  1.0000
  H   H10       1.0  0.09816102057094167  0.8763561268252928  0.4511802367006937  1.0000
  H   H11       1.0  0.07490769082414071  0.4512286237097457  0.35314801004223284  1.0000
  H   H12       1.0  0.4251498759879342  0.2783671265996048  0.8763300357764622  1.0000
  H   H13       1.0  0.5980409695580776  0.6466015908309047  0.7217600924576643  1.0000
  H   H14       1.0  0.9018392488792843  0.12364511005346664  0.548820032749525  1.0000
  H   H15       1.0  0.9250917413040799  0.548771341116364  0.6468514220859876  1.0000
  H   H16       1.0  0.5748525963964114  0.7216344796716924  0.12367150782747416  1.0000
  H   H17       1.0  0.2605171020370847  0.38963187745015665  0.10832064307738416  1.0000
  H   H18       1.0  0.23955208514861684  0.8478353151730927  0.6289906385990491  1.0000
  H   H19       1.0  0.28126916937534935  0.6290957249434896  0.38948044581866265  1.0000
  H   H20       1.0  0.21871483431674218  0.10854073139142877  0.8477935932688752  1.0000
  H   H21       1.0  0.7394818018010056  0.6103664245251038  0.891679189541115  1.0000
  H   H22       1.0  0.7604473469796035  0.15216541716573326  0.3710087935291709  1.0000
  H   H23       1.0  0.7187311000748694  0.37090474442254623  0.6105198236315629  1.0000
  H   H24       1.0  0.7812851261015938  0.8914601287728062  0.1522054383690588  1.0000
  C   C1        1.0  0.5012182068534018  0.6876115300480877  0.3208954908274465  1.0000
  C   C2        1.0  0.9987280388803941  0.819633306168747  0.686450704085658  1.0000
  C   C3        1.0  0.36675439148135075  0.6864290768869807  0.6876870308892437  1.0000
  C   C4        1.0  0.1331859810510212  0.3208440165245677  0.819619716478826  1.0000
  C   C5        1.0  0.49878016869456604  0.3123874116144877  0.6791047422813463  1.0000
  C   C6        1.0  0.0012710842159507148  0.1803662819428453  0.3135474902302704  1.0000
  C   C7        1.0  0.6332453496787523  0.3135704971409299  0.3123136390512613  1.0000
  C   C8        1.0  0.8668162720750774  0.6791578386358453  0.18038346542768832  1.0000
  C   C9        1.0  0.5429779105810868  0.5493921313157629  0.39215883296502346  1.0000
  C   C10       1.0  0.9570612619424144  0.8491945013547098  0.5063194865060013  1.0000
  C   C11       1.0  0.15710357966698757  0.5062775439018595  0.5493080411695743  1.0000
  C   C12       1.0  0.34297835509725166  0.3921672231116561  0.8492249764385207  1.0000
  C   C13       1.0  0.4570218305790092  0.45060821022487124  0.6078418369754884  1.0000
  C   C14       1.0  0.042938698475929  0.15080559129680182  0.4936795451319327  1.0000
  C   C15       1.0  0.8428950151392273  0.49372114887160023  0.45069055363664745  1.0000
  C   C16       1.0  0.6570232799650881  0.6078338786197152  0.15077572984341708  1.0000
  C   C17       1.0  0.5438092027754422  0.8234654910383696  0.3517587765498432  1.0000
  C   C18       1.0  0.9561170469479807  0.8079113404278075  0.7798465998379169  1.0000
  C   C19       1.0  0.4718641025563812  0.7798081092296344  0.8236313226974444  1.0000
  C   C20       1.0  0.028107000169043717  0.35166583484441094  0.8079138162573541  1.0000
  C   C21       1.0  0.4561897010626553  0.17653434596233814  0.6482410560686632  1.0000
  C   C22       1.0  0.043883441760485246  0.1920888800491198  0.22015203130973052  1.0000
  C   C23       1.0  0.5281356386037217  0.22019146479827612  0.1763693472430603  1.0000
  C   C24       1.0  0.9718941066031807  0.6483351390615513  0.19208729051486984  1.0000
  C   C25       1.0  0.42889184570526606  0.4464953465239176  0.28563211182206055  1.0000
  C   C26       1.0  0.07117713613214958  0.8567699332010721  0.5174403324458368  1.0000
  C   C27       1.0  0.16070742947705  0.5174620621434869  0.4463343392723047  1.0000
  C   C28       1.0  0.33934388291701373  0.285732062656635  0.8567674476765461  1.0000
  C   C29       1.0  0.5711089520350755  0.5535044831548035  0.7143677571378717  1.0000
  C   C30       1.0  0.928823133318069  0.14323053616497108  0.4825599370043816  1.0000
  C   C31       1.0  0.8392920026511635  0.4825379026826227  0.5536650928559156  1.0000
  C   C32       1.0  0.6606585894673317  0.7142695436146627  0.1432340959273972  1.0000
  C   C33       1.0  0.3866584474059423  0.5891008257820687  0.20932826185144646  1.0000
  C   C34       1.0  0.11329002268672655  0.8226134141107196  0.7024386543795843  1.0000
  C   C35       1.0  0.3797641091942694  0.7024724090491219  0.5891019251360206  1.0000
  C   C36       1.0  0.12013641837837936  0.20940820119773204  0.8226687046013267  1.0000
  C   C37       1.0  0.6133399281420325  0.4108981158805066  0.7906719712573392  1.0000
  C   C38       1.0  0.8867080438293657  0.17738515083733838  0.2975603409169166  1.0000
  C   C39       1.0  0.6202361602559492  0.2975272928041974  0.41089834431419786  1.0000
  C   C40       1.0  0.8798655257158432  0.7905932772481565  0.17733323949289564  1.0000
  C   C41       1.0  0.3506695785297965  0.4675468475894391  0.1934391297639593  1.0000
  C   C42       1.0  0.14934371771909138  0.8427649314023785  0.6167459560969065  1.0000
  C   C43       1.0  0.27402950145674515  0.6168162243800168  0.4674248017117293  1.0000
  C   C44       1.0  0.22594404594486409  0.1935851303220986  0.8427666186457543  1.0000
  C   C45       1.0  0.6493293253083009  0.5324529894112687  0.8065607028545401  1.0000
  C   C46       1.0  0.850655714409129  0.1572350334237315  0.38325347603131377  1.0000
  C   C47       1.0  0.7259712962835964  0.3831843728114209  0.532575067248203  1.0000
  C   C48       1.0  0.7740575891174758  0.8064159714092726  0.1572340876361834  1.0000
  C   C49       1.0  0.30131256784024174  0.6067757234240149  0.10470275859650967  1.0000
  C   C50       1.0  0.19865049126367057  0.8033526359493167  0.80550446385584  1.0000
  C   C51       1.0  0.5021573579778079  0.8055498719682959  0.6068383400939723  1.0000
  C   C52       1.0  0.9977852940990105  0.10470270008264045  0.8033674066158765  1.0000
  C   C53       1.0  0.6986877016099771  0.3932239784292975  0.8952975108537159  1.0000
  C   C54       1.0  0.8013475752524288  0.1966466965114578  0.1944945314406609  1.0000
  C   C55       1.0  0.4978429114724179  0.19445059739774007  0.3931619293562462  1.0000
  C   C56       1.0  0.002214975351215291  0.8952977692833957  0.1966328628343419  1.0000
  N   N1        1.0  0.5766032877070941  0.6655765713686607  0.408395583310508  1.0000
  N   N2        1.0  0.9233972566641954  0.83179086512925  0.5890214496448678  1.0000
  N   N3        1.0  0.2571544921514218  0.5889221778937357  0.6656061093142824  1.0000
  N   N4        1.0  0.2428878459581725  0.40833995048308946  0.8317912796235732  1.0000
  N   N5        1.0  0.4233956161309963  0.3344232656320473  0.5916042493079914  1.0000
  N   N6        1.0  0.07660270375414777  0.16820999503498513  0.41097758199306617  1.0000
  N   N7        1.0  0.7428449399767986  0.41107778693237423  0.3343933228139377  1.0000
  N   N8        1.0  0.7571135698459274  0.5916621676501209  0.16821106496093552  1.0000
  O   O1        1.0  0.45832104707415067  0.8435305571239838  0.28775145410246944  1.0000
  O   O2        1.0  0.04163877710013251  0.8293908262555906  0.885440420794005  1.0000
  O   O3        1.0  0.5559504943214719  0.8853914103221071  0.8437173141745262  1.0000
  O   O4        1.0  0.9438570454583658  0.2876886390931903  0.8293802163891899  1.0000
  O   O5        1.0  0.5416786940859454  0.15646978441664325  0.7122492158380354  1.0000
  O   O6        1.0  0.9583617116083332  0.1706086267086136  0.11455821035364261  1.0000
  O   O7        1.0  0.4440503034188695  0.11460841935661395  0.15628255478540604  1.0000
  O   O8        1.0  0.05614375228197591  0.7123119580982546  0.1706196525707426  1.0000
  O   O9        1.0  0.6625962335104064  0.9061319298664756  0.4405573455024409  1.0000
  O   O10       1.0  0.8373198388916381  0.7779647886247647  0.7437814353186738  1.0000
  O   O11       1.0  0.4657712259751675  0.7437225378369944  0.9063502861977922  1.0000
  O   O12       1.0  0.03435279597609756  0.44044343725208535  0.7780077635009519  1.0000
  O   O13       1.0  0.3374040359398124  0.09386777198684379  0.5594429239477776  1.0000
  O   O14       1.0  0.16268126788058632  0.22203618528119765  0.25621967145354324  1.0000
  O   O15       1.0  0.5342276778629298  0.25627806667642977  0.09364954642070697  1.0000
  O   O16       1.0  0.9656466361521157  0.5595565275740243  0.2219916686272611  1.0000
  O   O17       1.0  0.18196137585282907  0.5598404731827955  0.0714894478987915  1.0000
  O   O18       1.0  0.3179759301527057  0.8894467215771799  0.8778800531692285  1.0000
  O   O19       1.0  0.48849340502980715  0.877888661703537  0.5599621285707953  1.0000
  O   O20       1.0  0.011561306303889258  0.07143681027347518  0.889424113864976  1.0000
  O   O21       1.0  0.8180366906632702  0.44015809176526244  0.9285095473977094  1.0000
  O   O22       1.0  0.6820221363633935  0.11055107585815457  0.12211894212727253  1.0000
  O   O23       1.0  0.5115060270984061  0.12211053560984912  0.4400373035574248  1.0000
  O   O24       1.0  0.988438125824331  0.9285623870399178  0.11057531826323691  1.0000
  O   O25       1.0  0.35693681007970923  0.6602030946643609  0.0527733009208475  1.0000
  O   O26       1.0  0.14315135585654573  0.6959035924197183  0.8033061784476843  1.0000
  O   O27       1.0  0.6074742308313007  0.8033901647500488  0.6601843764913795  1.0000
  O   O28       1.0  0.8924689086317489  0.05269297913436351  0.6958600281684185  1.0000
  O   O29       1.0  0.643062402790264  0.339796351538148  0.9472277695099438  1.0000
  O   O30       1.0  0.8568453450474253  0.3040943401630046  0.19669238001710448  1.0000
  O   O31       1.0  0.3925260386189251  0.1966103046159873  0.33981589295883907  1.0000
  O   O32       1.0  0.10753136081847008  0.9473082577443961  0.3041402412818002  1.0000
