data_image0
_chemical_formula_structural       Zn2H12C20N2O10
_chemical_formula_sum              "Zn2 H12 C20 N2 O10"
_cell_length_a       9.65520762840687
_cell_length_b       11.055112568576353
_cell_length_c       11.149269295509196
_cell_angle_alpha    89.00723273797142
_cell_angle_beta     88.82567967322348
_cell_angle_gamma    87.33196682523261

_space_group_name_H-M_alt    "P 1"
_space_group_IT_number       1

loop_
  _space_group_symop_operation_xyz
  'x, y, z'

loop_
  _atom_site_type_symbol
  _atom_site_label
  _atom_site_symmetry_multiplicity
  _atom_site_fract_x
  _atom_site_fract_y
  _atom_site_fract_z
  _atom_site_occupancy
  Zn  Zn1       1.0  0.3455962548227092  0.5091228242272334  0.4925994650847443  1.0000
  Zn  Zn2       1.0  0.6334862855508304  0.4948688439385337  0.48626804199889767  1.0000
  H   H1        1.0  0.7019645118347525  0.5024708305930047  0.8745079286961615  1.0000
  H   H2        1.0  0.1404957496463766  0.345412248659855  0.3976660718084091  1.0000
  H   H3        1.0  0.6859069563599433  0.21626555238800904  0.33210752826757783  1.0000
  H   H4        1.0  0.7191289055720559  0.8198972571739488  0.2953320846730208  1.0000
  H   H5        1.0  0.703062705523699  0.4776431958891579  0.09452426200829932  1.0000
  H   H6        1.0  0.38425971644912943  0.49085174954992533  0.8937090734814748  1.0000
  H   H7        1.0  0.3859321839808985  0.5225635507869839  0.08956862048341921  1.0000
  H   H8        1.0  0.29478999267420397  0.8969396760989455  0.584124536438715  1.0000
  H   H9        1.0  0.30050512340535107  0.12377976682026309  0.5874622890563331  1.0000
  H   H10       1.0  0.8392973052537511  0.6643291897087664  0.5740217587424682  1.0000
  H   H11       1.0  0.8767058997738955  0.3380536970786067  0.3932192377873847  1.0000
  H   H12       1.0  0.10252574078767647  0.6727397157503036  0.57527499764295  1.0000
  C   C1        1.0  0.4900761150665502  0.26407804133776114  0.4884680396065876  1.0000
  C   C2        1.0  0.6010297041797869  0.9313844540091124  0.4335017195850456  1.0000
  C   C3        1.0  0.48915528946391607  0.8742186730440692  0.4887092044843798  1.0000
  C   C4        1.0  0.4910077513365962  0.12807399699112654  0.48455612769304685  1.0000
  C   C5        1.0  0.38049281737337276  0.9439802745336722  0.5424174543330552  1.0000
  C   C6        1.0  0.38282900646259316  0.06947363829782918  0.5430530931183739  1.0000
  C   C7        1.0  0.9069193201722214  0.5930217378680281  0.5355301711326348  1.0000
  C   C8        1.0  0.9280617037331851  0.41208102436019806  0.4344511708420812  1.0000
  C   C9        1.0  0.050942642385088305  0.5976198779774293  0.5362595183741661  1.0000
  C   C10       1.0  0.07164497382130008  0.41616169692945  0.43601677756734614  1.0000
  C   C11       1.0  0.6969956858578354  0.11627124319257831  0.34222763775159143  1.0000
  C   C12       1.0  0.4818844012462407  0.739065051395947  0.4877641977322541  1.0000
  C   C13       1.0  0.726809103920992  0.8589986765737336  0.38592522042666394  1.0000
  C   C14       1.0  0.4960185736036209  0.4988515587569538  0.257008639989678  1.0000
  C   C15       1.0  0.49187624063382157  0.5021723580687337  0.7212003304798248  1.0000
  C   C16       1.0  0.6018305800353686  0.4985769097243633  0.9215975410034859  1.0000
  C   C17       1.0  0.6025681727403691  0.4920969899993892  0.05183307513733842  1.0000
  C   C18       1.0  0.4876853820211124  0.49787356607560435  0.8537902949731874  1.0000
  C   C19       1.0  0.4895558410341108  0.5043978457746263  0.12468972029630983  1.0000
  C   C20       1.0  0.5978360125131701  0.059080734971239196  0.42574287390583987  1.0000
  N   N1        1.0  0.13180698065630736  0.5088323925318647  0.4876716983300469  1.0000
  N   N2        1.0  0.8469742420218438  0.49992053484523075  0.4850884169461978  1.0000
  O   O1        1.0  0.37390140047841663  0.3202614145443619  0.4730304167882552  1.0000
  O   O2        1.0  0.8304396188350153  0.8429535484728845  0.44695550887804103  1.0000
  O   O3        1.0  0.36673540865425736  0.6940837546947307  0.5162776867178495  1.0000
  O   O4        1.0  0.6049033399776248  0.3110515387830688  0.5096122544741634  1.0000
  O   O5        1.0  0.5925367275741066  0.679445931582677  0.45620472062122996  1.0000
  O   O6        1.0  0.3818603627194221  0.5257969658495724  0.3128620281252026  1.0000
  O   O7        1.0  0.376183510308877  0.48594343768800025  0.6711482083053755  1.0000
  O   O8        1.0  0.6113680761023161  0.46911553152522595  0.3061474446817699  1.0000
  O   O9        1.0  0.6065961975527898  0.5205836063477562  0.6663211398057102  1.0000
  O   O10       1.0  0.7828175508168015  0.05742615894734368  0.28127843022110005  1.0000
