data_image0
_chemical_formula_structural       Al2H14C26N2Cl2O10
_chemical_formula_sum              "Al2 H14 C26 N2 Cl2 O10"
_cell_length_a       6.637264241909338
_cell_length_b       13.05339155723709
_cell_length_c       16.909897363400553
_cell_angle_alpha    84.13778706499822
_cell_angle_beta     82.90882002945335
_cell_angle_gamma    78.17070892351529

_space_group_name_H-M_alt    "P 1"
_space_group_IT_number       1

loop_
  _space_group_symop_operation_xyz
  'x, y, z'

loop_
  _atom_site_type_symbol
  _atom_site_label
  _atom_site_symmetry_multiplicity
  _atom_site_fract_x
  _atom_site_fract_y
  _atom_site_fract_z
  _atom_site_occupancy
  Al  Al1       1.0  0.4999970401246258  0.5000053858084073  0.4999980641415291  1.0000
  Al  Al2       1.0  0.9999956896076229  0.5000060041975729  0.5000032403648405  1.0000
  H   H1        1.0  0.261866771037212  0.5556346348815069  0.40150434815153363  1.0000
  H   H2        1.0  0.7381023497266452  0.44437085914854174  0.5984980944333957  1.0000
  H   H3        1.0  0.8928416536876044  0.4557188836870906  0.7379006721834501  1.0000
  H   H4        1.0  0.8327014349364459  0.4467306732741889  0.8872393488476221  1.0000
  H   H5        1.0  0.34963362637105166  0.5981985510260515  0.8909630667977668  1.0000
  H   H6        1.0  0.6504011981416085  0.40179549457093333  0.10903080918314602  1.0000
  H   H7        1.0  0.16734030297454444  0.5532686647375441  0.11276332582057343  1.0000
  H   H8        1.0  0.1071781211453312  0.5442785700732884  0.2621026378772697  1.0000
  H   H9        1.0  0.31468082131390646  0.8242129525286402  0.5325374983073276  1.0000
  H   H10       1.0  0.956489853872739  0.8069901121069307  0.4459676999132825  1.0000
  H   H11       1.0  0.9105885639627898  0.0020550032464114955  0.4410540796386968  1.0000
  H   H12       1.0  0.685252525635434  0.17579738233884964  0.4674487229701967  1.0000
  H   H13       1.0  0.04347001607262504  0.19301917190593093  0.5540355774540515  1.0000
  H   H14       1.0  0.08935537428261126  0.9979558137752845  0.5589445903645756  1.0000
  C   C1        1.0  0.6692501402624343  0.6889281921888327  0.48959690417420626  1.0000
  C   C2        1.0  0.8111122581719314  0.4777120515459501  0.3585935424818345  1.0000
  C   C3        1.0  0.33071631927543177  0.31107977926448177  0.5104013844463611  1.0000
  C   C4        1.0  0.18893448028322962  0.5222827282084667  0.6414061925866292  1.0000
  C   C5        1.0  0.15819771561125848  0.527814641072112  0.7300565722768014  1.0000
  C   C6        1.0  0.9934762589676396  0.48554282522222525  0.7723835610446488  1.0000
  C   C7        1.0  0.9589204632580246  0.48067667822704857  0.854939257387102  1.0000
  C   C8        1.0  0.09021388150959808  0.5208730055973803  0.8977595271031263  1.0000
  C   C9        1.0  0.2519031995336505  0.5657677880438569  0.8568794556047976  1.0000
  C   C10       1.0  0.286531966825791  0.5690349359337503  0.7736908086090397  1.0000
  C   C11       1.0  0.7481425034092339  0.4342223438574563  0.1431176515087813  1.0000
  C   C12       1.0  0.9098282960181902  0.4791217487064259  0.10223925774860732  1.0000
  C   C13       1.0  0.041125246261245245  0.5193171275733591  0.14506532074378953  1.0000
  C   C14       1.0  0.00655165303531647  0.5144499689669145  0.2276207974201867  1.0000
  C   C15       1.0  0.8418290931093464  0.47217358875639087  0.2699427903324221  1.0000
  C   C16       1.0  0.7135059604276819  0.4309590500955451  0.22630587142536737  1.0000
  C   C17       1.0  0.4439781733007063  0.8639620854730838  0.5132070490793055  1.0000
  C   C18       1.0  0.8068624729134367  0.855692277649702  0.4637794730560572  1.0000
  C   C19       1.0  0.7809505712063537  0.9631344883925834  0.46172751747251084  1.0000
  C   C20       1.0  0.5858289787990074  0.025507611229478807  0.4866941903933508  1.0000
  C   C21       1.0  0.5559640865054191  0.13604891788082799  0.48678577908336257  1.0000
  C   C22       1.0  0.1930962570841999  0.14432281297665378  0.5362152332991458  1.0000
  C   C23       1.0  0.21898818012719803  0.0368811164907115  0.5382675804034918  1.0000
  C   C24       1.0  0.41409869547249645  0.9745088301624776  0.5132955037595508  1.0000
  C   C25       1.0  0.6366767833973693  0.8053784447882323  0.4891507950990786  1.0000
  C   C26       1.0  0.3632974594156907  0.19463230699278708  0.510838650352369  1.0000
  N   N1        1.0  0.07263175253499539  0.5209785248267879  0.9819056529700562  1.0000
  N   N2        1.0  0.9274136077678178  0.479019393208155  0.018093964699332308  1.0000
  Cl  Cl1       1.0  0.48403531673935857  0.6291407047737465  0.7274995507701691  1.0000
  Cl  Cl2       1.0  0.516006575546001  0.3708440751451221  0.2724915617096216  1.0000
  O   O1        1.0  0.5109576252991843  0.646144161601853  0.5026442856081701  1.0000
  O   O2        1.0  0.9739018240077044  0.465017999334833  0.39398790958244945  1.0000
  O   O3        1.0  0.14366649591163844  0.35953350870843087  0.5242927201008385  1.0000
  O   O4        1.0  0.3736286293272926  0.5006982302911211  0.6085472669763379  1.0000
  O   O5        1.0  0.4890188202825314  0.35386171577344777  0.49735007174333395  1.0000
  O   O6        1.0  0.02611384367682488  0.534985153621804  0.6060087612141061  1.0000
  O   O7        1.0  0.8563180614294622  0.6404784263044618  0.47571151262732775  1.0000
  O   O8        1.0  0.6263912594248919  0.4993024050218509  0.3914552557989168  1.0000
  O   O9        1.0  0.24603961664706014  0.5419526610734523  0.459127563465742  1.0000
  O   O10       1.0  0.7539578158023731  0.4580610655433475  0.5408753173867993  1.0000
