data_image0
_chemical_formula_structural       CuH12C16N10O4
_chemical_formula_sum              "Cu1 H12 C16 N10 O4"
_cell_length_a       6.744113449443069
_cell_length_b       8.553248061572303
_cell_length_c       8.598575392885119
_cell_angle_alpha    93.06344848377607
_cell_angle_beta     108.94746318250735
_cell_angle_gamma    104.26012827771582

_space_group_name_H-M_alt    "P 1"
_space_group_IT_number       1

loop_
  _space_group_symop_operation_xyz
  'x, y, z'

loop_
  _atom_site_type_symbol
  _atom_site_label
  _atom_site_symmetry_multiplicity
  _atom_site_fract_x
  _atom_site_fract_y
  _atom_site_fract_z
  _atom_site_occupancy
  Cu  Cu1       1.0  1.1152006607319633e-06  0.9999977244845792  2.0221022438584254e-06  1.0000
  H   H1        1.0  0.9440629517033656  0.494650121347277  0.3121823039441694  1.0000
  H   H2        1.0  0.05593690361586569  0.5053510940415219  0.6878147830454753  1.0000
  H   H3        1.0  0.792142564080585  0.49933454702112806  0.10093989537607946  1.0000
  H   H4        1.0  0.20786263091479643  0.5006642314973107  0.8990560645469048  1.0000
  H   H5        1.0  0.8624975880593553  0.07129536565361859  0.6572680202913477  1.0000
  H   H6        1.0  0.13750212479634882  0.9287010005964758  0.3427369175500418  1.0000
  H   H7        1.0  0.043453860377397305  0.19666289855720717  0.4643915218380671  1.0000
  H   H8        1.0  0.9565364127303937  0.803333446714319  0.5356087427174573  1.0000
  H   H9        1.0  0.44939256967617786  0.33512784439608356  0.5798064807480758  1.0000
  H   H10       1.0  0.5505983561037908  0.6648745840306559  0.42019077675258404  1.0000
  H   H11       1.0  0.6508108801974332  0.34342444752981993  0.8754049847768572  1.0000
  H   H12       1.0  0.34918538525869286  0.6565755440265661  0.1245911456571349  1.0000
  C   C1        1.0  0.8440314012107919  0.41906857866517555  0.19213429590801218  1.0000
  C   C2        1.0  0.15597270679900524  0.5809314242387199  0.8078637842868732  1.0000
  C   C3        1.0  0.9844955106311132  0.32710785065395936  0.133277919490382  1.0000
  C   C4        1.0  0.015509288889646268  0.6728897232941762  0.8667225309268789  1.0000
  C   C5        1.0  0.3644481154068017  0.21202057730730658  0.9268768625359346  1.0000
  C   C6        1.0  0.6355503957292754  0.7879769838820464  0.07312086128621328  1.0000
  C   C7        1.0  0.037076446636603984  0.13291376156799112  0.7013985767098705  1.0000
  C   C8        1.0  0.9629189705032671  0.8670838061246824  0.29860186756710055  1.0000
  C   C9        1.0  0.13957705044484922  0.20305207287039195  0.5946253064377205  1.0000
  C   C10       1.0  0.8604152583570652  0.7969454976448203  0.4053766915076765  1.0000
  C   C11       1.0  0.36259886251156087  0.27942091255560786  0.6585471588091141  1.0000
  C   C12       1.0  0.6373963159589735  0.7205803033862281  0.3414510918967793  1.0000
  C   C13       1.0  0.4769288794301545  0.28341775777998623  0.8265859030487024  1.0000
  C   C14       1.0  0.5230674147094803  0.7165822411379493  0.17341256095807722  1.0000
  C   C15       1.0  0.4656661844533189  0.21255466667845002  0.10519989798011413  1.0000
  C   C16       1.0  0.5343368365708869  0.7874465606109025  0.8948003024866795  1.0000
  N   N1        1.0  0.146473964215879  0.13702132447981089  0.8630708327630858  1.0000
  N   N2        1.0  0.8535265969560797  0.8629774656340032  0.13692979123533183  1.0000
  N   N3        1.0  0.36733422860960724  0.11645004876679364  0.19166557020240302  1.0000
  N   N4        1.0  0.6326672239038587  0.883551176253057  0.8083342403122133  1.0000
  N   N5        1.0  0.4984622548146548  0.15601089937316456  0.3523718378758077  1.0000
  N   N6        1.0  0.5015427875619167  0.8439915494790923  0.6476289291944684  1.0000
  N   N7        1.0  0.6736503240687952  0.27206295537270353  0.36868498792779303  1.0000
  N   N8        1.0  0.3263531211135343  0.7279394838485015  0.6313130556175113  1.0000
  N   N9        1.0  0.6564883915932143  0.3100518178365375  0.214457881326311  1.0000
  N   N10       1.0  0.34351663644159913  0.6899506273349444  0.7855417189575677  1.0000
  O   O1        1.0  0.1666185078033705  0.40996877648547764  0.1383498271691437  1.0000
  O   O2        1.0  0.8333840316956869  0.5900312241489158  0.8616478630735644  1.0000
  O   O3        1.0  0.8912209849387763  0.17436122080866306  0.08412782890426489  1.0000
  O   O4        1.0  0.10878546914324258  0.825636377493616  0.9158800121835359  1.0000
