data_image0
_chemical_formula_structural       Zn8H40C80O42
_chemical_formula_sum              "Zn8 H40 C80 O42"
_cell_length_a       23.810920653894378
_cell_length_b       23.81235012827419
_cell_length_c       23.810807330098786
_cell_angle_alpha    66.3408484531892
_cell_angle_beta     72.58711333613877
_cell_angle_gamma    107.42233860365093

_space_group_name_H-M_alt    "P 1"
_space_group_IT_number       1

loop_
  _space_group_symop_operation_xyz
  'x, y, z'

loop_
  _atom_site_type_symbol
  _atom_site_label
  _atom_site_symmetry_multiplicity
  _atom_site_fract_x
  _atom_site_fract_y
  _atom_site_fract_z
  _atom_site_occupancy
  Zn  Zn1       1.0  0.05600052318299475  0.9560205308133121  0.4879900044704825  1.0000
  Zn  Zn2       1.0  0.05599830086286061  0.0999796957997674  0.45602287161855054  1.0000
  Zn  Zn3       1.0  0.9439942002959965  0.9879865083459191  0.4560131884016697  1.0000
  Zn  Zn4       1.0  0.9440132841940072  0.9560183755695703  0.5999818614785823  1.0000
  Zn  Zn5       1.0  0.9440006967081446  0.5439810192495642  0.012008526010205828  1.0000
  Zn  Zn6       1.0  0.056006579955521746  0.5120146024654914  0.04398522929677282  1.0000
  Zn  Zn7       1.0  0.9439996995496074  0.40002013886289245  0.04398254171249486  1.0000
  Zn  Zn8       1.0  0.05598637479661748  0.5439782222041528  0.9000176613055544  1.0000
  H   H1        1.0  0.923688717560914  0.7981376505112577  0.7781655898051485  1.0000
  H   H2        1.0  0.07631373334709926  0.7018633098365752  0.721833035352013  1.0000
  H   H3        1.0  0.9236879492660819  0.7018564124754433  0.8744491716233965  1.0000
  H   H4        1.0  0.07631450164193845  0.7981445478723898  0.6255494535337718  1.0000
  H   H5        1.0  0.9236880158250786  0.1255531063558665  0.29812828291058924  1.0000
  H   H6        1.0  0.07631466663189465  0.374449863974661  0.20187111341225258  1.0000
  H   H7        1.0  0.9236909823011741  0.22183653475051557  0.20184694727654323  1.0000
  H   H8        1.0  0.07631238153842194  0.2781665954181279  0.29815218046424957  1.0000
  H   H9        1.0  0.922665412660145  0.7150250857097336  0.1749635271268698  1.0000
  H   H10       1.0  0.07731884573885843  0.6749485039674211  0.2150671810551756  1.0000
  H   H11       1.0  0.9226721520688841  0.8250401695057404  0.2849433329958446  1.0000
  H   H12       1.0  0.07727383711861778  0.7848980203553706  0.32511386807556164  1.0000
  H   H13       1.0  0.07733712587278052  0.40234392389487533  0.7076551797586816  1.0000
  H   H14       1.0  0.9226801785827732  0.20761049938489856  0.9023816694219632  1.0000
  H   H15       1.0  0.07727805974840148  0.2923764625736922  0.5976313998164001  1.0000
  H   H16       1.0  0.9226742348599117  0.09762975089580546  0.7923732465281432  1.0000
  H   H17       1.0  0.6099983884274636  0.4023647768697031  0.1749276071254043  1.0000
  H   H18       1.0  0.6099925535250535  0.2076191809201689  0.2150694654750466  1.0000
  H   H19       1.0  0.39000911827764645  0.29238596265216193  0.2849159296539979  1.0000
  H   H20       1.0  0.39000042824299197  0.0976534085242378  0.3249942339013642  1.0000
  H   H21       1.0  0.39001073078249965  0.6749054700643099  0.9023644905255211  1.0000
  H   H22       1.0  0.38999628880591797  0.7150583084105975  0.7076101842171311  1.0000
  H   H23       1.0  0.6100055232597157  0.7849310282746556  0.7923920037366655  1.0000
  H   H24       1.0  0.6099897320710354  0.8250150625813715  0.5976529138569333  1.0000
  H   H25       1.0  0.9198115823375447  0.6278172793168725  0.08605593383983735  1.0000
  H   H26       1.0  0.08017945424230531  0.5860450411443523  0.12785449760024648  1.0000
  H   H27       1.0  0.9198152586379252  0.9139478856500604  0.3721515248997135  1.0000
  H   H28       1.0  0.0801306134677446  0.8721119267100262  0.41401604543745674  1.0000
  H   H29       1.0  0.0801937261297779  0.49410094188155534  0.792013883477992  1.0000
  H   H30       1.0  0.9198263168727935  0.291962236080984  0.9941472620172077  1.0000
  H   H31       1.0  0.08013000880759345  0.20802123738256034  0.5058681921173616  1.0000
  H   H32       1.0  0.9198135463197945  0.005871778304260997  0.7080148925963669  1.0000
  H   H33       1.0  0.7861163040739994  0.4941223192324315  0.08602671167435014  1.0000
  H   H34       1.0  0.7861095131948517  0.2919723968431  0.1278599063672914  1.0000
  H   H35       1.0  0.2138917189008822  0.20803228388380998  0.3721321050715147  1.0000
  H   H36       1.0  0.21388532571874214  0.005894473966748104  0.4139023976406122  1.0000
  H   H37       1.0  0.21389218864214846  0.5860073840288604  0.9941174927151551  1.0000
  H   H38       1.0  0.21388022001865176  0.627850114912384  0.7919577932277875  1.0000
  H   H39       1.0  0.786122098107164  0.8721433960429438  0.7080413196634578  1.0000
  H   H40       1.0  0.786105835568023  0.9139216945698935  0.5058964005314834  1.0000
  C   C1        1.0  0.18363494388568577  0.09183115223671484  0.40817372934415624  1.0000
  C   C2        1.0  0.9999984448071119  0.13929043088767665  0.36071075495006244  1.0000
  C   C3        1.0  0.9999874465431804  0.9081772735673467  0.40819063258776817  1.0000
  C   C4        1.0  0.8163684687437112  0.9081697813320558  0.5918392973619716  1.0000
  C   C5        1.0  3.6051875154656372e-06  0.8607102287181333  0.6392897713044049  1.0000
  C   C6        1.0  0.999991123981836  0.09181698312004731  0.5918200323769085  1.0000
  C   C7        1.0  0.9999988861870647  0.5918050172967353  0.09182561414269247  1.0000
  C   C8        1.0  4.237637242003806e-06  0.3607125350189833  0.13928990307752537  1.0000
  C   C9        1.0  0.8163648378614355  0.4081752433104384  0.09180963550586078  1.0000
  C   C10       1.0  0.9999910220801032  0.40816080342220573  0.9082034691056861  1.0000
  C   C11       1.0  0.9999977685362397  0.6392891315127187  0.860708975278257  1.0000
  C   C12       1.0  0.1836332543945288  0.5918111108317844  0.908161661678598  1.0000
  C   C13       1.0  2.0457980339117496e-06  0.8034842244521483  0.6965144351843761  1.0000
  C   C14       1.0  5.19656900531139e-07  0.6965169797547048  0.8034843711786124  1.0000
  C   C15       1.0  0.956827902098695  0.7766637262509946  0.766504266887466  1.0000
  C   C16       1.0  0.043175230187735204  0.723337392460337  0.7334945102559018  1.0000
  C   C17       1.0  0.9568273567940652  0.7233329017800186  0.8198363224295804  1.0000
  C   C18       1.0  0.04317597339740319  0.7766689385453701  0.6801621077238166  1.0000
  C   C19       1.0  1.4815255866455723e-06  0.19651700458740606  0.3034840528388258  1.0000
  C   C20       1.0  2.2386039333167465e-06  0.3034860900269081  0.19651487474351367  1.0000
  C   C21       1.0  0.9568287628287988  0.18016495105133135  0.2766585048591423  1.0000
  C   C22       1.0  0.043175282397633935  0.31983834043006  0.22333993373135994  1.0000
  C   C23       1.0  0.95683042913884  0.2334963687134035  0.22332797579021954  1.0000
  C   C24       1.0  0.04317385782638887  0.26650664188002077  0.2766705020042437  1.0000
  C   C25       1.0  0.9999952231645038  0.6281760573481563  0.1282035006459238  1.0000
  C   C26       1.0  0.9562384129150913  0.658166414225377  0.13538498567434237  1.0000
  C   C27       1.0  0.9564967434958549  0.6929713120966313  0.1703996163082378  1.0000
  C   C28       1.0  0.9999912407415794  0.6991663176689827  0.19919717608740933  1.0000
  C   C29       1.0  0.04348997795700157  0.6703791008868194  0.19300569831116127  1.0000
  C   C30       1.0  0.04374982807528475  0.6353669566131757  0.15820170873262643  1.0000
  C   C31       1.0  0.9999880751189849  0.7346751036833081  0.2347113956784101  1.0000
  C   C32       1.0  0.9999811764943592  0.7652832253716116  0.2653300330662985  1.0000
  C   C33       1.0  0.9999744498747488  0.8007894836553932  0.3008475904561933  1.0000
  C   C34       1.0  0.9564941608382824  0.8295984947400113  0.30701591134252476  1.0000
  C   C35       1.0  0.9562326623779711  0.8646116012527757  0.34182043325549927  1.0000
  C   C36       1.0  0.9999799417488686  0.8717887316076939  0.37183105648118436  1.0000
  C   C37       1.0  0.04371510343850064  0.8417715402825504  0.36467548429379093  1.0000
  C   C38       1.0  0.04345409113155082  0.8069649902344337  0.3296652581597641  1.0000
  C   C39       1.0  4.645762729194731e-06  0.37178519943151395  0.8718326978139643  1.0000
  C   C40       1.0  0.043764607437374564  0.4083518060322718  0.7980886467652794  1.0000
  C   C41       1.0  0.04350839221950755  0.37308290080962786  0.7635391970438405  1.0000
  C   C42       1.0  7.661222049612679e-06  0.30079605971331347  0.8008397066931181  1.0000
  C   C43       1.0  0.9565137464439458  0.263495721022899  0.8731246439694259  1.0000
  C   C44       1.0  0.9562544722652433  0.2980370766321982  0.9083986588471548  1.0000
  C   C45       1.0  2.992899438472493e-07  0.2652919010144359  0.7653247096339868  1.0000
  C   C46       1.0  0.9999889066254183  0.23468471288885678  0.7346995486570478  1.0000
  C   C47       1.0  0.9999784897733123  0.19918220662800215  0.6991831320612505  1.0000
  C   C48       1.0  0.043457899010015004  0.23648896529181931  0.6268907597709799  1.0000
  C   C49       1.0  0.04371556866783522  0.2019475649957556  0.591618925126383  1.0000
  C   C50       1.0  0.9999795275011181  0.12819632093942349  0.6281881794100032  1.0000
  C   C51       1.0  0.9562308623766144  0.09162322268719687  0.7019389791199089  1.0000
  C   C52       1.0  0.9564948145505741  0.12689360819044992  0.7364846725063072  1.0000
  C   C53       1.0  0.7436175792443152  0.3718011415970963  0.1281886817666021  1.0000
  C   C54       1.0  0.7064390258976659  0.40837196441009377  0.135362485582938  1.0000
  C   C55       1.0  0.6366227760770187  0.3731018370463131  0.17037285882859982  1.0000
  C   C56       1.0  0.6016364097748054  0.3008132937519008  0.19917550975002737  1.0000
  C   C57       1.0  0.636619520417007  0.2635075311078339  0.1930004834576735  1.0000
  C   C58       1.0  0.706435020806559  0.2980499126163138  0.1581991981339996  1.0000
  C   C59       1.0  0.5306136566846718  0.2653072898534248  0.23467669016963552  1.0000
  C   C60       1.0  0.46938795032347264  0.23470469651788775  0.26527575989180713  1.0000
  C   C61       1.0  0.398365593051814  0.1992001387967619  0.30077540519496887  1.0000
  C   C62       1.0  0.36338032784748003  0.23650263337423638  0.30697002047780586  1.0000
  C   C63       1.0  0.2935651568348021  0.20195795565139457  0.34177506137107366  1.0000
  C   C64       1.0  0.2563822252200724  0.12821003718397614  0.37177807142894176  1.0000
  C   C65       1.0  0.2935601199981549  0.09164387168308248  0.3645782514704266  1.0000
  C   C66       1.0  0.3633788536483849  0.12691493255891123  0.32956297957836256  1.0000
  C   C67       1.0  0.2563806218461906  0.6281774395006109  0.871795338835163  1.0000
  C   C68       1.0  0.2935677179278997  0.6353427433592174  0.908369213319247  1.0000
  C   C69       1.0  0.36338037775921345  0.6703499822560912  0.873100526629969  1.0000
  C   C70       1.0  0.39836385674421865  0.6991600386344956  0.8008083007922693  1.0000
  C   C71       1.0  0.36337363892462815  0.6929893407205513  0.763500513602544  1.0000
  C   C72       1.0  0.293558790904335  0.6581867509407289  0.798041981942923  1.0000
  C   C73       1.0  0.46938663241272854  0.7346707771043556  0.7653043874704223  1.0000
  C   C74       1.0  0.5306143177484731  0.7652805600372404  0.7347094180770098  1.0000
  C   C75       1.0  0.6016373351726187  0.8007910235176253  0.6992038616861366  1.0000
  C   C76       1.0  0.6366271823265349  0.8069859280466145  0.7365058967535276  1.0000
  C   C77       1.0  0.7064446682097978  0.8417911621829574  0.7019625816970889  1.0000
  C   C78       1.0  0.7436211212328699  0.8717872468942715  0.628213750163475  1.0000
  C   C79       1.0  0.7064360003082514  0.864597770785025  0.5916463915463482  1.0000
  C   C80       1.0  0.6366172293434217  0.8295833754417427  0.6269151471829488  1.0000
  O   O1        1.0  0.9999993141823111  3.637349764700018e-07  0.5000000734936875  1.0000
  O   O2        1.0  0.1520492507413707  0.025168187615058474  0.43441230119326235  1.0000
  O   O3        1.0  0.04037156337596311  0.15729701895564568  0.3830757755398508  1.0000
  O   O4        1.0  0.9595648457792978  0.9344196679060133  0.4135287345705833  1.0000
  O   O5        1.0  0.15204942870802543  0.12690333735643122  0.4135415112062688  1.0000
  O   O6        1.0  0.04042089179272093  0.9135361721448662  0.434424080612203  1.0000
  O   O7        1.0  0.9596214692399061  0.07655769948692653  0.38307030766814165  1.0000
  O   O8        1.0  0.847948822457809  0.9344013293073558  0.5251771708536308  1.0000
  O   O9        1.0  0.9596342582908194  0.8830714840111253  0.6572993467318184  1.0000
  O   O10       1.0  0.8479578726999648  0.9135306215061264  0.6269167044843085  1.0000
  O   O11       1.0  0.04037461086762293  0.8830729146021027  0.5765567409309256  1.0000
  O   O12       1.0  0.04042138385568712  0.1268924156519873  0.5251595293942016  1.0000
  O   O13       1.0  0.9595752406918194  0.025151667486660693  0.6268987409633695  1.0000
  O   O14       1.0  5.548506010449374e-07  0.5000000627228686  0.999999312350603  1.0000
  O   O15       1.0  0.9595648740891961  0.5864461983162457  0.06559387761087267  1.0000
  O   O16       1.0  0.0403793669616022  0.4234455085194284  0.11693080911561532  1.0000
  O   O17       1.0  0.8479496051012347  0.3730991161460793  0.08645876825459453  1.0000
  O   O18       1.0  0.040434857279542755  0.5655798398391666  0.08647064568985743  1.0000
  O   O19       1.0  0.8479512124094201  0.4748383751433209  0.06556869223346243  1.0000
  O   O20       1.0  0.959630921167566  0.34270522681158155  0.11692480890946647  1.0000
  O   O21       1.0  0.9595539314550834  0.37308703419649447  0.97486273655511  1.0000
  O   O22       1.0  0.04036491721799961  0.6169256740639071  0.8427005182126449  1.0000
  O   O23       1.0  0.0404160970305369  0.47482341797771  0.8731263251059004  1.0000
  O   O24       1.0  0.9596267190181468  0.616927446656142  0.9234420400260459  1.0000
  O   O25       1.0  0.1520518234961657  0.5655779627394892  0.9748239096124393  1.0000
  O   O26       1.0  0.1520437866131842  0.5864674612332194  0.8730807852232516  1.0000
  O   O27       1.0  0.9134562376826593  0.6540875310744311  0.108871554432746  1.0000
  O   O28       1.0  0.08653351950440677  0.6088609657929708  0.15412707793085187  1.0000
  O   O29       1.0  0.9134597203562435  0.8911289088086104  0.34588228338405713  1.0000
  O   O30       1.0  0.08647670296495848  0.8458276644885316  0.3912155092084858  1.0000
  O   O31       1.0  0.0865543956263152  0.4776388414175229  0.7593890086071085  1.0000
  O   O32       1.0  0.9134746410920372  0.2593348866779692  0.9776883799190158  1.0000
  O   O33       1.0  0.08647786063503564  0.24065209028799472  0.5223234686000637  1.0000
  O   O34       1.0  0.9134556461748958  0.022333511194894257  0.7406403410377534  1.0000
  O   O35       1.0  0.7370297475725922  0.4776633717118842  0.10884260344483465  1.0000
  O   O36       1.0  0.737022527924239  0.2593449136923381  0.15413611601208302  1.0000
  O   O37       1.0  0.2629781769064294  0.24066134753336144  0.34585080457411266  1.0000
  O   O38       1.0  0.2629719487080493  0.02235718009985992  0.3910765889333375  1.0000
  O   O39       1.0  0.262978924191323  0.6088103205254213  0.9776643622902412  1.0000
  O   O40       1.0  0.26296594763744724  0.6541215034090371  0.759334468731076  1.0000
  O   O41       1.0  0.7370365019728313  0.8458689941417391  0.7406674850149881  1.0000
  O   O42       1.0  0.737017998945845  0.8911019561640358  0.5223569755777786  1.0000
