data_image0
_chemical_formula_structural       Ag4H32C28S4N20O12
_chemical_formula_sum              "Ag4 H32 C28 S4 N20 O12"
_cell_length_a       8.971658159673693
_cell_length_b       8.971629356719907
_cell_length_c       14.130746387424637
_cell_angle_alpha    91.10579235396214
_cell_angle_beta     91.10550500186287
_cell_angle_gamma    103.7576602481182

_space_group_name_H-M_alt    "P 1"
_space_group_IT_number       1

loop_
  _space_group_symop_operation_xyz
  'x, y, z'

loop_
  _atom_site_type_symbol
  _atom_site_label
  _atom_site_symmetry_multiplicity
  _atom_site_fract_x
  _atom_site_fract_y
  _atom_site_fract_z
  _atom_site_occupancy
  Ag  Ag1       1.0  0.8588210958082171  0.8564744966638502  0.7874194333655707  1.0000
  Ag  Ag2       1.0  0.1435262354596389  0.14117708415255947  0.7125794476245773  1.0000
  Ag  Ag3       1.0  0.14117629960588118  0.14352541764100119  0.2125804051175066  1.0000
  Ag  Ag4       1.0  0.8564728428179434  0.8588251252277602  0.2874197447203101  1.0000
  H   H1        1.0  0.08705119877483719  0.6893696684670375  0.24841304522928448  1.0000
  H   H2        1.0  0.3106287566147757  0.9129424620987268  0.2515858043801984  1.0000
  H   H3        1.0  0.912947324381683  0.3106302526618024  0.7515853954099467  1.0000
  H   H4        1.0  0.6893675062494751  0.08705285340203524  0.7484146531032323  1.0000
  H   H5        1.0  0.10831576006597032  0.6799590897479819  0.7919449904283056  1.0000
  H   H6        1.0  0.3200426954119777  0.8916814773447541  0.7080540843314082  1.0000
  H   H7        1.0  0.8916830443690387  0.3200419792234541  0.20805347232847984  1.0000
  H   H8        1.0  0.6799596991696929  0.10832068560411301  0.29194728171695056  1.0000
  H   H9        1.0  0.3110657644382683  0.5503293488420695  0.8622328388016242  1.0000
  H   H10       1.0  0.44966926576704214  0.68892797363754  0.6377656117114512  1.0000
  H   H11       1.0  0.6889305255411385  0.4496705809399374  0.13776627511363418  1.0000
  H   H12       1.0  0.550330888201593  0.3110741905307748  0.3622371350834967  1.0000
  H   H13       1.0  0.2941239339261442  0.5052756879226123  0.9851542640745946  1.0000
  H   H14       1.0  0.49472359040679953  0.7058686673806707  0.5148441350493371  1.0000
  H   H15       1.0  0.7058726447676519  0.49472539713570296  0.014844164487648501  1.0000
  H   H16       1.0  0.5052798947377397  0.29413346522361644  0.4851593705079651  1.0000
  H   H17       1.0  0.5437100457296467  0.6754646385404542  0.9753260485319046  1.0000
  H   H18       1.0  0.3245343562831308  0.45628304326547214  0.5246722292929533  1.0000
  H   H19       1.0  0.4562873571203596  0.3245352831981093  0.0246730824806178  1.0000
  H   H20       1.0  0.6754719197880802  0.543716784390746  0.47532986837992997  1.0000
  H   H21       1.0  0.4266490108846099  0.7928708965658161  0.0229709878793471  1.0000
  H   H22       1.0  0.20712907659885355  0.5733441700202419  0.47702680046298707  1.0000
  H   H23       1.0  0.5733483994013041  0.20712903260645993  0.9770274356626131  1.0000
  H   H24       1.0  0.792875538916597  0.4266533848616518  0.5229738209364143  1.0000
  H   H25       1.0  0.7442949125955848  0.9291780819104009  0.11298680125140949  1.0000
  H   H26       1.0  0.0708244591850331  0.2557006138060843  0.3870136096741844  1.0000
  H   H27       1.0  0.25570303793957544  0.07082412064592351  0.887013788937331  1.0000
  H   H28       1.0  0.9291745919773928  0.7442969812929904  0.6129869262388823  1.0000
  H   H29       1.0  0.7567498153387362  0.911393614040435  0.9916307525771016  1.0000
  H   H30       1.0  0.0886057149100168  0.2432467612702568  0.5083704510777807  1.0000
  H   H31       1.0  0.24324896678854196  0.08860743262985692  0.0083698325913559  1.0000
  H   H32       1.0  0.911394730401504  0.7567519736279779  0.49163012405010414  1.0000
  C   C1        1.0  0.06285393662322748  0.7101617710538832  0.1745691407425625  1.0000
  C   C2        1.0  0.28983555508870035  0.9371447587089464  0.3254291325999644  1.0000
  C   C3        1.0  0.9371473477163194  0.28983581539203845  0.8254307218944774  1.0000
  C   C4        1.0  0.7101623980749423  0.06285285930099602  0.6745699712747211  1.0000
  C   C5        1.0  0.10053790570057693  0.688176736163179  0.0214179264636556  1.0000
  C   C6        1.0  0.3118237674820534  0.8994557720475458  0.47857951716037656  1.0000
  C   C7        1.0  0.8994586729932196  0.31182434889512933  0.9785805020985947  1.0000
  C   C8        1.0  0.6881777907000668  0.10054295480725271  0.5214210750647723  1.0000
  C   C9        1.0  0.9828129863283124  0.7583940966324433  0.99509942106404  1.0000
  C   C10       1.0  0.241606719778467  0.0171821646931818  0.5049004816430482  1.0000
  C   C11       1.0  0.0171863684203259  0.2416046686103641  0.004899014554901302  1.0000
  C   C12       1.0  0.7583956551239553  0.9828153914081601  0.4951015205029421  1.0000
  C   C13       1.0  0.9049408518646654  0.8128318107412156  0.0700749668494467  1.0000
  C   C14       1.0  0.1871656399900132  0.0950590899594346  0.4299235840358619  1.0000
  C   C15       1.0  0.09505572682913045  0.1871692743170996  0.9299234617127965  1.0000
  C   C16       1.0  0.812830366082423  0.9049442765263578  0.5700769940758903  1.0000
  C   C17       1.0  0.0851033870316797  0.6978853905113525  0.865999816102807  1.0000
  C   C18       1.0  0.30211635578441337  0.9148915086239531  0.6339978708988383  1.0000
  C   C19       1.0  0.9148945858112114  0.30211683434611564  0.1339986516742542  1.0000
  C   C20       1.0  0.6978843782415041  0.0851083815505902  0.3660020188760384  1.0000
  C   C21       1.0  0.3042986637998482  0.5974050582374275  0.9339041776710602  1.0000
  C   C22       1.0  0.40259385570805506  0.6956945349516488  0.5660943535290102  1.0000
  C   C23       1.0  0.6956987464860731  0.4025948709348484  0.0660942458709073  1.0000
  C   C24       1.0  0.5974079688807308  0.3043053248783139  0.4339076757548099  1.0000
  C   C25       1.0  0.4455062763668423  0.7253338939885482  0.9605585962028511  1.0000
  C   C26       1.0  0.2746644247910269  0.5544875555819149  0.5394399147715134  1.0000
  C   C27       1.0  0.5544916842327156  0.27466373145510664  0.0394398002012792  1.0000
  C   C28       1.0  0.7253393516963982  0.44551114775229905  0.4605614191187327  1.0000
  S   S1        1.0  0.5041354394466993  0.8559549285121903  0.8656372271087064  1.0000
  S   S2        1.0  0.14404389929472927  0.4958596729080043  0.6343607167099562  1.0000
  S   S3        1.0  0.49586390786603834  0.1440438292969048  0.1343619159808043  1.0000
  S   S4        1.0  0.8559593295075415  0.5041367496084491  0.3656391580040719  1.0000
  N   N1        1.0  0.951005314396184  0.7864875165881315  0.1600464801731292  1.0000
  N   N2        1.0  0.21351514815348338  0.0489874732139128  0.3399526348719988  1.0000
  N   N3        1.0  0.048991256861704406  0.21351356103646427  0.8399526558596759  1.0000
  N   N4        1.0  0.7864861287501553  0.9510101057982893  0.6600479352356032  1.0000
  N   N5        1.0  0.143723388306114  0.6591439195485976  0.10925943851597  1.0000
  N   N6        1.0  0.34085634681554206  0.8562695650834088  0.390739292420534  1.0000
  N   N7        1.0  0.8562729016732858  0.3408560102334093  0.8907396753992813  1.0000
  N   N8        1.0  0.6591440910600639  0.14372916238111344  0.6092619901779059  1.0000
  N   N9        1.0  0.7931056365840945  0.8851222879869667  0.05749307324284561  1.0000
  N   N10       1.0  0.11488191979152869  0.20688701567546267  0.44250717341917317  1.0000
  N   N11       1.0  0.2068939920071244  0.11487761766472458  0.942506091964205  1.0000
  N   N12       1.0  0.8851218518884706  0.79310709567865  0.5574933816275802  1.0000
  N   N13       1.0  0.9744257834675665  0.7620224491902121  0.896480586896935  1.0000
  N   N14       1.0  0.2379796965786981  0.025570613313860204  0.6035186667966244  1.0000
  N   N15       1.0  0.025572181939416825  0.23797976823354372  0.10351858835068128  1.0000
  N   N16       1.0  0.762022431596307  0.9744304166598357  0.3964812621930704  1.0000
  N   N17       1.0  0.1637795573290219  0.6517295348721531  0.9385978814197529  1.0000
  N   N18       1.0  0.348270384227348  0.8362161230579235  0.5614017168716215  1.0000
  N   N19       1.0  0.8362181193635649  0.3482715272752941  0.0614019791808715  1.0000
  N   N20       1.0  0.6517292220561401  0.16378376029262398  0.43859957074710815  1.0000
  O   O1        1.0  0.5335482403722622  0.7613065643080078  0.785609234520436  1.0000
  O   O2        1.0  0.2386910095464998  0.46645048015864893  0.7143906743647435  1.0000
  O   O3        1.0  0.4664508256619868  0.23869104565849852  0.21438988645151366  1.0000
  O   O4        1.0  0.7613108224782009  0.5335493871050261  0.28561064744851444  1.0000
  O   O5        1.0  0.644953703941134  0.9676212665948755  0.900976437407067  1.0000
  O   O6        1.0  0.032378385469314715  0.35503908094882775  0.5990242682511067  1.0000
  O   O7        1.0  0.355042586038266  0.032378663187124304  0.09902267650818432  1.0000
  O   O8        1.0  0.967625391018103  0.6449596223853789  0.4009770656391396  1.0000
  O   O9        1.0  0.37707252537887825  0.9302463710000737  0.8469335666194553  1.0000
  O   O10       1.0  0.06975197392208796  0.6229225443024546  0.6530625615984815  1.0000
  O   O11       1.0  0.6229246185003774  0.0697524251970449  0.15306341986384103  1.0000
  O   O12       1.0  0.9302498729744286  0.3770773378286521  0.3469373452736661  1.0000
