data_image0
_chemical_formula_structural       Zn8H48C48N4O30
_chemical_formula_sum              "Zn8 H48 C48 N4 O30"
_cell_length_a       11.193707158464974
_cell_length_b       11.354818263857645
_cell_length_c       11.633361051141389
_cell_angle_alpha    71.31415528240319
_cell_angle_beta     69.53124138587356
_cell_angle_gamma    84.41105122267095

_space_group_name_H-M_alt    "P 1"
_space_group_IT_number       1

loop_
  _space_group_symop_operation_xyz
  'x, y, z'

loop_
  _atom_site_type_symbol
  _atom_site_label
  _atom_site_symmetry_multiplicity
  _atom_site_fract_x
  _atom_site_fract_y
  _atom_site_fract_z
  _atom_site_occupancy
  Zn  Zn1       1.0  0.006359869129362  0.16764797182248975  0.4653112371082528  1.0000
  Zn  Zn2       1.0  0.3175967184205106  0.28554487081299845  0.37818953131130684  1.0000
  Zn  Zn3       1.0  0.09482447870431089  0.2591578444139628  0.6582338211098319  1.0000
  Zn  Zn4       1.0  0.3884602090748501  0.37546876781053856  0.5741928254868469  1.0000
  Zn  Zn5       1.0  0.5327319830004811  0.6612497985894663  0.47246459283088876  1.0000
  Zn  Zn6       1.0  0.8277535706921028  0.7860539097990444  0.38303102926656124  1.0000
  Zn  Zn7       1.0  0.605298279044881  0.7604131800435995  0.6631928426088933  1.0000
  Zn  Zn8       1.0  0.9164277362602674  0.8679753985856922  0.5808436173905989  1.0000
  H   H1        1.0  0.20291653163021553  0.08242234358732502  0.5383771553889574  1.0000
  H   H2        1.0  0.20472450949938548  0.4701626516175423  0.5044896096871981  1.0000
  H   H3        1.0  0.7160582463280035  0.5717436050107809  0.5449220180397489  1.0000
  H   H4        1.0  0.7190879385291781  0.9598183345018685  0.5090646863638284  1.0000
  H   H5        1.0  0.3422322217335462  0.4892158277005906  0.9907726855497999  1.0000
  H   H6        1.0  0.9717187999720238  0.3213693302303682  0.12326637273081785  1.0000
  H   H7        1.0  0.1603088063954203  0.502741212387072  0.717038960541089  1.0000
  H   H8        1.0  0.9221543451239  0.2663444383697567  0.9467444922337336  1.0000
  H   H9        1.0  0.8530583667389208  0.4143763326036308  0.941274622324258  1.0000
  H   H10       1.0  0.8123157239975926  0.26102872638860924  0.7938334432154692  1.0000
  H   H11       1.0  0.692117763525964  0.4215357729336234  0.8944594975023533  1.0000
  H   H12       1.0  0.6376533592684622  0.408674508069261  0.7730737361123802  1.0000
  H   H13       1.0  0.7373924153749485  0.5350637988160188  0.7405021631584106  1.0000
  H   H14       1.0  0.5707073413162718  0.5626205005316721  0.05516291867981939  1.0000
  H   H15       1.0  0.7534749233630579  0.5326743398666168  0.3307800268624419  1.0000
  H   H16       1.0  0.9461968404184943  0.7194751056190614  0.9257818381683337  1.0000
  H   H17       1.0  0.0582264050389156  0.5982099741491709  0.12255336115261173  1.0000
  H   H18       1.0  0.01195714890192079  0.7554525425757886  0.09967377560096931  1.0000
  H   H19       1.0  0.10042503282780052  0.525909026580898  0.3445613063172673  1.0000
  H   H20       1.0  0.22318033718216407  0.6750402599315138  0.14114921052401996  1.0000
  H   H21       1.0  0.2662671723744339  0.6907708563224021  0.26817016431084534  1.0000
  H   H22       1.0  0.1653592650557201  0.8031158437200647  0.2021794543291335  1.0000
  H   H23       1.0  0.08060843723357182  0.08050392815204081  0.0287341581203222  1.0000
  H   H24       1.0  0.24230985666104488  0.0415022706111188  0.32296921665611933  1.0000
  H   H25       1.0  0.45564588140366874  0.22929923665404317  0.9246868717291364  1.0000
  H   H26       1.0  0.5529491035050924  0.09472216704408963  0.13007107529286802  1.0000
  H   H27       1.0  0.5143262879528407  0.254148126666891  0.10216632895593848  1.0000
  H   H28       1.0  0.5887468223921885  0.026180328554616508  0.3519975307716622  1.0000
  H   H29       1.0  0.7173513037637349  0.17068443112893317  0.15280166283471902  1.0000
  H   H30       1.0  0.754767234859976  0.19500641214754216  0.2794348614410112  1.0000
  H   H31       1.0  0.6556858578407797  0.3019726477616729  0.2064104353403309  1.0000
  H   H32       1.0  0.8353786502879146  0.9690701452629397  0.016832196594087714  1.0000
  H   H33       1.0  0.4618545386834895  0.8154693593651533  0.12513412058504497  1.0000
  H   H34       1.0  0.6745792744234151  0.991932853924695  0.7243000094264855  1.0000
  H   H35       1.0  0.4186865916445939  0.7693530518082456  0.9438737421599868  1.0000
  H   H36       1.0  0.358367744984271  0.9214529148949142  0.9324635547551239  1.0000
  H   H37       1.0  0.3188557058046868  0.7689233825365139  0.7817652793085658  1.0000
  H   H38       1.0  0.2049228777756866  0.9363124038146325  0.8758634829751274  1.0000
  H   H39       1.0  0.1520477657875716  0.9218416965576139  0.7546779211569686  1.0000
  H   H40       1.0  0.25711373689649253  0.045915536247015616  0.7196264036834139  1.0000
  H   H41       1.0  0.1166047202822043  0.7335818496027146  0.5849268989429248  1.0000
  H   H42       1.0  0.8039947042488078  0.30277449650571947  0.46279401298162565  1.0000
  H   H43       1.0  0.17636877965313857  0.865059849685153  0.5606545183897325  1.0000
  H   H44       1.0  0.743856302755489  0.17132852329477544  0.4907001398719545  1.0000
  H   H45       1.0  0.9835978288250686  0.4750605822923291  0.7065047413427338  1.0000
  H   H46       1.0  0.49828487613399364  0.9755824408414783  0.700500360902339  1.0000
  H   H47       1.0  0.9011007217939804  0.5668750732786805  0.3494897308731098  1.0000
  H   H48       1.0  0.39310664591684474  0.06739066304959351  0.352161197984124  1.0000
  C   C1        1.0  0.37845379510676486  0.5628971388414357  0.7372246444357841  1.0000
  C   C2        1.0  0.2603666064978114  0.5040566610182752  0.843799519580273  1.0000
  C   C3        1.0  0.2594978964426176  0.4697515545151279  0.9706910669039814  1.0000
  C   C4        1.0  0.1545160686851048  0.40424291529662787  0.07074000084208622  1.0000
  C   C5        1.0  0.15700107232994753  0.3511408300447486  0.2058966244099522  1.0000
  C   C6        1.0  0.050839300478010295  0.3752243033988876  0.04322838822196221  1.0000
  C   C7        1.0  0.0505168081845042  0.40915814461523353  0.9165987273582417  1.0000
  C   C8        1.0  0.1554431905315568  0.4754287905678752  0.8172136021520372  1.0000
  C   C9        1.0  0.9383960241836462  0.3665802575177113  0.8955366670805062  1.0000
  C   C10       1.0  0.8344571928243738  0.36061549962134626  0.7423720650349567  1.0000
  C   C11       1.0  0.7194563860797629  0.4357853824783718  0.7907030418294169  1.0000
  C   C12       1.0  0.8669288764129917  0.37280569177681144  0.5994927655010045  1.0000
  C   C13       1.0  0.7578381917448737  0.6976580810612205  0.8426548865886404  1.0000
  C   C14       1.0  0.7599820414601978  0.6438477153603658  0.9773327811111159  1.0000
  C   C15       1.0  0.6538782622253406  0.5792735230908619  0.0761514979973513  1.0000
  C   C16       1.0  0.6538073271983436  0.5408274062286865  0.20260959505360177  1.0000
  C   C17       1.0  0.5386828061478609  0.47777853069840154  0.3088201784082187  1.0000
  C   C18       1.0  0.7593343265013033  0.564919302296005  0.2301749413298922  1.0000
  C   C19       1.0  0.8657682286892339  0.6293358099599687  0.1320446264154142  1.0000
  C   C20       1.0  0.8654584435478296  0.6675124475647679  0.0052382920186034455  1.0000
  C   C21       1.0  0.9803636185694059  0.6591969222288369  0.15737129950925774  1.0000
  C   C22       1.0  0.07354914927042698  0.6243606357063812  0.32943814795513054  1.0000
  C   C23       1.0  0.1887083816799873  0.7041834723531865  0.22827437611183407  1.0000
  C   C24       1.0  0.047050916916177195  0.6500514391029244  0.4572162225036038  1.0000
  C   C25       1.0  0.2756921179354705  0.2168972169561343  0.826366571770059  1.0000
  C   C26       1.0  0.2705235121259832  0.1582329669863896  0.9630100163120047  1.0000
  C   C27       1.0  0.1602093857741806  0.09428283418582592  0.05668644573248829  1.0000
  C   C28       1.0  0.1513113609274797  0.05410172226008571  0.18613154792813452  1.0000
  C   C29       1.0  0.03290508556240469  0.9914844360364798  0.29036606294426553  1.0000
  C   C30       1.0  0.25376722588107004  0.07409635335645962  0.22093628784043765  1.0000
  C   C31       1.0  0.36467653152171653  0.13557732654157212  0.12823618065579723  1.0000
  C   C32       1.0  0.37183870877809255  0.17754888659112575  0.9990973818638054  1.0000
  C   C33       1.0  0.4772035036746658  0.15956405452747902  0.16029184216645126  1.0000
  C   C34       1.0  0.5627404743165627  0.12482622595683071  0.33697175792172374  1.0000
  C   C35       1.0  0.6793390798636807  0.20355498896951477  0.2375139268264164  1.0000
  C   C36       1.0  0.531642135228381  0.14640443688468002  0.467861717515504  1.0000
  C   C37       1.0  0.8866178414663038  0.046729250261584816  0.7554137545475329  1.0000
  C   C38       1.0  0.7657298799124134  0.9880998824867577  0.8599651599211738  1.0000
  C   C39       1.0  0.7559778275507937  0.9527936232020694  0.9898236033389765  1.0000
  C   C40       1.0  0.6457026141254758  0.8900060502035249  0.08500421211812878  1.0000
  C   C41       1.0  0.6401799267728093  0.8344676205832402  0.22275264642998147  1.0000
  C   C42       1.0  0.545172578862868  0.8669749087099493  0.049541456056672734  1.0000
  C   C43       1.0  0.5527010688122473  0.9034599207488018  0.9202463382289352  1.0000
  C   C44       1.0  0.6635060725813559  0.9644357958711184  0.8261588372654316  1.0000
  C   C45       1.0  0.44166033192413306  0.8685634067305588  0.89164350926076  1.0000
  C   C46       1.0  0.3466161000610981  0.8673207909384647  0.729967379114264  1.0000
  C   C47       1.0  0.2342970051749802  0.9477012031992729  0.772494369721244  1.0000
  C   C48       1.0  0.3860263642641967  0.8799047783405243  0.585627923043319  1.0000
  N   N1        1.0  0.954364088695385  0.3848844093331892  0.75985786132037  1.0000
  N   N2        1.0  0.9559054581070968  0.6456552999721695  0.29408254021737423  1.0000
  N   N3        1.0  0.4473991389810266  0.14706892538741564  0.2974848872584062  1.0000
  N   N4        1.0  0.4641498418243371  0.8865525957632913  0.7546552005996077  1.0000
  O   O1        1.0  0.0617613491882096  0.28274705317479487  0.2850373300741681  1.0000
  O   O2        1.0  0.2531272663468513  0.37649001862362036  0.22892447133867933  1.0000
  O   O3        1.0  0.4604565335989435  0.6071051341481281  0.7635049682011541  1.0000
  O   O4        1.0  0.3883536421550033  0.5638266858710284  0.6213957738502317  1.0000
  O   O5        1.0  0.9735141689200119  0.32708385533302226  0.546482018885243  1.0000
  O   O6        1.0  0.789837453616364  0.4216077379064131  0.5407755680062678  1.0000
  O   O7        1.0  0.1682548293973198  0.16528404860039816  0.5105235625113451  1.0000
  O   O8        1.0  0.8236678933128587  0.22200203627177476  0.4454582227125101  1.0000
  O   O9        1.0  0.2373815711326657  0.3842561719970731  0.5248626664583398  1.0000
  O   O10       1.0  0.4609585252858679  0.428759267767596  0.2815717658101562  1.0000
  O   O11       1.0  0.5278778393042388  0.4777312284453787  0.4245915580559866  1.0000
  O   O12       1.0  0.6540901901372251  0.6883862055411357  0.8241639148788167  1.0000
  O   O13       1.0  0.8611498361323981  0.7485719904343568  0.7589677544126376  1.0000
  O   O14       1.0  0.12517190921850838  0.6103964476028879  0.5172328932448879  1.0000
  O   O15       1.0  0.9492155609594236  0.7134570925402884  0.49594786674389  1.0000
  O   O16       1.0  0.6854358749352939  0.6573300220361133  0.518300789317131  1.0000
  O   O17       1.0  0.754859870681912  0.8765659323391476  0.5329202407858064  1.0000
  O   O18       1.0  0.3786936263740159  0.27807968779769254  0.7483853585112498  1.0000
  O   O19       1.0  0.17871332744662277  0.20413127087294217  0.7992833766631052  1.0000
  O   O20       1.0  0.9643362038360763  0.9305514413135756  0.26275677342397313  1.0000
  O   O21       1.0  0.011474996581128497  0.0015618369035549995  0.4038491887423845  1.0000
  O   O22       1.0  0.43470071916979686  0.21139433446590777  0.5051534513556818  1.0000
  O   O23       1.0  0.6038467479745506  0.09744288870026452  0.5330823057110622  1.0000
  O   O24       1.0  0.09711745285694919  0.813874665165628  0.6040482397448413  1.0000
  O   O25       1.0  0.9079764400052281  0.03495019050215831  0.6425742430196879  1.0000
  O   O26       1.0  0.958313732831094  0.10593840297523373  0.7814127537944558  1.0000
  O   O27       1.0  0.7306374757653273  0.8598502649670439  0.25301791122944917  1.0000
  O   O28       1.0  0.5435789168866094  0.7624410857942792  0.29802722971479073  1.0000
  O   O29       1.0  0.49070855972287564  0.8286022026635111  0.5380743233085853  1.0000
  O   O30       1.0  0.3168031582271027  0.9381643589453152  0.5207041297843843  1.0000
