data_image0
_chemical_formula_structural       Ba4H16C16O20
_chemical_formula_sum              "Ba4 H16 C16 O20"
_cell_length_a       6.925670377212238
_cell_length_b       8.20869320713281
_cell_length_c       10.490461762001605
_cell_angle_alpha    90.0000583037541
_cell_angle_beta     89.99995843709549
_cell_angle_gamma    95.02615990178529

_space_group_name_H-M_alt    "P 1"
_space_group_IT_number       1

loop_
  _space_group_symop_operation_xyz
  'x, y, z'

loop_
  _atom_site_type_symbol
  _atom_site_label
  _atom_site_symmetry_multiplicity
  _atom_site_fract_x
  _atom_site_fract_y
  _atom_site_fract_z
  _atom_site_occupancy
  Ba  Ba1       1.0  0.4642325812249055  0.7353425443889208  0.4016679328548277  1.0000
  Ba  Ba2       1.0  0.03576343921892541  0.2646574614353412  0.9016696613526634  1.0000
  Ba  Ba3       1.0  0.5357666818016112  0.2646595749309101  0.5983301695177017  1.0000
  Ba  Ba4       1.0  0.9642341135343386  0.7353422175601665  0.0983313007599094  1.0000
  H   H1        1.0  0.12459337871257502  0.09324580150212113  0.342714188424253  1.0000
  H   H2        1.0  0.3754068917892468  0.9067528987964483  0.842712485551111  1.0000
  H   H3        1.0  0.8754103477422107  0.9067575242460536  0.6572915399227455  1.0000
  H   H4        1.0  0.6245921042814544  0.09324677470458204  0.15729038305485687  1.0000
  H   H5        1.0  0.9634854986313357  0.17387903279175992  0.2328484924513532  1.0000
  H   H6        1.0  0.5365134641813755  0.826120470255873  0.7328459397705841  1.0000
  H   H7        1.0  0.03652111446134399  0.8261242819637075  0.7671543761542381  1.0000
  H   H8        1.0  0.46348277873041605  0.17388043714593246  0.26715502234284827  1.0000
  H   H9        1.0  0.8109135769666054  0.44689951562875074  0.3304706629787049  1.0000
  H   H10       1.0  0.689091203874426  0.5531012978477037  0.8304697027835174  1.0000
  H   H11       1.0  0.18908424273988095  0.5531026091887697  0.6695312523817378  1.0000
  H   H12       1.0  0.3109121221516133  0.44689835916613435  0.1695322125744525  1.0000
  H   H13       1.0  0.0086953909946459  0.2734894028620403  0.5141090391756578  1.0000
  H   H14       1.0  0.4913053116287287  0.7265101517600954  0.0141034762226795  1.0000
  H   H15       1.0  0.991301252346325  0.7265151732735761  0.4858947826799138  1.0000
  H   H16       1.0  0.5086934174904912  0.2734870759167904  0.9858946261478678  1.0000
  C   C1        1.0  0.8296734721110538  0.0118378276268416  0.37253630191151627  1.0000
  C   C2        1.0  0.6703350665455616  0.9881581249059226  0.8725395404381189  1.0000
  C   C3        1.0  0.17033824687329974  0.9881593505895198  0.6274608472088089  1.0000
  C   C4        1.0  0.32967087916212273  0.011839075296933302  0.1274652346587786  1.0000
  C   C5        1.0  0.9843607553382442  0.14542851946615096  0.3341414420982787  1.0000
  C   C6        1.0  0.5156358712385583  0.8545637652288891  0.8341379714322767  1.0000
  C   C7        1.0  0.01564086041497605  0.8545686972228314  0.6658623797528449  1.0000
  C   C8        1.0  0.48435668417567257  0.1454298156996003  0.1658629906789315  1.0000
  C   C9        1.0  0.9870337786413542  0.30191936261069696  0.4129330836174673  1.0000
  C   C10       1.0  0.512965929917904  0.6980754452930286  0.9129304322632237  1.0000
  C   C11       1.0  0.012963774111050014  0.6980803163858837  0.5870697849888699  1.0000
  C   C12       1.0  0.4870325322467933  0.3019193365634507  0.08706957660011479  1.0000
  C   C13       1.0  0.15838250843622598  0.4202569460304489  0.3717340160874514  1.0000
  C   C14       1.0  0.3416149825317021  0.5797430207208835  0.87173300099451  1.0000
  C   C15       1.0  0.841610071905663  0.5797500924106276  0.6282650395357975  1.0000
  C   C16       1.0  0.6583796835862612  0.42025666926413413  0.1282651013781404  1.0000
  O   O1        1.0  0.8165409617790618  0.8823271378218324  0.30390099934133014  1.0000
  O   O2        1.0  0.6834633093049048  0.11766875420544663  0.8038929928226892  1.0000
  O   O3        1.0  0.18346105440463129  0.11767374759935482  0.6961028225112784  1.0000
  O   O4        1.0  0.31653948281729083  0.8823260111611619  0.19610129655821848  1.0000
  O   O5        1.0  0.7203623234112654  0.028857110982087916  0.46807169328643977  1.0000
  O   O6        1.0  0.7796221259227212  0.9711439337697882  0.968062469045627  1.0000
  O   O7        1.0  0.2796281462247237  0.9711438184051391  0.5319349883097928  1.0000
  O   O8        1.0  0.22036428071852038  0.028859457917548105  0.031929913849424486  1.0000
  O   O9        1.0  0.8069932762832083  0.3738347758017824  0.4046828089090083  1.0000
  O   O10       1.0  0.6930068402046103  0.6261636915800112  0.9046800033885841  1.0000
  O   O11       1.0  0.1930024327208457  0.6261612399576039  0.5953191064493311  1.0000
  O   O12       1.0  0.3069920223909933  0.37383475900814034  0.0953190522293426  1.0000
  O   O13       1.0  0.3267541236966451  0.3876797480210499  0.4063768572961166  1.0000
  O   O14       1.0  0.1732623658782515  0.6123226319678281  0.9063769096401729  1.0000
  O   O15       1.0  0.6732544666242433  0.6123284528786003  0.5936202918297795  1.0000
  O   O16       1.0  0.826749753536582  0.3876782149807454  0.09362023948163767  1.0000
  O   O17       1.0  0.12673568953837844  0.5430716459389942  0.302549324823353  1.0000
  O   O18       1.0  0.3732610634472522  0.4569209057431109  0.8025434211383595  1.0000
  O   O19       1.0  0.8732595104834218  0.4569329356932458  0.6974564035263666  1.0000
  O   O20       1.0  0.6267373987196122  0.5430738761106966  0.19745182149054588  1.0000
