data_image0
_chemical_formula_structural       Hg4H32C48Br8N16O4
_chemical_formula_sum              "Hg4 H32 C48 Br8 N16 O4"
_cell_length_a       5.465485086511539
_cell_length_b       16.336758969
_cell_length_c       16.486
_cell_angle_alpha    90.0
_cell_angle_beta     93.19964718243655
_cell_angle_gamma    90.0

_space_group_name_H-M_alt    "P 1"
_space_group_IT_number       1

loop_
  _space_group_symop_operation_xyz
  'x, y, z'

loop_
  _atom_site_type_symbol
  _atom_site_label
  _atom_site_symmetry_multiplicity
  _atom_site_fract_x
  _atom_site_fract_y
  _atom_site_fract_z
  _atom_site_occupancy
  Hg  Hg1       1.0  0.8722925679538704  0.1945447077985847  0.8650315313717625  1.0000
  Hg  Hg2       1.0  0.62770972681988  0.694544127236675  0.6349689356935713  1.0000
  Hg  Hg3       1.0  0.12771018357560848  0.8054547431941117  0.1349702179534873  1.0000
  Hg  Hg4       1.0  0.372291192189131  0.3054553237560214  0.3650309599967727  1.0000
  H   H1        1.0  0.7214797989032746  0.3095871102461132  0.0266403727098066  1.0000
  H   H2        1.0  0.7785224958704757  0.8095877539172349  0.4733594877802502  1.0000
  H   H3        1.0  0.2785211201057365  0.6904123407465832  0.9733601295558145  1.0000
  H   H4        1.0  0.22148025565899587  0.1904129213084929  0.5266404418191684  1.0000
  H   H5        1.0  0.0639274763460875  0.4501106990654264  0.9636856477058798  1.0000
  H   H6        1.0  0.43607573193911253  0.9501107306200327  0.5363143510029076  1.0000
  H   H7        1.0  0.9360752751833912  0.5498887519272699  0.0363142818935387  1.0000
  H   H8        1.0  0.5639270195903592  0.0498893324891796  0.4636855785965182  1.0000
  H   H9        1.0  0.0512134493749201  0.3845420019919956  0.8278783860511609  1.0000
  H   H10       1.0  0.4487879263898192  0.8845420335466017  0.6721215787485519  1.0000
  H   H11       1.0  0.9487893021545586  0.6154580611172165  0.1721221501235419  1.0000
  H   H12       1.0  0.5512129926191918  0.1154580295626104  0.327878316941792  1.0000
  H   H13       1.0  0.39166276600178657  0.288461132893147  0.7950727805453679  1.0000
  H   H14       1.0  0.10833677724248499  0.7884605523312374  0.7049265437699859  1.0000
  H   H15       1.0  0.6083381530072245  0.7115395423325808  0.20492711514497589  1.0000
  H   H16       1.0  0.8916641417665259  0.2115395107779747  0.2950733519203581  1.0000
  H   H17       1.0  0.9260367280879647  0.3626545516918185  0.2424284187915262  1.0000
  H   H18       1.0  0.5739637341653179  0.8626527468968777  0.2575708012141789  1.0000
  H   H19       1.0  0.0739623584005855  0.6373461235339093  0.7575720495650201  1.0000
  H   H20       1.0  0.4260371848436932  0.1373491525618888  0.742428487900888  1.0000
  H   H21       1.0  0.5844530812946047  0.5883253843824292  0.3144887836997157  1.0000
  H   H22       1.0  0.9155492134791456  0.0883247407113075  0.18551228994088828  1.0000
  H   H23       1.0  0.4155478377144134  0.41167467872678304  0.6855117185659054  1.0000
  H   H24       1.0  0.08444987300940449  0.9116777708639747  0.8144857521145497  1.0000
  H   H25       1.0  0.9078324698101382  0.5978701172328016  0.42856311764984406  1.0000
  H   H26       1.0  0.5921661599226837  0.0978694735616727  0.0714372815973334  1.0000
  H   H27       1.0  0.09216844919887278  0.4021305579929334  0.5714373846157769  1.0000
  H   H28       1.0  0.4078292615249381  0.902131201664055  0.9285606926399552  1.0000
  H   H29       1.0  0.2222444166919999  0.4860474476649514  0.4443265459946133  1.0000
  H   H30       1.0  0.27775695907273956  0.9860474792195575  0.0556746319556467  1.0000
  H   H31       1.0  0.7777546697965505  0.5139526154442606  0.555673922361933  1.0000
  H   H32       1.0  0.7222457924567394  0.0139531960061703  0.9443265107943262  1.0000
  C   C1        1.0  0.5724170868946884  0.3290536397213586  0.9841022935638647  1.0000
  C   C2        1.0  0.9275815428381406  0.8290536712759649  0.5158981056833127  1.0000
  C   C3        1.0  0.4275801670734012  0.6709464233878535  0.015898747458877  1.0000
  C   C4        1.0  0.0724193761708705  0.1709463918332474  0.4841017900070311  1.0000
  C   C5        1.0  0.39671685743829227  0.3862895946481757  0.006204758649545298  1.0000
  C   C6        1.0  0.103284518326447  0.8862926867853673  0.49379520615016753  1.0000
  C   C7        1.0  0.6032840615707187  0.6137074078784508  0.9937963501913529  1.0000
  C   C8        1.0  0.8967182332030317  0.1137079884403605  0.506204723449258  1.0000
  C   C9        1.0  0.20472918610820298  0.4061644058402934  0.9494500955996514  1.0000
  C   C10       1.0  0.29527035713607563  0.9061650495114224  0.5505510484415409  1.0000
  C   C11       1.0  0.7952699003803472  0.5938356572689187  0.050551585907449195  1.0000
  C   C12       1.0  0.7047305618729354  0.093835013597797  0.44944884724881007  1.0000
  C   C13       1.0  0.1979415303138481  0.3702974385237141  0.8731434943196915  1.0000
  C   C14       1.0  0.3020580129304236  0.8702980821948358  0.6268552234203922  1.0000
  C   C15       1.0  0.802059388695163  0.6297020124689823  0.1268551882200981  1.0000
  C   C16       1.0  0.6979429060785876  0.12970198091437626  0.37314406569468156  1.0000
  C   C17       1.0  0.3847321736113329  0.3161618537557587  0.8551428865350913  1.0000
  C   C18       1.0  0.11526736963293868  0.8161618853103647  0.6448570443555469  1.0000
  C   C19       1.0  0.6152687453976782  0.6838382093534607  0.14485761573052963  1.0000
  C   C20       1.0  0.8847335493760722  0.1838381777988545  0.3551434579100814  1.0000
  C   C21       1.0  0.40993666005720536  0.4270277852074501  0.08434031648936717  1.0000
  C   C22       1.0  0.0900610506666126  0.9270302652281259  0.4156607936427433  1.0000
  C   C23       1.0  0.5900587613904236  0.5729698294356922  0.915661297199577  1.0000
  C   C24       1.0  0.9099398683424055  0.0729710221141247  0.5843391020476005  1.0000
  C   C25       1.0  0.5567875198671429  0.4676386555311751  0.20065464559235827  1.0000
  C   C26       1.0  0.9432166074270683  0.9676374628527427  0.29934282250567185  1.0000
  C   C27       1.0  0.4432097341009396  0.5323607954615213  0.7993451822798363  1.0000
  C   C28       1.0  0.0567879766228714  0.0323632123729851  0.7006571410028286  1.0000
  C   C29       1.0  0.9138522995305607  0.4151765973208299  0.2829478317839502  1.0000
  C   C30       1.0  0.5861499952431899  0.9151754046424045  0.2170520287061066  1.0000
  C   C31       1.0  0.08614678695798969  0.5848234657883822  0.7170526365725962  1.0000
  C   C32       1.0  0.413852756286289  0.0848252705833232  0.7829479008933119  1.0000
  C   C33       1.0  0.7315476663261008  0.4747416555950323  0.26954170010882444  1.0000
  C   C34       1.0  0.7684582934885711  0.9747404629165999  0.23045822819938167  1.0000
  C   C35       1.0  0.26845142016244944  0.5252584075141868  0.7304587682477219  1.0000
  C   C36       1.0  0.2315407929999722  0.0252602123091279  0.7695386007055092  1.0000
  C   C37       1.0  0.7250458837239576  0.5413240176206955  0.3233101448014749  1.0000
  C   C38       1.0  0.7749545785293321  0.04132214971653531  0.1766890752042372  1.0000
  C   C39       1.0  0.2749532027645926  0.4586766576050323  0.6766897169798014  1.0000
  C   C40       1.0  0.22504450795921827  0.9586779133926768  0.8233107865770393  1.0000
  C   C41       1.0  0.9034270906174767  0.5463537790412973  0.3865757407139155  1.0000
  C   C42       1.0  0.5965752041562737  0.0463525232536597  0.11342411977614118  1.0000
  C   C43       1.0  0.09657566091199497  0.45364628406791513  0.6134241888855099  1.0000
  C   C44       1.0  0.40342571485273737  0.9536475398555524  0.8865751693389254  1.0000
  C   C45       1.0  0.07867193599007288  0.484447987205904  0.39556347831185684  1.0000
  C   C46       1.0  0.4213294397746594  0.9844474066439872  0.1044358799125789  1.0000
  C   C47       1.0  0.9213289830189382  0.5155526880198311  0.6044364173784871  1.0000
  C   C48       1.0  0.5786696467138839  0.015552656465224902  0.8955621621428661  1.0000
  Br  Br1       1.0  0.8479347059618334  0.24536629374323132  0.7185223380766315  1.0000
  Br  Br2       1.0  0.6520657562914494  0.7453657131813216  0.7814774885043503  1.0000
  Br  Br3       1.0  0.15206438052671697  0.7546325451329494  0.2814799500057461  1.0000
  Br  Br4       1.0  0.3479369952380225  0.2546343499278905  0.21852244109506805  1.0000
  Br  Br5       1.0  0.0856868243218187  0.1574449378166634  0.9996117585377887  1.0000
  Br  Br6       1.0  0.41431271892246  0.6574449693712694  0.5003881723528494  1.0000
  Br  Br7       1.0  0.914310429646271  0.8425496162439003  0.0003886759096829009  1.0000
  Br  Br8       1.0  0.5856863675660904  0.3425550937379427  0.4996116894284198  1.0000
  N   N1        1.0  0.5655506327204306  0.2957893918352781  0.9097947194538631  1.0000
  N   N2        1.0  0.9344516620533198  0.7957900355063998  0.5902045344609163  1.0000
  N   N3        1.0  0.4344521188090411  0.7042100591574183  0.0902052101455553  1.0000
  N   N4        1.0  0.0655492569556984  0.204210639719328  0.4097953612294276  1.0000
  N   N5        1.0  0.24883612112823525  0.4774270107553278  0.1130298101079177  1.0000
  N   N6        1.0  0.2511615895955757  0.9774294907760037  0.3869700868736388  1.0000
  N   N7        1.0  0.751162965360315  0.5225712160043301  0.8869700516733516  1.0000
  N   N8        1.0  0.7488374968929746  0.0225717965662398  0.6130297749076306  1.0000
  N   N9        1.0  0.34368738028469886  0.5036929305019697  0.18823271775172398  1.0000
  N   N10       1.0  0.15631399548003339  0.003692286830848  0.31176542732216456  1.0000
  N   N11       1.0  0.6563117062038444  0.49630652049071944  0.8117665374542752  1.0000
  N   N12       1.0  0.8436887560494382  0.9963090005113956  0.688233895701984  1.0000
  N   N13       1.0  0.08092043859797829  0.4200392509322839  0.3450245922090146  1.0000
  N   N14       1.0  0.4190791046463004  0.9200380582538517  0.1549753386816235  1.0000
  N   N15       1.0  0.919078647890572  0.5799608121769282  0.6549758761475317  1.0000
  N   N16       1.0  0.5809218143627105  0.0799626169718763  0.8450245570087276  1.0000
  O   O1        1.0  0.6115157434897823  0.4183596032094954  0.1366133549482882  1.0000
  O   O2        1.0  0.8884883838044288  0.9183596347641014  0.3633859328755662  1.0000
  O   O3        1.0  0.3884833429987609  0.5816386235501696  0.8633883265588052  1.0000
  O   O4        1.0  0.1115143677250501  0.081641652578142  0.6366133901485753  1.0000
