data_image0
_chemical_formula_structural       Zn2H21C23BrN2O9
_chemical_formula_sum              "Zn2 H21 C23 Br1 N2 O9"
_cell_length_a       9.77227026677087
_cell_length_b       11.153147957362334
_cell_length_c       16.088803392676894
_cell_angle_alpha    88.77951545219237
_cell_angle_beta     90.39079779320905
_cell_angle_gamma    87.75172006164834

_space_group_name_H-M_alt    "P 1"
_space_group_IT_number       1

loop_
  _space_group_symop_operation_xyz
  'x, y, z'

loop_
  _atom_site_type_symbol
  _atom_site_label
  _atom_site_symmetry_multiplicity
  _atom_site_fract_x
  _atom_site_fract_y
  _atom_site_fract_z
  _atom_site_occupancy
  Zn  Zn1       1.0  0.6354058146356253  0.4941095728649287  0.5004768187259502  1.0000
  Zn  Zn2       1.0  0.35240541295242184  0.507221378228742  0.4990381296693232  1.0000
  H   H1        1.0  0.6750178128692285  0.6156285474354063  0.9367715781990074  1.0000
  H   H2        1.0  0.13812973157172342  0.35180233988099013  0.5638936420708307  1.0000
  H   H3        1.0  0.6810047784857503  0.5889071904298219  0.08186743262070453  1.0000
  H   H4        1.0  0.08292196456439171  0.5919097685832284  0.4919799841186646  1.0000
  H   H5        1.0  0.29791203718856  0.5878610475385172  0.07188903329303292  1.0000
  H   H6        1.0  0.4406684903294434  0.6802921579785702  0.07021554758445353  1.0000
  H   H7        1.0  0.4242808910055089  0.6841438954590584  0.9245377795808171  1.0000
  H   H8        1.0  0.2973942661287339  0.5755518054901002  0.9270420067271916  1.0000
  H   H9        1.0  0.5142772101143223  0.2979852756842832  0.07333266999280853  1.0000
  H   H10       1.0  0.5375271492623597  0.3065718761933383  0.9294673883749172  1.0000
  H   H11       1.0  0.9355751944436932  0.4795497257463452  0.7240187449476283  1.0000
  H   H12       1.0  0.7086617978663341  0.43268707268770606  0.07312186727947531  1.0000
  H   H13       1.0  0.0557601977481852  0.3627740873435741  0.6925562975572179  1.0000
  H   H14       1.0  0.8966763110934366  0.3249435735074471  0.7402549482966096  1.0000
  H   H15       1.0  0.7234737437509864  0.46218096542516207  0.9286755712298034  1.0000
  H   H16       1.0  0.36355616650013195  0.3547387063653178  0.9208638809541019  1.0000
  H   H17       1.0  0.2833605070689487  0.112353272469079  0.4772690140456535  1.0000
  H   H18       1.0  0.5822926657782119  0.0952444935651542  0.5394337265813933  1.0000
  H   H19       1.0  0.2896428626411449  0.8911350345601645  0.5051474251167889  1.0000
  H   H20       1.0  0.5977750994852898  0.9033993814644745  0.4697017610156068  1.0000
  H   H21       1.0  0.8903624889705667  0.49921333610094354  0.4411747228568077  1.0000
  C   C1        1.0  0.4966128761442761  0.7330834129823103  0.4885226333674383  1.0000
  C   C2        1.0  0.4844389294551378  0.13522607772961234  0.517799794960773  1.0000
  C   C3        1.0  0.38581639166163484  0.9363946355168336  0.4958980234557943  1.0000
  C   C4        1.0  0.49289923787944195  0.488923462613961  0.33761067760610797  1.0000
  C   C5        1.0  0.4990716466845911  0.8658829670571748  0.48409560672302404  1.0000
  C   C6        1.0  0.9258515138924325  0.43431138531037305  0.5528890296852255  1.0000
  C   C7        1.0  0.0777478693555125  0.43210488691662624  0.5431744820569409  1.0000
  C   C8        1.0  0.47663614637149726  0.26810751584959286  0.5133518864187395  1.0000
  C   C9        1.0  0.49669057420150153  0.5095141192622491  0.6625080530540617  1.0000
  C   C10       1.0  0.643200599240842  0.5094852441029332  0.05121942013196452  1.0000
  C   C11       1.0  0.4012573133582579  0.5964371200037988  0.04678920104166202  1.0000
  C   C12       1.0  0.646887344188457  0.5245922482255949  0.9555510768576172  1.0000
  C   C13       1.0  0.3993262910634101  0.5960274578654107  0.9508110509193346  1.0000
  C   C14       1.0  0.5011486561722549  0.5071786944447182  0.7526367790872828  1.0000
  C   C15       1.0  0.4942030546325141  0.4915047115033603  0.08176537671479883  1.0000
  C   C16       1.0  0.9467956138828771  0.3887872431774042  0.699151443262416  1.0000
  C   C17       1.0  0.5044008969699477  0.5004745964570388  0.9185141804938157  1.0000
  C   C18       1.0  0.4616517507593869  0.37505205135104097  0.9497365329992465  1.0000
  C   C19       1.0  0.4511504697958913  0.3715277228022487  0.045171514843133316  1.0000
  C   C20       1.0  0.5051555998890223  0.5041126669480817  0.828230104197907  1.0000
  C   C21       1.0  0.49183906649688686  0.4875707672395393  0.17205983587427207  1.0000
  C   C22       1.0  0.4928218715684808  0.48751474614750373  0.2475695463676432  1.0000
  C   C23       1.0  0.3802995088657398  0.0665379073022194  0.49554546556915124  1.0000
  Br  Br1       1.0  0.26351951636679877  0.33108728643848906  0.08036042587501413  1.0000
  N   N1        1.0  0.8436323188799124  0.4750559747955521  0.49528529321755616  1.0000
  N   N2        1.0  0.14221506552966903  0.5172562022143765  0.5092656986755062  1.0000
  O   O1        1.0  0.6102256526234413  0.6760700701471835  0.47593654466106744  1.0000
  O   O2        1.0  0.38267755915104124  0.6855677423064392  0.5049543569567663  1.0000
  O   O3        1.0  0.60729889227661  0.4661185363449291  0.37413306996595014  1.0000
  O   O4        1.0  0.37834550927331634  0.5135152216675536  0.3719717711312357  1.0000
  O   O5        1.0  0.5897317512344741  0.31878665056916583  0.525413435863378  1.0000
  O   O6        1.0  0.36128512835777116  0.3221948386641244  0.49755180340981314  1.0000
  O   O7        1.0  0.6081756128069885  0.531071401600272  0.6256397812401958  1.0000
  O   O8        1.0  0.3818964609900988  0.4892493371511932  0.6285307265177809  1.0000
  O   O9        1.0  0.8728436745187482  0.38540802286305365  0.6210020951624602  1.0000
