data_image0
_chemical_formula_structural       Ca4H32C32O16
_chemical_formula_sum              "Ca4 H32 C32 O16"
_cell_length_a       6.785294975002496
_cell_length_b       9.610776664353134
_cell_length_c       12.649180376323308
_cell_angle_alpha    104.24620131475339
_cell_angle_beta     90.00007314147204
_cell_angle_gamma    89.99991834300734

_space_group_name_H-M_alt    "P 1"
_space_group_IT_number       1

loop_
  _space_group_symop_operation_xyz
  'x, y, z'

loop_
  _atom_site_type_symbol
  _atom_site_label
  _atom_site_symmetry_multiplicity
  _atom_site_fract_x
  _atom_site_fract_y
  _atom_site_fract_z
  _atom_site_occupancy
  Ca  Ca1       1.0  0.015406730871390599  0.6901163825408928  0.4880322015556544  1.0000
  Ca  Ca2       1.0  0.515408482508576  0.8098839092925801  0.5119681254312526  1.0000
  Ca  Ca3       1.0  0.9845912426876992  0.3098843312647546  0.5119684871519041  1.0000
  Ca  Ca4       1.0  0.4845924386019148  0.19011573100110007  0.48803236382030957  1.0000
  H   H1        1.0  0.8576244866597378  0.9654543830972951  0.21462932714977254  1.0000
  H   H2        1.0  0.3576237568411358  0.534545623060943  0.7853711807261945  1.0000
  H   H3        1.0  0.1423764344507532  0.034545257196384696  0.7853711621017894  1.0000
  H   H4        1.0  0.6423756904940844  0.46545401723335533  0.2146293085249766  1.0000
  H   H5        1.0  0.8933727437000272  0.6788737736487818  0.2772650306825  1.0000
  H   H6        1.0  0.3933712861713302  0.8211251257213094  0.7227337148618247  1.0000
  H   H7        1.0  0.10662670363518599  0.3211258666455096  0.7227354585686712  1.0000
  H   H8        1.0  0.6066281611637906  0.1788734393443434  0.2772657840473087  1.0000
  H   H9        1.0  0.7100659004173834  0.7367643161790197  0.20221132704689643  1.0000
  H   H10       1.0  0.2100632646372631  0.7632358114409499  0.7977883119466894  1.0000
  H   H11       1.0  0.28993502069217664  0.26323532239675274  0.7977883713194134  1.0000
  H   H12       1.0  0.7899361826961665  0.23676490064617886  0.20221158587601457  1.0000
  H   H13       1.0  0.924351357746829  0.5726643375042642  0.0675671475007888  1.0000
  H   H14       1.0  0.4243472373323769  0.92733775653884  0.9324322127878804  1.0000
  H   H15       1.0  0.07564956336187828  0.42733637458223944  0.932432750322306  1.0000
  H   H16       1.0  0.5756522100010528  0.0726629555482887  0.0675676850348168  1.0000
  H   H17       1.0  0.21391485577535715  0.6789453928558515  0.005789020894617599  1.0000
  H   H18       1.0  0.7139147851161026  0.8210558067786521  0.9942116104761639  1.0000
  H   H19       1.0  0.7860845915590104  0.32105532094917777  0.9942116678133317  1.0000
  H   H20       1.0  0.28608613599345734  0.17894383179712042  0.005788087890145703  1.0000
  H   H21       1.0  0.1953790111493632  0.9564532982908887  0.09588573558164631  1.0000
  H   H22       1.0  0.6953792863541821  0.5435479150989053  0.90411409510628  1.0000
  H   H23       1.0  0.8046219099602893  0.0435474155135225  0.9041149531266939  1.0000
  H   H24       1.0  0.30462163475453247  0.4564527969876052  0.09588580271680772  1.0000
  H   H25       1.0  0.389005225449658  0.867560283690665  0.14170652994685906  1.0000
  H   H26       1.0  0.8890052121149097  0.6324396962712839  0.8582939945165506  1.0000
  H   H27       1.0  0.6109942218847165  0.13244043011436452  0.8582941587610905  1.0000
  H   H28       1.0  0.11099423521937268  0.36755994230510675  0.1417057038493681  1.0000
  H   H29       1.0  0.1715226751774068  0.047480752484418104  0.28126600365525434  1.0000
  H   H30       1.0  0.6715216834066735  0.45251849589684656  0.7187336914923321  1.0000
  H   H31       1.0  0.8284782459340292  0.9525188895271693  0.7187352764815602  1.0000
  H   H32       1.0  0.3284777639276014  0.5474811426795441  0.2812660068735795  1.0000
  C   C1        1.0  0.8509691181346141  0.9621402677598994  0.3804111225176286  1.0000
  C   C2        1.0  0.3509694608156335  0.5378586704429152  0.6195891823839405  1.0000
  C   C3        1.0  0.1490288554200561  0.0378636631421401  0.6195885827897811  1.0000
  C   C4        1.0  0.6490314602991916  0.4621366775257272  0.3804112999257399  1.0000
  C   C5        1.0  0.9272221759765029  0.9002751469749841  0.26479835443748817  1.0000
  C   C6        1.0  0.4272197213713865  0.5997237258566274  0.7352011998839885  1.0000
  C   C7        1.0  0.07277727135861768  0.09972341809067592  0.7352011444716524  1.0000
  C   C8        1.0  0.5727767784124251  0.40027698794963135  0.2647994888231864  1.0000
  C   C9        1.0  0.8702888654937835  0.7431888056603667  0.21754510762266935  1.0000
  C   C10       1.0  0.3702876799656352  0.7568079659580889  0.7824532268064746  1.0000
  C   C11       1.0  0.1297120556166149  0.2568097594046749  0.782454391286862  1.0000
  C   C12       1.0  0.6297117673694854  0.24319059910757096  0.21754627210266622  1.0000
  C   C13       1.0  0.9798463185619538  0.675802699791987  0.11527667910783632  1.0000
  C   C14       1.0  0.47985555682117803  0.8241939872374432  0.8847248767750246  1.0000
  C   C15       1.0  0.0201472336757149  0.32419479691910874  0.884724992998713  1.0000
  C   C16       1.0  0.5201453642883748  0.1758056513383295  0.11527482159127803  1.0000
  C   C17       1.0  0.14019370369777556  0.7335997527867094  0.08153380326364613  1.0000
  C   C18       1.0  0.6401861942247749  0.7664025750309023  0.9184638250533581  1.0000
  C   C19       1.0  0.8598116387349888  0.2664020310907845  0.9184655031321399  1.0000
  C   C20       1.0  0.35981472688393257  0.23359813705560842  0.08153607276972961  1.0000
  C   C21       1.0  0.2269282552550038  0.874446217821678  0.14117942793865984  1.0000
  C   C22       1.0  0.7269282570769491  0.6255549709494801  0.8588212103107724  1.0000
  C   C23       1.0  0.7730711920793638  0.12555449598335142  0.8588212607692965  1.0000
  C   C24       1.0  0.2730711902573262  0.37444466762691064  0.14117848805513947  1.0000
  C   C25       1.0  0.15058972672979107  0.9307340307453842  0.2590209779082003  1.0000
  C   C26       1.0  0.6505880879452802  0.569267221752284  0.7409796199897231  1.0000
  C   C27       1.0  0.8494097206063599  0.06926561126681459  0.7409803022282233  1.0000
  C   C28       1.0  0.34941135938721146  0.4307334886169445  0.25901948694772164  1.0000
  C   C29       1.0  0.27874790162086066  0.8757111037790538  0.33867255235087873  1.0000
  C   C30       1.0  0.778748909710124  0.6242878929943529  0.6613269234908685  1.0000
  C   C31       1.0  0.7212530194870085  0.12429068181819504  0.6613275449289945  1.0000
  C   C32       1.0  0.22125053762499644  0.3757106720713068  0.338672575418272  1.0000
  O   O1        1.0  0.8296820676687202  0.8792270339375535  0.4442483430797922  1.0000
  O   O2        1.0  0.3296820909999312  0.6207719220353809  0.5557519505697712  1.0000
  O   O3        1.0  0.1703173796692212  0.12077153628181495  0.5557535284851057  1.0000
  O   O4        1.0  0.6703188301078384  0.37922878833322216  0.44424715636807127  1.0000
  O   O5        1.0  0.8122421582381917  0.09587065222007851  0.4076149496879254  1.0000
  O   O6        1.0  0.31224317041986177  0.4041295539192832  0.5923858101838348  1.0000
  O   O7        1.0  0.18775728909692896  0.904127912845574  0.5923845492212081  1.0000
  O   O8        1.0  0.6877577506889381  0.5958722333958661  0.4076150779812906  1.0000
  O   O9        1.0  0.24012924347864834  0.7586651317220686  0.36482754162840797  1.0000
  O   O10       1.0  0.7401270054368394  0.7413371161050435  0.6351717212845003  1.0000
  O   O11       1.0  0.7598702038591936  0.24133236326866137  0.6351733395944522  1.0000
  O   O12       1.0  0.25986949434245327  0.2586657395689755  0.364826993680481  1.0000
  O   O13       1.0  0.43014143870878024  0.9502045051353109  0.37789607793394714  1.0000
  O   O14       1.0  0.9301395562959057  0.5497975875092321  0.6221048671863443  1.0000
  O   O15       1.0  0.5698565348520004  0.0497940616488677  0.6221042118600479  1.0000
  O   O16       1.0  0.0698554697091467  0.45020634511194385  0.3778956290055362  1.0000
