data_image0
_chemical_formula_structural       Cu4H16C12S4N12
_chemical_formula_sum              "Cu4 H16 C12 S4 N12"
_cell_length_a       5.052332125209164
_cell_length_b       8.589709310315262
_cell_length_c       11.659579822582899
_cell_angle_alpha    108.63120301679598
_cell_angle_beta     89.99953059606241
_cell_angle_gamma    89.9992559313081

_space_group_name_H-M_alt    "P 1"
_space_group_IT_number       1

loop_
  _space_group_symop_operation_xyz
  'x, y, z'

loop_
  _atom_site_type_symbol
  _atom_site_label
  _atom_site_symmetry_multiplicity
  _atom_site_fract_x
  _atom_site_fract_y
  _atom_site_fract_z
  _atom_site_occupancy
  Cu  Cu1       1.0  0.9975818926850265  0.3367615866016536  0.34347856875105975  1.0000
  Cu  Cu2       1.0  0.4975808066535806  0.1632402600187888  0.1565196343320636  1.0000
  Cu  Cu3       1.0  0.0024091908495834  0.6632359154117111  0.6565235177979929  1.0000
  Cu  Cu4       1.0  0.5024261110828193  0.8367634077207811  0.843482228666076  1.0000
  H   H1        1.0  0.9172106402614661  0.6186795378708112  0.9265361671409948  1.0000
  H   H2        1.0  0.41718809808539  0.8813254714722235  0.573472823993427  1.0000
  H   H3        1.0  0.08278836037057863  0.38132292463786405  0.07346368884523002  1.0000
  H   H4        1.0  0.5828049647162743  0.11867325904376001  0.4265295598052176  1.0000
  H   H5        1.0  0.3605250044849909  0.6148028839000689  0.038645058688572945  1.0000
  H   H6        1.0  0.8605169703014185  0.8851916465778088  0.46135802406922005  1.0000
  H   H7        1.0  0.6394779547680686  0.3851946412970761  0.9613553180433315  1.0000
  H   H8        1.0  0.13948005113125822  0.11480467337867852  0.53864034564468  1.0000
  H   H9        1.0  0.21162788048799547  0.6380507888349884  0.1830844502844045  1.0000
  H   H10       1.0  0.7116031106104048  0.8619464868787503  0.3169164266649673  1.0000
  H   H11       1.0  0.7883750786708533  0.3619541190577209  0.8169168550913071  1.0000
  H   H12       1.0  0.2884018280500698  0.13804370209789596  0.6830796018558515  1.0000
  H   H13       1.0  0.43887577982288667  0.788741175684862  0.16616141689416247  1.0000
  H   H14       1.0  0.9388463143611859  0.7112489771030468  0.3338343076899406  1.0000
  H   H15       1.0  0.5611350965710643  0.21125761284921654  0.8338366923981654  1.0000
  H   H16       1.0  0.0611427900102015  0.2887386735785428  0.6661671106003267  1.0000
  C   C1        1.0  0.9917335119037108  0.9538005053915555  0.15230455460400089  1.0000
  C   C2        1.0  0.4917258905193977  0.5462014221356243  0.3476929622458372  1.0000
  C   C3        1.0  0.0082734058765297  0.04620323207525699  0.8476921790523518  1.0000
  C   C4        1.0  0.5082651929790601  0.4537997886573351  0.6523083062896687  1.0000
  C   C5        1.0  0.8999869028985189  0.7375607116814107  0.9955291044948565  1.0000
  C   C6        1.0  0.3999722948353366  0.7624151577040763  0.5044600351344855  1.0000
  C   C7        1.0  0.10001407705634342  0.2624405571687234  0.0044678895586968866  1.0000
  C   C8        1.0  0.6000227472503  0.23758357280213718  0.49554234865806973  1.0000
  C   C9        1.0  0.28252956961086545  0.702857423837301  0.12165861355772013  1.0000
  C   C10       1.0  0.7825131596395282  0.797137992992539  0.37833640037626265  1.0000
  C   C11       1.0  0.717475368904637  0.2971438333720826  0.87833923537395  1.0000
  C   C12       1.0  0.2174838618173709  0.20285711007276316  0.6216608171916532  1.0000
  S   S1        1.0  0.17059512468146923  0.08232279526421142  0.2709999981920461  1.0000
  S   S2        1.0  0.6705844401569577  0.41767369198645105  0.228997281808482  1.0000
  S   S3        1.0  0.8294157516617203  0.9176796788070476  0.7289990028673328  1.0000
  S   S4        1.0  0.3294106019094515  0.5823275187869612  0.7710039867148382  1.0000
  N   N1        1.0  0.7217688693033822  0.8499645412773588  0.99714271288898  1.0000
  N   N2        1.0  0.22175691159704772  0.6500400336792322  0.5028600475019331  1.0000
  N   N3        1.0  0.27823804846455863  0.15003792119222942  0.002857143072880297  1.0000
  N   N4        1.0  0.7782361511876986  0.3499599253491469  0.4971426335524002  1.0000
  N   N5        1.0  0.7746516809940689  0.9864807726106762  0.09732139445512905  1.0000
  N   N6        1.0  0.27463594775926486  0.5135183726727844  0.4026771244022668  1.0000
  N   N7        1.0  0.22535919532258927  0.013524170106570902  0.9026773462253174  1.0000
  N   N8        1.0  0.7253571150231721  0.48648283811039766  0.5973241441271426  1.0000
  N   N9        1.0  0.0694944808001239  0.7945499429209446  0.09024319700071708  1.0000
  N   N10       1.0  0.5694559117371868  0.7054510886683119  0.40976684333077873  1.0000
  N   N11       1.0  0.9305183748439562  0.2054513026281413  0.9097555067968839  1.0000
  N   N12       1.0  0.4305351717855076  0.2945489052334551  0.5902332730587432  1.0000
