data_image0
_chemical_formula_structural       Cu4H20C16N8
_chemical_formula_sum              "Cu4 H20 C16 N8"
_cell_length_a       6.295631583023249
_cell_length_b       8.453204844086988
_cell_length_c       9.6137788711155
_cell_angle_alpha    90.0004800419993
_cell_angle_beta     90.00029124632242
_cell_angle_gamma    89.99984344786357

_space_group_name_H-M_alt    "P 1"
_space_group_IT_number       1

loop_
  _space_group_symop_operation_xyz
  'x, y, z'

loop_
  _atom_site_type_symbol
  _atom_site_label
  _atom_site_symmetry_multiplicity
  _atom_site_fract_x
  _atom_site_fract_y
  _atom_site_fract_z
  _atom_site_occupancy
  Cu  Cu1       1.0  0.7499954483950475  0.46538452359583715  0.8839872995097481  1.0000
  Cu  Cu2       1.0  0.2500065225173316  0.03461927518878129  0.38399002571639335  1.0000
  Cu  Cu3       1.0  0.7500027783749275  0.9653817806179885  0.6160102341382513  1.0000
  Cu  Cu4       1.0  0.24999955687577105  0.534617715214928  0.1160150406730835  1.0000
  H   H1        1.0  0.6095114219162738  0.6588377698597154  0.36169576061973174  1.0000
  H   H2        1.0  0.39049918996275307  0.841168792939065  0.8616930106655831  1.0000
  H   H3        1.0  0.890497010585861  0.15884269692010383  0.1383087531543339  1.0000
  H   H4        1.0  0.1094950953169089  0.34115521791279246  0.6383113166418113  1.0000
  H   H5        1.0  0.3905010558268032  0.3411561880795658  0.6383117804298877  1.0000
  H   H6        1.0  0.6094926384830188  0.15884172675707478  0.13830932954258662  1.0000
  H   H7        1.0  0.10949640626834882  0.8411654568082623  0.8616935870477178  1.0000
  H   H8        1.0  0.8905142056175136  0.6588363740524413  0.3616941440464175  1.0000
  H   H9        1.0  0.750008397742164  0.47364486720442045  0.5448542956947053  1.0000
  H   H10       1.0  0.24999727228944835  0.02635452536872409  0.04485800101414131  1.0000
  H   H11       1.0  0.7499977329432854  0.9736571772885156  0.9551401785088061  1.0000
  H   H12       1.0  0.2499961379698377  0.5263348948821828  0.45514076320490915  1.0000
  H   H13       1.0  0.6087975329017752  0.3641770052504754  0.4162798668975611  1.0000
  H   H14       1.0  0.3912046908096372  0.1358247345224015  0.916290165136516  1.0000
  H   H15       1.0  0.89120836519907  0.8641843882872778  0.08370952066568553  1.0000
  H   H16       1.0  0.1087873636000154  0.6358100685933009  0.5837084848691205  1.0000
  H   H17       1.0  0.3912054143637461  0.6358110376906437  0.58370895098777  1.0000
  H   H18       1.0  0.6087871376212277  0.8641834191824529  0.08370697419437792  1.0000
  H   H19       1.0  0.1087866400418349  0.1358237654201133  0.9162886588441596  1.0000
  H   H20       1.0  0.8912203488921194  0.3641756083924789  0.4162834535364581  1.0000
  C   C1        1.0  0.7499955281416105  0.27273762030834087  0.790983616842759  1.0000
  C   C2        1.0  0.2500120684033078  0.22726529452184244  0.2909836051828166  1.0000
  C   C3        1.0  0.7499988208307472  0.7727499570484894  0.7090093735109236  1.0000
  C   C4        1.0  0.2500010655526737  0.727250422687021  0.20901560276915632  1.0000
  C   C5        1.0  0.7500068700452971  0.5444329297102681  0.19616648709340723  1.0000
  C   C6        1.0  0.24999291578594554  0.9555732428626201  0.6961693191828859  1.0000
  C   C7        1.0  0.7499989126911117  0.04442899596538299  0.3038361415158236  1.0000
  C   C8        1.0  0.2499976656407057  0.4555704920765534  0.8038358531095184  1.0000
  C   C9        1.0  0.7500137046554372  0.5842197187345376  0.3424847487774016  1.0000
  C   C10       1.0  0.249996756862906  0.9157842955154648  0.8424831263078687  1.0000
  C   C11       1.0  0.7499950715774516  0.08422504118750848  0.1575171335485166  1.0000
  C   C12       1.0  0.24999718466155232  0.41577897112424006  0.6575196717659538  1.0000
  C   C13       1.0  0.7500128201595969  0.4367814058518532  0.4355703894644805  1.0000
  C   C14       1.0  0.2499974965407858  0.0632217002219662  0.9355765648343354  1.0000
  C   C15       1.0  0.7499943318887006  0.9367888194543992  0.0644216146790058  1.0000
  C   C16       1.0  0.24999489232978078  0.5632090030769275  0.5644236293059848  1.0000
  N   N1        1.0  0.7499986926946888  0.15862198706250294  0.720691376886883  1.0000
  N   N2        1.0  0.2500083536598012  0.34137789372530136  0.22069220802244874  1.0000
  N   N3        1.0  0.7499961820928434  0.6586089663301989  0.7793174133352636  1.0000
  N   N4        1.0  0.24999948939831276  0.841387349685078  0.2793192847170474  1.0000
  N   N5        1.0  0.7499953713350039  0.5099235666366224  0.07878899792129353  1.0000
  N   N6        1.0  0.2499955537254834  0.9900826733288068  0.5787910447347073  1.0000
  N   N7        1.0  0.7500026283350536  0.009916016500049795  0.4212050543980226  1.0000
  N   N8        1.0  0.24999963391542224  0.4900822211091551  0.9212102217535191  1.0000
