data_image0
_chemical_formula_structural       CdH24C28N12O6
_chemical_formula_sum              "Cd1 H24 C28 N12 O6"
_cell_length_a       7.71253595780695
_cell_length_b       8.743526749914889
_cell_length_c       12.207579486226841
_cell_angle_alpha    112.91604002571768
_cell_angle_beta     91.66389658407061
_cell_angle_gamma    100.06941836948063

_space_group_name_H-M_alt    "P 1"
_space_group_IT_number       1

loop_
  _space_group_symop_operation_xyz
  'x, y, z'

loop_
  _atom_site_type_symbol
  _atom_site_label
  _atom_site_symmetry_multiplicity
  _atom_site_fract_x
  _atom_site_fract_y
  _atom_site_fract_z
  _atom_site_occupancy
  Cd  Cd1       1.0  8.48028610533961e-06  0.5000042290984298  0.49999154258222933  1.0000
  H   H1        1.0  0.3474452364017893  0.44477318121108317  0.5527168820368757  1.0000
  H   H2        1.0  0.6525648627771405  0.5552315175818946  0.447285712363417  1.0000
  H   H3        1.0  0.31603440523779364  0.6301567157982005  0.634850552161147  1.0000
  H   H4        1.0  0.6839622445488729  0.3698453113415567  0.36514768432378725  1.0000
  H   H5        1.0  0.4017992434726523  0.03368282262646009  0.7160722680528548  1.0000
  H   H6        1.0  0.598206003560435  0.9663104399473781  0.2839253866783907  1.0000
  H   H7        1.0  0.6716879787606588  0.3251551982992352  0.1336450585046052  1.0000
  H   H8        1.0  0.3282917042264941  0.6748213315401869  0.8663571320365833  1.0000
  H   H9        1.0  0.6838817843305306  0.0162861348025487  0.014774836804754391  1.0000
  H   H10       1.0  0.3161178885331354  0.9836982184497741  0.9852144664920744  1.0000
  H   H11       1.0  0.21959211222961272  0.1688466464189062  0.1785286056251465  1.0000
  H   H12       1.0  0.7804099266500797  0.8311491234870444  0.8214590156635636  1.0000
  H   H13       1.0  0.9312538927807239  0.6123967374076145  0.255592238544935  1.0000
  H   H14       1.0  0.06876072767978773  0.387629530066974  0.7444041773481372  1.0000
  H   H15       1.0  0.020801846413157018  0.8709552561723513  0.21644147184723292  1.0000
  H   H16       1.0  0.9792141994226214  0.12907228358805875  0.7835627064921835  1.0000
  H   H17       1.0  0.21863495327260551  0.12796040662342992  0.3726875962906674  1.0000
  H   H18       1.0  0.7813841610663631  0.8720633664856834  0.627319708208347  1.0000
  H   H19       1.0  0.23484581158277967  0.8313835255830285  0.5840684558232212  1.0000
  H   H20       1.0  0.7651666722840672  0.16862626378252096  0.4159315176533481  1.0000
  H   H21       1.0  0.8153259323731774  0.5785227089463663  0.9195554282999369  1.0000
  H   H22       1.0  0.18466893122051434  0.42146536402918855  0.08045608754240162  1.0000
  H   H23       1.0  0.46028497343669983  0.1534049916865499  0.9454200600617353  1.0000
  H   H24       1.0  0.5396947619788293  0.8465778695404113  0.05457897660310355  1.0000
  C   C1        1.0  0.8859045416474346  0.20438252073127933  0.2265786841243553  1.0000
  C   C2        1.0  0.11409107751060794  0.7956005300567668  0.7734044206328862  1.0000
  C   C3        1.0  0.9447528420995183  0.10015179912671361  0.1088159384630103  1.0000
  C   C4        1.0  0.055230456970747424  0.899828581300504  0.891172667684586  1.0000
  C   C5        1.0  0.8220824810128491  0.006719324808138103  0.007725457293759111  1.0000
  C   C6        1.0  0.17791227837291507  0.9932599151222234  0.992262300924807  1.0000
  C   C7        1.0  0.12441111158062772  0.0936232706717135  0.10008056223006179  1.0000
  C   C8        1.0  0.8755742761067681  0.906360929334646  0.89990751985318  1.0000
  C   C9        1.0  0.020142186663477425  0.7231627989390077  0.32195569763704407  1.0000
  C   C10       1.0  0.9798781306305743  0.2768597320627392  0.6780422805088832  1.0000
  C   C11       1.0  0.07073436389760702  0.8693867668680967  0.30032971364178007  1.0000
  C   C12       1.0  0.929290317392912  0.1306383386526448  0.6996715476259823  1.0000
  C   C13       1.0  0.18247810483746457  0.010899707260918498  0.38626860164432486  1.0000
  C   C14       1.0  0.817541705635314  0.9891202881217468  0.6137286588700023  1.0000
  C   C15       1.0  0.24488271757191168  0.0005039569327394  0.49204255179182604  1.0000
  C   C16       1.0  0.7551285658901891  0.9995058258339354  0.5079516551709845  1.0000
  C   C17       1.0  0.1897964590971597  0.8476539491622149  0.5046866365063565  1.0000
  C   C18       1.0  0.8102181560469789  0.15235966296636153  0.4953103572306787  1.0000
  C   C19       1.0  0.35880891435358114  0.14146849906794762  0.5888665869789733  1.0000
  C   C20       1.0  0.6412014053440274  0.8585437925543502  0.411138123711119  1.0000
  C   C21       1.0  0.519649298440477  0.29446259074590836  0.7612422984378568  1.0000
  C   C22       1.0  0.4803445710470982  0.7055330673987965  0.23876638573892003  1.0000
  C   C23       1.0  0.6044672307978729  0.34375677225023776  0.8799102629359368  1.0000
  C   C24       1.0  0.3955131555409679  0.6562235567726303  0.12009627828622632  1.0000
  C   C25       1.0  0.7423868686489713  0.48400138707025053  0.9471653368214348  1.0000
  C   C26       1.0  0.2575958215093195  0.5159776990150606  0.05284337447014316  1.0000
  C   C27       1.0  0.5606126008774198  0.26344582720013693  0.9570180385222856  1.0000
  C   C28       1.0  0.439366677594876  0.7365420785015218  0.04299221950144277  1.0000
  N   N1        1.0  0.07856695515712181  0.7135753361929105  0.4234329330037098  1.0000
  N   N2        1.0  0.9214474163445986  0.28644333632978203  0.5765630037163447  1.0000
  N   N3        1.0  0.42169212801276507  0.13550598982882892  0.6933183928185755  1.0000
  N   N4        1.0  0.5783159750872358  0.8645024726626643  0.30669420896138894  1.0000
  N   N5        1.0  0.4168804177315479  0.29657683457099177  0.5938711309440237  1.0000
  N   N6        1.0  0.5831280338676168  0.7034392303014697  0.4061362201002225  1.0000
  N   N7        1.0  0.517355717198619  0.3930951740232159  0.7014256139831474  1.0000
  N   N8        1.0  0.4826461013780944  0.606908155811915  0.29858949890549275  1.0000
  N   N9        1.0  0.666528826274245  0.3542146632134405  0.059907537563617615  1.0000
  N   N10       1.0  0.3334465239225892  0.6457731982818302  0.9401042477618375  1.0000
  N   N11       1.0  0.7798000141943079  0.4888497295812043  0.05638642489314095  1.0000
  N   N12       1.0  0.2201723920649599  0.5111241743348812  0.9436304176007866  1.0000
  O   O1        1.0  0.7195548892900662  0.2047835248644176  0.2316899578731366  1.0000
  O   O2        1.0  0.2804448022454906  0.7951945023068347  0.7682984065080944  1.0000
  O   O3        1.0  0.0062489920710931115  0.2827909607215062  0.3132264762358687  1.0000
  O   O4        1.0  0.9937406252789388  0.7172072098306828  0.6867574038423071  1.0000
  O   O5        1.0  0.29955902168600806  0.5437373200442438  0.5512159924602216  1.0000
  O   O6        1.0  0.700452744609102  0.45626866907656455  0.4487804488937642  1.0000
