data_image0
_chemical_formula_structural       K2P2H48C24O12F12
_chemical_formula_sum              "K2 P2 H48 C24 O12 F12"
_cell_length_a       7.722830453007329
_cell_length_b       10.762377398006171
_cell_length_c       11.359244704004396
_cell_angle_alpha    90.00001634823633
_cell_angle_beta     89.99990042781465
_cell_angle_gamma    90.00012201960722

_space_group_name_H-M_alt    "P 1"
_space_group_IT_number       1

loop_
  _space_group_symop_operation_xyz
  'x, y, z'

loop_
  _atom_site_type_symbol
  _atom_site_label
  _atom_site_symmetry_multiplicity
  _atom_site_fract_x
  _atom_site_fract_y
  _atom_site_fract_z
  _atom_site_occupancy
  K   K1        1.0  0.5000088747850027  0.5000005339021244  0.1973984597894614  1.0000
  K   K2        1.0  4.0436944459999977e-07  1.050417637e-07  0.6974064038965365  1.0000
  P   P1        1.0  4.847141000000002e-07  0.5000010801087315  0.1995890419281209  1.0000
  P   P2        1.0  0.4999986142186754  0.9999998012542409  0.6995894871171018  1.0000
  H   H1        1.0  0.47048534986815577  0.3897674919247721  0.5947329786516561  1.0000
  H   H2        1.0  0.029514985608017193  0.8897690577957041  0.09473263369036998  1.0000
  H   H3        1.0  0.9704848980722076  0.11023104990565001  0.0947328522712994  1.0000
  H   H4        1.0  0.5295145518075228  0.6102309080684806  0.5947329735379581  1.0000
  H   H5        1.0  0.3082950377574106  0.4631953683222393  0.5055246884649875  1.0000
  H   H6        1.0  0.1917057427467768  0.9631962536879902  0.005525912369570598  1.0000
  H   H7        1.0  0.8082943687441642  0.03680475630415001  0.005526302920465299  1.0000
  H   H8        1.0  0.691705091732359  0.5368039339613946  0.5055253520323291  1.0000
  H   H9        1.0  0.25902022209003656  0.277697266100006  0.39681940163144697  1.0000
  H   H10       1.0  0.24098030527129302  0.7776983776266351  0.8968183924689156  1.0000
  H   H11       1.0  0.7590188249629717  0.22230197169013627  0.8968188914283031  1.0000
  H   H12       1.0  0.7409801850069399  0.7223029326005207  0.3968182963770344  1.0000
  H   H13       1.0  0.4136109791334377  0.19839986301682452  0.4868648990695092  1.0000
  H   H14       1.0  0.08639037855409978  0.6983988792126966  0.9868640727328141  1.0000
  H   H15       1.0  0.9136098165890087  0.30160056806699503  0.9868644102976558  1.0000
  H   H16       1.0  0.5863891980119577  0.8016012919712383  0.4868648784134634  1.0000
  H   H17       1.0  0.598597747391061  0.16700728512928012  0.30372936981982684  1.0000
  H   H18       1.0  0.9014026315874162  0.6670067842772341  0.8037299316141142  1.0000
  H   H19       1.0  0.09859673636915998  0.33299260783537943  0.8037294808566314  1.0000
  H   H20       1.0  0.40140160256730434  0.8329919563659661  0.30372957642273235  1.0000
  H   H21       1.0  0.3940340325436721  0.08879299681307636  0.30303577211947186  1.0000
  H   H22       1.0  0.10596747035246067  0.5887939013483037  0.8030349226302887  1.0000
  H   H23       1.0  0.8940331942413164  0.4112064197187949  0.8030353129701239  1.0000
  H   H24       1.0  0.6059653191873622  0.9112062444730713  0.3030348775936104  1.0000
  H   H25       1.0  0.3883330264606783  0.08907728426522253  0.09074877381043929  1.0000
  H   H26       1.0  0.11166772453245237  0.5890763392149837  0.5907496782595983  1.0000
  H   H27       1.0  0.8883334821808899  0.41092391790474664  0.5907491949239584  1.0000
  H   H28       1.0  0.6116655725314999  0.910922822235037  0.09074875280624178  1.0000
  H   H29       1.0  0.5947250866015634  0.16468713037622962  0.08835325624008308  1.0000
  H   H30       1.0  0.9052758355262538  0.6646866354617063  0.5883529331138319  1.0000
  H   H31       1.0  0.09472408244450747  0.335313620935196  0.5883533679040623  1.0000
  H   H32       1.0  0.4052748133698642  0.8353129754034474  0.08835345888984139  1.0000
  H   H33       1.0  0.4086524172550198  0.19905405301685164  0.9067158802383091  1.0000
  H   H34       1.0  0.09134914704598877  0.699053855360596  0.40671634248961647  1.0000
  H   H35       1.0  0.9086538244975129  0.30094448799781764  0.40671580539991226  1.0000
  H   H36       1.0  0.5913479825651107  0.8009453701195357  0.9067158535408522  1.0000
  H   H37       1.0  0.2562342088728967  0.2792732144696829  0.9977440404614412  1.0000
  H   H38       1.0  0.24376606541714094  0.7792751088129183  0.4977434421163309  1.0000
  H   H39       1.0  0.7562340839467652  0.22072604945219612  0.4977439439436678  1.0000
  H   H40       1.0  0.7437646636244324  0.7207262360863355  0.9977438118272557  1.0000
  H   H41       1.0  0.3074878506581554  0.46622635463791096  0.8912598428922394  1.0000
  H   H42       1.0  0.19251195374793176  0.9662272412406882  0.39126282652322425  1.0000
  H   H43       1.0  0.8074871726736959  0.0337720266225219  0.3912632172087667  1.0000
  H   H44       1.0  0.6925125886340807  0.5337739930053261  0.8912596243455297  1.0000
  H   H45       1.0  0.4651606172376716  0.3909289721220974  0.7996392112579044  1.0000
  H   H46       1.0  0.0348391983973997  0.8909296169934752  0.2996397403397352  1.0000
  H   H47       1.0  0.9651614568667808  0.10906962327083394  0.2996399649031075  1.0000
  H   H48       1.0  0.5348387611635487  0.6090694895955837  0.7996391995333239  1.0000
  C   C1        1.0  0.4477166774149878  0.44079522093249335  0.5115654975952282  1.0000
  C   C2        1.0  0.052281431669093985  0.9407940342209856  0.0115677667282057  1.0000
  C   C3        1.0  0.9477173695305152  0.05920604842727783  0.011567118104025595  1.0000
  C   C4        1.0  0.5522821417862076  0.5592050123327327  0.5115672124445254  1.0000
  C   C5        1.0  0.39744869695120844  0.25462997965191664  0.4064819309305108  1.0000
  C   C6        1.0  0.10255303235756937  0.7546308789522272  0.9064810854795408  1.0000
  C   C7        1.0  0.897447368063062  0.2453694732762203  0.9064814269616193  1.0000
  C   C8        1.0  0.6025516854689739  0.7453702219594407  0.4064818759629033  1.0000
  C   C9        1.0  0.4567197379398776  0.18119456175005416  0.30109899905077236  1.0000
  C   C10       1.0  0.043282043245682196  0.6811944410182921  0.8010991040366945  1.0000
  C   C11       1.0  0.9567186262928968  0.31880587946552913  0.8010985149288672  1.0000
  C   C12       1.0  0.5432796187373299  0.8188056081155467  0.30109903402758675  1.0000
  C   C13       1.0  0.45327955542089876  0.18065932991721928  0.09221627493106149  1.0000
  C   C14       1.0  0.04672016788642708  0.6806582852952163  0.5922154955093291  1.0000
  C   C15       1.0  0.9532797402205799  0.3193419722651926  0.5922157909531619  1.0000
  C   C16       1.0  0.5467190398236141  0.8193407770251044  0.0922163059844507  1.0000
  C   C17       1.0  0.39414346781069287  0.25498686310268687  0.9873902742841381  1.0000
  C   C18       1.0  0.10585676107049119  0.7549857585264736  0.4873898390368936  1.0000
  C   C19       1.0  0.8941421198690944  0.24501353829331413  0.48739018433096953  1.0000
  C   C20       1.0  0.6058567259905202  0.7450135134981938  0.9873902153112863  1.0000
  C   C21       1.0  0.4460277037544812  0.4416278054526117  0.8834071228694426  1.0000
  C   C22       1.0  0.05397204793770529  0.9416294088200917  0.3834102703445835  1.0000
  C   C23       1.0  0.9460258036753614  0.05836985667665572  0.38341050383471037  1.0000
  C   C24       1.0  0.5539727555887451  0.5583716106625546  0.8834079551549577  1.0000
  O   O1        1.0  0.49796510858248405  0.3663070558656757  0.4136733858541674  1.0000
  O   O2        1.0  0.0020356378644094996  0.8663078010619504  0.9136744199598396  1.0000
  O   O3        1.0  0.9979647441866032  0.13369255333334715  0.9136746123828273  1.0000
  O   O4        1.0  0.5020339606080384  0.6336922187483938  0.4136742999207286  1.0000
  O   O5        1.0  0.4094432596044796  0.24645890019729685  0.19686147154630618  1.0000
  O   O6        1.0  0.09055639111880248  0.7464579227814739  0.6968606402816703  1.0000
  O   O7        1.0  0.9094419548907949  0.2535414371376207  0.6968600894456499  1.0000
  O   O8        1.0  0.5905550684060399  0.7535412382674239  0.196860552633396  1.0000
  O   O9        1.0  0.4965348566141684  0.3657533591183083  0.980262113931374  1.0000
  O   O10       1.0  0.003465718143203799  0.865753026727248  0.48026356045755847  1.0000
  O   O11       1.0  0.9965331809951438  0.13424626794585495  0.4802637547224933  1.0000
  O   O12       1.0  0.5034653553889183  0.6342460861726167  0.9802621461152154  1.0000
  F   F1        1.0  0.1498912419925418  0.4909297638389064  0.097311905462206  1.0000
  F   F2        1.0  0.3501080912921424  0.9909273260214634  0.5973116475788343  1.0000
  F   F3        1.0  0.6498918037962156  0.0090701455859232  0.5973122179690477  1.0000
  F   F4        1.0  0.8501073402426866  0.5090731321266518  0.09731237419922678  1.0000
  F   F5        1.0  0.14977832767922186  0.4908628948483837  0.3018888875777037  1.0000
  F   F6        1.0  0.3502217778361965  0.9908613863675059  0.8018895099006897  1.0000
  F   F7        1.0  0.6497775948190136  0.009138005190862901  0.8018900804437407  1.0000
  F   F8        1.0  0.8502210269843927  0.5091400627434198  0.3018893561988135  1.0000
  F   F9        1.0  0.0184978133938287  0.6516739022118189  0.1995212652890145  1.0000
  F   F10       1.0  0.4815028450023248  0.15167328239436276  0.6995207168805705  1.0000
  F   F11       1.0  0.5184954942111231  0.8483260783263876  0.6995225498265893  1.0000
  F   F12       1.0  0.9815018026875747  0.34832809538075804  0.19952153518956806  1.0000
