data_image0
_chemical_formula_structural       Ag4H40C28N12O8
_chemical_formula_sum              "Ag4 H40 C28 N12 O8"
_cell_length_a       8.232134285935562
_cell_length_b       10.478564246099301
_cell_length_c       11.225234260585971
_cell_angle_alpha    110.9466606622099
_cell_angle_beta     100.19050624643059
_cell_angle_gamma    102.59774792482213

_space_group_name_H-M_alt    "P 1"
_space_group_IT_number       1

loop_
  _space_group_symop_operation_xyz
  'x, y, z'

loop_
  _atom_site_type_symbol
  _atom_site_label
  _atom_site_symmetry_multiplicity
  _atom_site_fract_x
  _atom_site_fract_y
  _atom_site_fract_z
  _atom_site_occupancy
  Ag  Ag1       1.0  0.43294596382146006  0.14708599888272283  0.3606115089411971  1.0000
  Ag  Ag2       1.0  0.5670548012372763  0.8529121845004183  0.6393890373671238  1.0000
  Ag  Ag3       1.0  0.11807514063076499  0.1447461156465337  0.18065145607371133  1.0000
  Ag  Ag4       1.0  0.8819264189613917  0.8552542144137972  0.8193499254362206  1.0000
  H   H1        1.0  0.639946663256751  0.2593785289208341  0.7553300717519631  1.0000
  H   H2        1.0  0.36005525241304065  0.7406261043411959  0.24467193439959078  1.0000
  H   H3        1.0  0.630392090042797  0.12096532769435699  0.607317197008541  1.0000
  H   H4        1.0  0.36960986681607  0.8790360757045688  0.39268460210219985  1.0000
  H   H5        1.0  0.4684247959334442  0.3598361812376183  0.6006978538365216  1.0000
  H   H6        1.0  0.5315714311578006  0.6401630864482469  0.3993015895557475  1.0000
  H   H7        1.0  0.3089311527449538  0.03779463739687829  0.5375046090470689  1.0000
  H   H8        1.0  0.6910683804170433  0.9622035653086273  0.46249400398979645  1.0000
  H   H9        1.0  0.19165061372141418  0.1614180250079471  0.508796109218167  1.0000
  H   H10       1.0  0.8083501546147216  0.8385801868003283  0.4912017745606006  1.0000
  H   H11       1.0  0.8259216029386138  0.48821487018169296  0.8354615934123542  1.0000
  H   H12       1.0  0.17407991655693417  0.5117886992167938  0.164539107628542  1.0000
  H   H13       1.0  0.9921968305865365  0.5183798481879691  0.760981893108628  1.0000
  H   H14       1.0  0.007801865760505635  0.48161942822840575  0.23901697927728782  1.0000
  H   H15       1.0  0.09158028315133748  0.45051005047954357  0.9527002201343319  1.0000
  H   H16       1.0  0.9084196039033756  0.5494924364775713  0.04730079256385977  1.0000
  H   H17       1.0  0.9428558751277906  0.15649414098217557  0.714021366261626  1.0000
  H   H18       1.0  0.05714528829011554  0.8435051252146052  0.2859787101376481  1.0000
  H   H19       1.0  0.10265405094721558  0.20900402216580713  0.8762012560180351  1.0000
  H   H20       1.0  0.8973449971076092  0.7909995195520806  0.12380179104890483  1.0000
  H   H21       1.0  0.39750095645491257  0.8372621921529699  0.8981804446791058  1.0000
  H   H22       1.0  0.602499371240512  0.16273815722972526  0.10181900355937049  1.0000
  H   H23       1.0  0.1871563354884883  0.7294556507254695  0.8686052382112588  1.0000
  H   H24       1.0  0.8128456235553118  0.2705457716235528  0.1313947858797774  1.0000
  H   H25       1.0  0.3027177206889888  0.6262720968160166  0.024930138922250843  1.0000
  H   H26       1.0  0.6972822097397184  0.37372717922808363  0.9750688917154234  1.0000
  H   H27       1.0  0.5150133865707289  0.7366979722264446  0.056696315171308104  1.0000
  H   H28       1.0  0.4849869411246955  0.26330237715625054  0.9433031330671751  1.0000
  H   H29       1.0  0.45903227898428867  0.4885280778876646  0.8872234349079232  1.0000
  H   H30       1.0  0.5409680465262027  0.5114722525449409  0.11277778835025734  1.0000
  H   H31       1.0  0.28947298368915847  0.5092378007724035  0.7804017926276  1.0000
  H   H32       1.0  0.7105269467395487  0.4907614752717036  0.21959723801006686  1.0000
  H   H33       1.0  0.6219038382279436  0.9767734900957309  0.20612857336551824  1.0000
  H   H34       1.0  0.3780960922007636  0.023225785948369493  0.793870457272156  1.0000
  H   H35       1.0  0.7962588479862518  0.0067529307055807  0.13986371491048288  1.0000
  H   H36       1.0  0.2037414786166991  0.9932474092020696  0.8601366208378491  1.0000
  H   H37       1.0  0.3064340424073961  0.5054958082827098  0.5529163145560003  1.0000
  H   H38       1.0  0.693565885836385  0.49450344881130076  0.4470844911013783  1.0000
  H   H39       1.0  0.29522974050943407  0.38944397862135816  0.3911666084875448  1.0000
  H   H40       1.0  0.7047701888268068  0.6105552879476974  0.6088333096599853  1.0000
  C   C1        1.0  0.8355322504741806  0.1438575429872202  0.33107875365077166  1.0000
  C   C2        1.0  0.16446644259546858  0.8561417050040203  0.6689227812647044  1.0000
  C   C3        1.0  0.07904943461256407  0.33980617405968155  0.4535284541298806  1.0000
  C   C4        1.0  0.9209492595495519  0.6601930834066038  0.5464721932757397  1.0000
  C   C5        1.0  0.8567822590138691  0.29491519663863386  0.5427977490546282  1.0000
  C   C6        1.0  0.1432164362407136  0.7050840703026963  0.4572020108411434  1.0000
  C   C7        1.0  0.6337083886989988  0.2338652410328805  0.6504509353147725  1.0000
  C   C8        1.0  0.3662907038222869  0.7661350992470445  0.3495492421818084  1.0000
  C   C9        1.0  0.4681906756693194  0.2507703022081813  0.5854568586644218  1.0000
  C   C10       1.0  0.5318080184927894  0.7492289552581042  0.41454378874119857  1.0000
  C   C11       1.0  0.3148116762508975  0.14181773419619498  0.534500242362199  1.0000
  C   C12       1.0  0.6851866217369676  0.8581804594065404  0.46549909993276356  1.0000
  C   C13       1.0  0.9057843065506928  0.4347830227256677  0.7780037677242075  1.0000
  C   C14       1.0  0.09421478706305915  0.5652173270293018  0.22199552226251731  1.0000
  C   C15       1.0  0.011307616560443972  0.3736997500995471  0.8537495678795249  1.0000
  C   C16       1.0  0.9886931495907592  0.6262984427586459  0.14625009091895436  1.0000
  C   C17       1.0  0.018664986086520206  0.239452346831051  0.8119253967333789  1.0000
  C   C18       1.0  0.9813352960499699  0.7605511945145622  0.18807780858531925  1.0000
  C   C19       1.0  0.28907293653809757  0.9075457746066249  0.057399340200930626  1.0000
  C   C20       1.0  0.7109273900648532  0.09245456530102558  0.9426009955474012  1.0000
  C   C21       1.0  0.31266808599742285  0.7858096944300071  0.9447447545726176  1.0000
  C   C22       1.0  0.6873322427904609  0.21419066442773974  0.05525380615600983  1.0000
  C   C23       1.0  0.3888977693015646  0.68014007610887  0.9813187758615098  1.0000
  C   C24       1.0  0.611103395208808  0.3198591995629627  0.018680413027922758  1.0000
  C   C25       1.0  0.4126455550279005  0.5671799467451419  0.8588254590103827  1.0000
  C   C26       1.0  0.5873543743083401  0.43281931982391325  0.14117445913714716  1.0000
  C   C27       1.0  0.547906787491641  0.6397517640644637  0.8073493971930075  1.0000
  C   C28       1.0  0.45209437592627194  0.36024750213231727  0.1926506792062738  1.0000
  N   N1        1.0  0.995997859018317  0.2199155617054273  0.3381539315305701  1.0000
  N   N2        1.0  0.004002070317930902  0.7800837048636283  0.6618459866169528  1.0000
  N   N3        1.0  0.01592460290064679  0.37707741579706067  0.5589874179147002  1.0000
  N   N4        1.0  0.9840753253431346  0.6229218412969502  0.44101338774267856  1.0000
  N   N5        1.0  0.7562182445695385  0.1811589190229626  0.4285637558494883  1.0000
  N   N6        1.0  0.2437816847667023  0.818840347546093  0.5714361622980346  1.0000
  N   N7        1.0  0.7520578061625188  0.02208521391087  0.22192147041164387  1.0000
  N   N8        1.0  0.2479425204404392  0.9779151259967801  0.7780788653366879  1.0000
  N   N9        1.0  0.23446288901779166  0.42186746402853004  0.4635158207355586  1.0000
  N   N10       1.0  0.7655370403184563  0.5781318025405254  0.5364840974119645  1.0000
  N   N11       1.0  0.7923889060194115  0.3275889329458225  0.649677297690431  1.0000
  N   N12       1.0  0.20760771943101022  0.6724114175536897  0.35032167579278445  1.0000
  O   O1        1.0  0.38963347753428923  0.9503919319983751  0.17381823296244642  1.0000
  O   O2        1.0  0.6103664518019584  0.049607334570680506  0.8261816851850764  1.0000
  O   O3        1.0  0.1739532378925118  0.9632995034204651  0.02754872252228306  1.0000
  O   O4        1.0  0.8260470887104463  0.03670083648718499  0.9724516132260489  1.0000
  O   O5        1.0  0.7006227446210005  0.698876414305978  0.8837224860252559  1.0000
  O   O6        1.0  0.29937802371512834  0.30112179750230433  0.11627539775351173  1.0000
  O   O7        1.0  0.49871699383048435  0.6394391164497009  0.6915315348946719  1.0000
  O   O8        1.0  0.5012854036690939  0.36056014937481246  0.3084686997563607  1.0000
