data_image0
_chemical_formula_structural       Zn2H18C32N4Cl2O8
_chemical_formula_sum              "Zn2 H18 C32 N4 Cl2 O8"
_cell_length_a       14.003413349409891
_cell_length_b       13.951796568577985
_cell_length_c       15.309577862806846
_cell_angle_alpha    89.58480372095757
_cell_angle_beta     90.71816356197522
_cell_angle_gamma    97.78295857293539

_space_group_name_H-M_alt    "P 1"
_space_group_IT_number       1

loop_
  _space_group_symop_operation_xyz
  'x, y, z'

loop_
  _atom_site_type_symbol
  _atom_site_label
  _atom_site_symmetry_multiplicity
  _atom_site_fract_x
  _atom_site_fract_y
  _atom_site_fract_z
  _atom_site_occupancy
  Zn  Zn1       1.0  0.5001228231648156  0.4001305243757045  0.5017823742914658  1.0000
  Zn  Zn2       1.0  0.4999951725735201  0.5999726350700174  0.4998651926402574  1.0000
  H   H1        1.0  0.974303661246587  0.38524423989345985  0.4930647174359777  1.0000
  H   H2        1.0  0.6353736495986837  0.2648303832972729  0.5641933219418647  1.0000
  H   H3        1.0  0.5494802436884284  0.7574964268911515  0.627342407485024  1.0000
  H   H4        1.0  0.37223291891952204  0.23254047061241317  0.434774082424191  1.0000
  H   H5        1.0  0.5559651359320341  0.9384111350939863  0.6322574644147849  1.0000
  H   H6        1.0  0.3652164413754945  0.05186507716764769  0.4301804093756516  1.0000
  H   H7        1.0  0.4025244889075736  0.6293233052730899  0.9833699310322785  1.0000
  H   H8        1.0  0.365909479049229  0.6744822489201637  0.078796266035674  1.0000
  H   H9        1.0  0.4037952454280855  0.3464827044955712  0.0141999230827139  1.0000
  H   H10       1.0  0.367592805426419  0.2926383551338958  0.9173318726257236  1.0000
  H   H11       1.0  0.02540381243252202  0.6072502539175135  0.5035754518606907  1.0000
  H   H12       1.0  0.5949447719253129  0.39317187281344707  0.2275500475496628  1.0000
  H   H13       1.0  0.5970167025646019  0.6380560327337435  0.7777294013804265  1.0000
  H   H14       1.0  0.404613305796225  0.6107187321320496  0.2208144039313638  1.0000
  H   H15       1.0  0.40774886832573987  0.36819024680195883  0.7768032245363798  1.0000
  H   H16       1.0  0.44301009611880454  0.9256501245414129  0.3677639441645368  1.0000
  H   H17       1.0  0.6396797119388608  0.0852813942791002  0.567291484856156  1.0000
  H   H18       1.0  0.44319545305432934  0.7454868079660245  0.3742815180045582  1.0000
  C   C1        1.0  0.4989051548561107  0.503589191128235  0.3311777778906446  1.0000
  C   C2        1.0  0.5769768401560214  0.21402615579839335  0.5363722381698324  1.0000
  C   C3        1.0  0.5276986568284626  0.7988528606679496  0.5715186496815433  1.0000
  C   C4        1.0  0.42991430738829445  0.19596401310379005  0.4623007370742798  1.0000
  C   C5        1.0  0.5310963768711757  0.8988427701562928  0.5733165023998126  1.0000
  C   C6        1.0  0.4269264972025368  0.09606904598500417  0.460146386146107  1.0000
  C   C7        1.0  0.5000825082829293  0.9472498959105664  0.4998071209808828  1.0000
  C   C8        1.0  0.5019998787833869  0.0533209339837484  0.4992017827135201  1.0000
  C   C9        1.0  0.3125684328405853  0.46797873212586444  0.4982925421330863  1.0000
  C   C10       1.0  0.6873208931241661  0.5249302424295054  0.5019040334268965  1.0000
  C   C11       1.0  0.7914168231988866  0.5354606479419032  0.5005227253222486  1.0000
  C   C12       1.0  0.501066766159127  0.5025557734543966  0.6702390088749937  1.0000
  C   C13       1.0  0.20845619882616262  0.45741371137663833  0.4967148671138091  1.0000
  C   C14       1.0  0.9790496570604289  0.5376426775741551  0.5002789385209141  1.0000
  C   C15       1.0  0.020742124212141298  0.4547999940530474  0.4964154583190279  1.0000
  C   C16       1.0  0.12096639077251578  0.4551888075474865  0.49617750674538996  1.0000
  C   C17       1.0  0.8788439532894186  0.5372925851722387  0.4999721046070462  1.0000
  C   C18       1.0  0.554969554267842  0.442192570307725  0.0993730363456109  1.0000
  C   C19       1.0  0.5557467018687987  0.5769572220000185  0.9041653801780569  1.0000
  C   C20       1.0  0.5536916474688452  0.4402971297126896  0.1902475429844159  1.0000
  C   C21       1.0  0.5552013892168616  0.5793521624633157  0.8132778513401746  1.0000
  C   C22       1.0  0.4995014870624388  0.5025314665928775  0.233211148341212  1.0000
  C   C23       1.0  0.4454339117971955  0.562465421732071  0.09403595650854871  1.0000
  C   C24       1.0  0.5015441370809128  0.5027698007636303  0.7682414854944071  1.0000
  C   C25       1.0  0.44659404728688656  0.5632741568121916  0.18576327169648013  1.0000
  C   C26       1.0  0.44874064352598003  0.42687949165978983  0.8136696761875868  1.0000
  C   C27       1.0  0.4468533352824267  0.4264807227830049  0.9053796727655623  1.0000
  C   C28       1.0  0.5020537128214003  0.5018740239694779  0.0492079698632892  1.0000
  C   C29       1.0  0.5026964477653522  0.5022353089202909  0.9523278516888354  1.0000
  C   C30       1.0  0.46664101769437843  0.8914893786510092  0.4269889030931111  1.0000
  C   C31       1.0  0.5784637422399752  0.1145677028135168  0.537802145234096  1.0000
  C   C32       1.0  0.46655270137545557  0.7919006067844376  0.42970785511927556  1.0000
  N   N1        1.0  0.4965835946421819  0.746574445151296  0.5007219022190057  1.0000
  N   N2        1.0  0.5035532141638369  0.25369338915411527  0.4998846930026843  1.0000
  N   N3        1.0  0.3872542581399471  0.6175177784100401  0.047432443420419204  1.0000
  N   N4        1.0  0.3885993997636561  0.3549843472651518  0.9499070958699676  1.0000
  Cl  Cl1       1.0  0.6260942845229281  0.36825023567908494  0.046208373802358  1.0000
  Cl  Cl2       1.0  0.6261007356902226  0.6700250711338072  0.9598096496079265  1.0000
  O   O1        1.0  0.5220255789196955  0.4293302390880029  0.3706430347241181  1.0000
  O   O2        1.0  0.5241392953779423  0.5837506860890543  0.63187016288893  1.0000
  O   O3        1.0  0.47541271938521135  0.5787700503810953  0.3678385349214324  1.0000
  O   O4        1.0  0.47763146107228494  0.4215519883994788  0.6326045402930092  1.0000
  O   O5        1.0  0.35251646387586527  0.39386132000128526  0.4796759669157424  1.0000
  O   O6        1.0  0.6467968665507017  0.5983924433539868  0.4814781835579183  1.0000
  O   O7        1.0  0.35472445189219565  0.5517357580764468  0.5183521957434323  1.0000
  O   O8        1.0  0.6458915649463818  0.44109585685011876  0.5236380838715888  1.0000
