data_image0
_chemical_formula_structural       Zn4H28C49N4O21
_chemical_formula_sum              "Zn4 H28 C49 N4 O21"
_cell_length_a       19.523489982953244
_cell_length_b       19.58220265161235
_cell_length_c       19.54857275825608
_cell_angle_alpha    90.18976195143432
_cell_angle_beta     95.56160730461048
_cell_angle_gamma    95.2474189900296

_space_group_name_H-M_alt    "P 1"
_space_group_IT_number       1

loop_
  _space_group_symop_operation_xyz
  'x, y, z'

loop_
  _atom_site_type_symbol
  _atom_site_label
  _atom_site_symmetry_multiplicity
  _atom_site_fract_x
  _atom_site_fract_y
  _atom_site_fract_z
  _atom_site_occupancy
  Zn  Zn1       1.0  0.5572661101152434  0.44285574157849794  0.5599396415798736  1.0000
  Zn  Zn2       1.0  0.5597595798507768  0.5637633881430021  0.44803388155144563  1.0000
  Zn  Zn3       1.0  0.4486061157298807  0.5529082698352354  0.5575727356026476  1.0000
  Zn  Zn4       1.0  0.43737996780565414  0.44247623030310035  0.4337410683723917  1.0000
  H   H1        1.0  0.6242464991481071  0.7715925129926193  0.5100903065793574  1.0000
  H   H2        1.0  0.5821198568934705  0.005544303673580901  0.5245637738651253  1.0000
  H   H3        1.0  0.41353933333631704  0.8935689889745219  0.5146041894924381  1.0000
  H   H4        1.0  0.38093484292947727  0.22826211676166971  0.473268826782288  1.0000
  H   H5        1.0  0.426308012887155  0.9916147107734832  0.4772614054455672  1.0000
  H   H6        1.0  0.5934708066625234  0.10676626832859172  0.4913203437052758  1.0000
  H   H7        1.0  0.6348028413362812  0.8993466035426613  0.513437501354332  1.0000
  H   H8        1.0  0.43212617073219656  0.5624055036792586  0.7653798956511436  1.0000
  H   H9        1.0  0.4384220334201173  0.4142388367807543  0.2234098761825862  1.0000
  H   H10       1.0  0.540973099997423  0.6181921336585461  0.2378905373634055  1.0000
  H   H11       1.0  0.49030359653016825  0.5729040532024641  0.9972157497784763  1.0000
  H   H12       1.0  0.5583773056678609  0.3877284195392435  0.8965323593437659  1.0000
  H   H13       1.0  0.43713397444896884  0.4166034852126828  0.09604852027099041  1.0000
  H   H14       1.0  0.5630646455785993  0.3973421846752175  0.7699088130635587  1.0000
  H   H15       1.0  0.5012540974230859  0.41725369415576813  0.0007050794114746902  1.0000
  H   H16       1.0  0.4274247115021481  0.5538536780296826  0.8917706800989506  1.0000
  H   H17       1.0  0.5376663016136902  0.6223024097807228  0.11014805504539987  1.0000
  H   H18       1.0  0.7736266818805859  0.5612060423859403  0.4200769962415265  1.0000
  H   H19       1.0  0.7685064200789642  0.4671721818893106  0.6181923733557966  1.0000
  H   H20       1.0  0.01141240607768171  0.5182822881592701  0.585203854623991  1.0000
  H   H21       1.0  0.0964815604043068  0.4972478109288617  0.37314995880252866  1.0000
  H   H22       1.0  0.9017293717855424  0.5631846087080207  0.4314427442251372  1.0000
  H   H23       1.0  0.2231113173553325  0.48876988461103127  0.3777630967096357  1.0000
  H   H24       1.0  0.99151146507527  0.49484720959097944  0.4284472592536516  1.0000
  H   H25       1.0  0.11108698725631434  0.4903373155368558  0.5952746130410773  1.0000
  H   H26       1.0  0.3430411959934645  0.7963236552281928  0.5060804500401375  1.0000
  H   H27       1.0  0.37129622344404833  0.7186024646829737  0.47583620905541574  1.0000
  H   H28       1.0  0.3756448125332099  0.7346822979930538  0.5646595541494577  1.0000
  C   C1        1.0  0.4921423384301774  0.512683946087833  0.31451469508003527  1.0000
  C   C2        1.0  0.5015769094609013  0.4873933687973564  0.6848064140048677  1.0000
  C   C3        1.0  0.6854907893482363  0.5094687483047269  0.511024543720424  1.0000
  C   C4        1.0  0.31525264574693074  0.4896719615664083  0.48912858117535757  1.0000
  C   C5        1.0  0.5122812932490534  0.6850012069405126  0.5110123695094657  1.0000
  C   C6        1.0  0.4950547868003738  0.31653764716207183  0.4868627217226376  1.0000
  C   C7        1.0  0.49206501399875446  0.2398588497815837  0.4823206989636332  1.0000
  C   C8        1.0  0.5505913177131987  0.20274619511602762  0.4870302737892587  1.0000
  C   C9        1.0  0.5459448818842317  0.13198499396072802  0.4899083557887138  1.0000
  C   C10       1.0  0.4815195952799627  0.09263112479771252  0.4889034984628609  1.0000
  C   C11       1.0  0.42293398149298866  0.1306890057440384  0.4822307668253174  1.0000
  C   C12       1.0  0.4279000467170704  0.20197680643887142  0.4782053692714427  1.0000
  C   C13       1.0  0.4601871764033732  0.8670667517006553  0.513149566862154  1.0000
  C   C14       1.0  0.4532199022064063  0.7955645619398127  0.5139335668038072  1.0000
  C   C15       1.0  0.578500999610803  0.7993200568342402  0.5115602814746225  1.0000
  C   C16       1.0  0.5842195393351303  0.8704949930749638  0.5131374461297753  1.0000
  C   C17       1.0  0.5244668614388601  0.9057742881307935  0.5122894259006756  1.0000
  C   C18       1.0  0.4771688883618452  0.01823574979263041  0.4910192856895179  1.0000
  C   C19       1.0  0.5304061364390408  0.9803559202287747  0.5098676918844589  1.0000
  C   C20       1.0  0.5140007692095594  0.761342361692883  0.5122271327766441  1.0000
  C   C21       1.0  0.4988370730873087  0.4812428791507771  0.7602573166175545  1.0000
  C   C22       1.0  0.46061086235068427  0.525271048301477  0.7949012318506306  1.0000
  C   C23       1.0  0.4585513087581107  0.5205693370145711  0.8654582282581558  1.0000
  C   C24       1.0  0.4943686313034022  0.4715684320380548  0.9034754436817849  1.0000
  C   C25       1.0  0.5308712524068611  0.42630371552431273  0.8678441732290308  1.0000
  C   C26       1.0  0.5337857879029572  0.43147069382607145  0.797276333575965  1.0000
  C   C27       1.0  0.4609117302673623  0.46047571029835416  0.12703390035022008  1.0000
  C   C28       1.0  0.46109948913086646  0.4590189453508915  0.1979948047776148  1.0000
  C   C29       1.0  0.5183500319529771  0.5744026121524185  0.2062735395312387  1.0000
  C   C30       1.0  0.5164308647207179  0.5763701790733364  0.1350902728625982  1.0000
  C   C31       1.0  0.4890169089338768  0.5190446157593415  0.09413494752126177  1.0000
  C   C32       1.0  0.49427628582520095  0.4674581959215374  0.9779613883082234  1.0000
  C   C33       1.0  0.49001490538486814  0.5217806415868794  0.01972004856427392  1.0000
  C   C34       1.0  0.4905490455577208  0.5156318276713138  0.23838159002072248  1.0000
  C   C35       1.0  0.23822154103596924  0.4861909284403723  0.4877768461513057  1.0000
  C   C36       1.0  0.2042944560773137  0.4864203011285468  0.5479125766136121  1.0000
  C   C37       1.0  0.13407195915954873  0.492070709242256  0.5466815093712398  1.0000
  C   C38       1.0  0.09369071034314662  0.4971638941133706  0.4834451235546736  1.0000
  C   C39       1.0  0.1268953877170276  0.4945677943382735  0.422807580903843  1.0000
  C   C40       1.0  0.19777214398669682  0.48941383695230917  0.42500150184903857  1.0000
  C   C41       1.0  0.8722918820521669  0.540439222026734  0.4716394059265311  1.0000
  C   C42       1.0  0.800837796708187  0.5402306256472116  0.46537686329309474  1.0000
  C   C43       1.0  0.7972469666317252  0.4880203623288822  0.5768474181679791  1.0000
  C   C44       1.0  0.8688022827293054  0.4887668958064639  0.5824972804012987  1.0000
  C   C45       1.0  0.9089100862327085  0.5134704407375567  0.5296793899687415  1.0000
  C   C46       1.0  0.019419141768054305  0.5025681495213234  0.47958839359499444  1.0000
  C   C47       1.0  0.9838362529468796  0.5129078643315025  0.5340690970459789  1.0000
  C   C48       1.0  0.7625750356008112  0.5128297375939682  0.517659725343151  1.0000
  C   C49       1.0  0.38194030537189855  0.7594401503925641  0.5150558808029189  1.0000
  N   N1        1.0  0.6203417871502737  0.23811185206839983  0.4830524959810703  1.0000
  N   N2        1.0  0.24198812253786883  0.475198780643737  0.6156778593389944  1.0000
  N   N3        1.0  0.9006839167071023  0.45923700517757743  0.6459596088326194  1.0000
  N   N4        1.0  0.35188099070702356  0.09710421749551301  0.48014512044556307  1.0000
  O   O1        1.0  0.5006912933153346  0.4995078577463304  0.49895559747631785  1.0000
  O   O2        1.0  0.45659762862030123  0.4620777649055799  0.33920850876961584  1.0000
  O   O3        1.0  0.536446555885334  0.44547390090365735  0.6555510147867665  1.0000
  O   O4        1.0  0.6567155684348975  0.5415785627649186  0.4610125728869221  1.0000
  O   O5        1.0  0.3486504432266956  0.5314548640862216  0.5328832519160684  1.0000
  O   O6        1.0  0.5589589954053267  0.6590462818498964  0.4803540159611188  1.0000
  O   O7        1.0  0.4488278730274686  0.34414720486145006  0.44906592386792  1.0000
  O   O8        1.0  0.46474851948121193  0.6514546446740042  0.5408716103406093  1.0000
  O   O9        1.0  0.541385410604164  0.3455397425684552  0.5303060744368082  1.0000
  O   O10       1.0  0.6552373397840653  0.4745611236080905  0.5562026974644991  1.0000
  O   O11       1.0  0.33946990189775056  0.4535044805733719  0.4445157812929211  1.0000
  O   O12       1.0  0.5289687145047354  0.5605408026371776  0.34943128759390873  1.0000
  O   O13       1.0  0.46917442458278913  0.5346518485859593  0.6548610378024478  1.0000
  O   O14       1.0  0.6683083035923616  0.21762930572239725  0.5212927250596877  1.0000
  O   O15       1.0  0.6256782439068971  0.2839376820608878  0.4399667472762374  1.0000
  O   O16       1.0  0.22659955517531935  0.5081282685574849  0.6652580587025199  1.0000
  O   O17       1.0  0.2846822286862078  0.43200559178241354  0.6182314466334802  1.0000
  O   O18       1.0  0.9563425277955275  0.4335737827515303  0.6434452870273475  1.0000
  O   O19       1.0  0.8693130652701768  0.46115592316288473  0.6979815434863567  1.0000
  O   O20       1.0  0.3419198246272331  0.04465504107388092  0.5147000691571506  1.0000
  O   O21       1.0  0.30623662592983447  0.12445499102354775  0.44448536710369513  1.0000
