data_image0
_chemical_formula_structural       Cu12H24C12N24Cl12
_chemical_formula_sum              "Cu12 H24 C12 N24 Cl12"
_cell_length_a       3.6680817751017543
_cell_length_b       15.91226266946587
_cell_length_c       17.292012128086583
_cell_angle_alpha    90.00023812877757
_cell_angle_beta     89.9997049128126
_cell_angle_gamma    90.00081807924249

_space_group_name_H-M_alt    "P 1"
_space_group_IT_number       1

loop_
  _space_group_symop_operation_xyz
  'x, y, z'

loop_
  _atom_site_type_symbol
  _atom_site_label
  _atom_site_symmetry_multiplicity
  _atom_site_fract_x
  _atom_site_fract_y
  _atom_site_fract_z
  _atom_site_occupancy
  Cu  Cu1       1.0  0.09719991462295499  0.8521630343632939  0.8069290323164822  1.0000
  Cu  Cu2       1.0  0.9027861680157654  0.3521598436020669  0.1930661458972196  1.0000
  Cu  Cu3       1.0  0.40278751690848946  0.8521636256384257  0.3069280448500038  1.0000
  Cu  Cu4       1.0  0.5972231017454774  0.3521623946113125  0.6930734946737047  1.0000
  Cu  Cu5       1.0  0.7747313142043879  0.8383299412052738  0.998850745471323  1.0000
  Cu  Cu6       1.0  0.22527024040849852  0.3383255956270475  0.0011484290016526  1.0000
  Cu  Cu7       1.0  0.7252559488197291  0.8383249399947774  0.49885054723519323  1.0000
  Cu  Cu8       1.0  0.27473470071529243  0.33832368390736184  0.5011463140245169  1.0000
  Cu  Cu9       1.0  0.5615087881209105  0.6504289856217017  0.8907416437604425  1.0000
  Cu  Cu10      1.0  0.43849982520513453  0.1504289588595356  0.1092562482321711  1.0000
  Cu  Cu11      1.0  0.9384797498228182  0.6504259197854836  0.3907371440688224  1.0000
  Cu  Cu12      1.0  0.06149887502300539  0.15043013930829124  0.6092601696363715  1.0000
  H   H1        1.0  0.40453299913151847  0.7580572621379746  0.7101626066361248  1.0000
  H   H2        1.0  0.5954497872180086  0.25805165390544005  0.289832797203438  1.0000
  H   H3        1.0  0.09545055364586122  0.7580575038865831  0.2101573579243166  1.0000
  H   H4        1.0  0.9045485902921016  0.2580620957831742  0.7898449855459403  1.0000
  H   H5        1.0  0.5982618697607335  0.7539278339675024  0.6160346293984205  1.0000
  H   H6        1.0  0.40173155744641065  0.2539308412172759  0.38396365048390624  1.0000
  H   H7        1.0  0.901739377537112  0.7539353347942283  0.11603422150017909  1.0000
  H   H8        1.0  0.09827585942999661  0.2539245973268437  0.8839681064834436  1.0000
  H   H9        1.0  0.8376423365341382  0.08918707500855312  0.7354218925250535  1.0000
  H   H10       1.0  0.16233236874334267  0.5891772906999647  0.2645803963712154  1.0000
  H   H11       1.0  0.6623627968929854  0.08919004342424593  0.2354154077240764  1.0000
  H   H12       1.0  0.3376555285160591  0.589192547287638  0.7645851462753299  1.0000
  H   H13       1.0  0.8492817533845312  0.9987147002944357  0.794991556443712  1.0000
  H   H14       1.0  0.15072733894530893  0.498704772260375  0.20500127945608426  1.0000
  H   H15       1.0  0.6507339209384427  0.9987144894814011  0.2949949165891113  1.0000
  H   H16       1.0  0.34931879086918366  0.49870938230572653  0.7050152683439919  1.0000
  H   H17       1.0  0.5826935420339365  0.9910213275240454  0.461645878222363  1.0000
  H   H18       1.0  0.4172823435373587  0.4910225818234226  0.5383579166185155  1.0000
  H   H19       1.0  0.9172879597047938  0.991021126353907  0.9616459070625609  1.0000
  H   H20       1.0  0.0827179142954861  0.491024668391674  0.0383630924793295  1.0000
  H   H21       1.0  0.3743045698473111  0.08460692815699393  0.49618568577740524  1.0000
  H   H22       1.0  0.6256834738017574  0.5846072618108098  0.5038113812499248  1.0000
  H   H23       1.0  0.125703156327333  0.08461145512734453  0.9961906875104773  1.0000
  H   H24       1.0  0.8743094234667267  0.5846115331507207  0.0038173672510524  1.0000
  C   C1        1.0  0.11043862455967  0.9884117979075955  0.69176859254069  1.0000
  C   C2        1.0  0.8895507251877105  0.4884147516306499  0.3082334576107328  1.0000
  C   C3        1.0  0.3895491729390769  0.9884192599469661  0.1917601028947331  1.0000
  C   C4        1.0  0.6104647128292201  0.488405404271923  0.808233272713089  1.0000
  C   C5        1.0  0.378599891898773  0.8663440026693721  0.6478386725037169  1.0000
  C   C6        1.0  0.6213898243821631  0.36634002102096735  0.35216407677340555  1.0000
  C   C7        1.0  0.12140832873375021  0.8663443269942095  0.1478403325846358  1.0000
  C   C8        1.0  0.8785868400523923  0.366339696691476  0.8521566336722515  1.0000
  C   C9        1.0  0.3637193737332182  0.9845186960152434  0.5697635469461844  1.0000
  C   C10       1.0  0.6362915368917825  0.4845276903719837  0.4302327055968647  1.0000
  C   C11       1.0  0.13627360350436388  0.984524723665949  0.069758249745739  1.0000
  C   C12       1.0  0.8637236760918013  0.48452417648547214  0.9302385811118156  1.0000
  N   N1        1.0  0.1844501004419641  0.029286694333592312  0.6248150287031536  1.0000
  N   N2        1.0  0.815531676527435  0.5292826403609612  0.3751841442069122  1.0000
  N   N3        1.0  0.3155541337454721  0.029292664017027906  0.12481530150898117  1.0000
  N   N4        1.0  0.684465810680166  0.5292923819196461  0.8751960157435333  1.0000
  N   N5        1.0  0.47606505499599183  0.7868262667454929  0.6596132665011964  1.0000
  N   N6        1.0  0.5239359299849298  0.286828205178992  0.34038629326907  1.0000
  N   N7        1.0  0.0239432685132854  0.786830680053669  0.1596156206974442  1.0000
  N   N8        1.0  0.9760658952902261  0.2868288194529144  0.8403839390773769  1.0000
  N   N9        1.0  0.20164158100263307  0.9072274179961471  0.7057702269799648  1.0000
  N   N10       1.0  0.7983589304102382  0.4072243609892397  0.29422804909464867  1.0000
  N   N11       1.0  0.29834071058356676  0.9072283053550695  0.20576358059545902  1.0000
  N   N12       1.0  0.7016543486120383  0.4072322718795435  0.7942399002141727  1.0000
  N   N13       1.0  0.4647721979526338  0.9026424011432541  0.5788010324494194  1.0000
  N   N14       1.0  0.5352171151400072  0.4026397202494537  0.42119953965642043  1.0000
  N   N15       1.0  0.035209886871811584  0.9026481072126632  0.07879296381516099  1.0000
  N   N16       1.0  0.9648066886066573  0.4026390417885254  0.9212058733788026  1.0000
  N   N17       1.0  0.9410240766419234  0.031129528903754505  0.7479477371274897  1.0000
  N   N18       1.0  0.058971449410599106  0.5311268992965312  0.2520514426833316  1.0000
  N   N19       1.0  0.5589661585382331  0.03112274165559371  0.24795004967855047  1.0000
  N   N20       1.0  0.4410348195760463  0.5311236314271641  0.7520543348254805  1.0000
  N   N21       1.0  0.4450397606030664  0.022995455616069208  0.5036797400287654  1.0000
  N   N22       1.0  0.5549416139378067  0.522998671892367  0.49632345742984546  1.0000
  N   N23       1.0  0.054936765970758514  0.022997453792498804  0.0036728045485929996  1.0000
  N   N24       1.0  0.9450555134963564  0.5229960452738285  0.9963246098853632  1.0000
  Cl  Cl1       1.0  0.0898834797440813  0.7084480982859844  0.8171022508643444  1.0000
  Cl  Cl2       1.0  0.9101233941910749  0.2084492830982826  0.1828958585655229  1.0000
  Cl  Cl3       1.0  0.4101081603678125  0.7084499697335077  0.3170977848943366  1.0000
  Cl  Cl4       1.0  0.5898741776553181  0.20844929694746392  0.6828991679502394  1.0000
  Cl  Cl5       1.0  0.6210766086201076  0.9005474846932346  0.8838539255053918  1.0000
  Cl  Cl6       1.0  0.37891257037756537  0.400543529411138  0.1161454821437786  1.0000
  Cl  Cl7       1.0  0.8789035525363501  0.9005436008564944  0.38385296640462485  1.0000
  Cl  Cl8       1.0  0.1210938051029302  0.40054678481475764  0.6161464412385058  1.0000
  Cl  Cl9       1.0  0.5393180687474342  0.7090571774548806  0.0109418980888734  1.0000
  Cl  Cl10      1.0  0.4606833916175219  0.20905499030295976  0.9890562136204935  1.0000
  Cl  Cl11      1.0  0.9606717298239147  0.7090527151961726  0.5109407187749468  1.0000
  Cl  Cl12      1.0  0.03932427796642911  0.20905568187883725  0.48905854953399347  1.0000
