data_image0
_chemical_formula_structural       Zn8H66C72N6O26
_chemical_formula_sum              "Zn8 H66 C72 N6 O26"
_cell_length_a       16.92380739858563
_cell_length_b       16.457193125405684
_cell_length_c       16.99659806268334
_cell_angle_alpha    62.52226044434692
_cell_angle_beta     62.78420125508351
_cell_angle_gamma    61.86796429388877

_space_group_name_H-M_alt    "P 1"
_space_group_IT_number       1

loop_
  _space_group_symop_operation_xyz
  'x, y, z'

loop_
  _atom_site_type_symbol
  _atom_site_label
  _atom_site_symmetry_multiplicity
  _atom_site_fract_x
  _atom_site_fract_y
  _atom_site_fract_z
  _atom_site_occupancy
  Zn  Zn1       1.0  0.9235570730011344  0.955538744014291  0.9761266642037115  1.0000
  Zn  Zn2       1.0  0.9303268245996392  0.9658814627791089  0.1588529978660916  1.0000
  Zn  Zn3       1.0  0.9364708100170632  0.1528622275849614  0.9736799846842602  1.0000
  Zn  Zn4       1.0  0.10965414979998658  0.9572425626210901  0.9824373026526415  1.0000
  Zn  Zn5       1.0  0.5257660666926753  0.5580129830775036  0.5803344837452116  1.0000
  Zn  Zn6       1.0  0.5185815461868798  0.5708021403651671  0.39252038120726956  1.0000
  Zn  Zn7       1.0  0.3352825590580935  0.568404547610406  0.580837756833013  1.0000
  Zn  Zn8       1.0  0.5257651470785022  0.37538524722302213  0.5749322086348343  1.0000
  H   H1        1.0  0.7347092392101828  0.7349535236432416  0.24758183305517198  1.0000
  H   H2        1.0  0.5085949783958906  0.8533493109664365  0.46191391366392787  1.0000
  H   H3        1.0  0.527603222397424  0.0150788562228428  0.369113318577263  1.0000
  H   H4        1.0  0.7300093836445924  0.06004713775629259  0.1864132794101393  1.0000
  H   H5        1.0  0.6771009603052249  0.1552999771886192  0.05329737757402604  1.0000
  H   H6        1.0  0.6696347552207343  0.0428508050448357  0.07299711149060058  1.0000
  H   H7        1.0  0.5133124797034014  0.20927919799195396  0.06669543271510028  1.0000
  H   H8        1.0  0.5019158660054829  0.09535188388915833  0.14427239138365874  1.0000
  H   H9        1.0  0.47214240698911414  0.26005594996335907  0.19476996147510306  1.0000
  H   H10       1.0  0.44929854079078513  0.14955896682668882  0.26866448391778863  1.0000
  H   H11       1.0  0.5804937948050507  0.1310434598668166  0.30123359127698274  1.0000
  H   H12       1.0  0.704764020149241  0.24239149608520458  0.7938227104804272  1.0000
  H   H13       1.0  0.8298899049544842  0.37731971402305936  0.5034987403798254  1.0000
  H   H14       1.0  0.9883432077633216  0.28872094234113643  0.524646090388096  1.0000
  H   H15       1.0  0.030109469278748715  0.1727006957369497  0.7489322789177069  1.0000
  H   H16       1.0  0.12556881422375446  0.017916993954195  0.7258591558290065  1.0000
  H   H17       1.0  0.0160656279113383  0.026757480468703  0.7274168629293742  1.0000
  H   H18       1.0  0.16782117907415278  0.9970991257345718  0.5744874574733174  1.0000
  H   H19       1.0  0.05965147175253801  0.0862466462806637  0.5580488169773334  1.0000
  H   H20       1.0  0.23465019978126372  0.11634086121197383  0.5318728677859141  1.0000
  H   H21       1.0  0.1498523831792298  0.19176334646873983  0.47155220682704174  1.0000
  H   H22       1.0  0.09115770421927749  0.2755047912610706  0.5792376013716662  1.0000
  H   H23       1.0  0.19633053075731513  0.7611743655010698  0.7637649132599976  1.0000
  H   H24       1.0  0.3929682854567745  0.49412779863803286  0.8795495394340449  1.0000
  H   H25       1.0  0.31152361068028256  0.5207593732707068  0.0342608984821169  1.0000
  H   H26       1.0  0.1477129895666067  0.7572820868344224  0.06379962087140703  1.0000
  H   H27       1.0  0.027523651231547284  0.6960093915907706  0.18495125622546024  1.0000
  H   H28       1.0  0.03163760555015217  0.6704046463943885  0.09192907316551664  1.0000
  H   H29       1.0  0.054769930714733926  0.5207615728656877  0.25210447122131535  1.0000
  H   H30       1.0  0.1305625647989501  0.5023376701470285  0.14309251867402392  1.0000
  H   H31       1.0  0.17782713418408486  0.5263071166431459  0.2808505877974881  1.0000
  H   H32       1.0  0.2534267420546358  0.46860390683577435  0.19399935743732752  1.0000
  H   H33       1.0  0.2865369397901816  0.6143959287576735  0.11562178123818971  1.0000
  H   H34       1.0  0.6975614700753353  0.24575796765032012  0.28563467523343894  1.0000
  H   H35       1.0  0.8046313513405818  0.40005319485483437  0.339930159471443  1.0000
  H   H36       1.0  0.9639050717812477  0.3290458653986334  0.24350120889997146  1.0000
  H   H37       1.0  0.025567549866913505  0.1445367789430136  0.1375038036915939  1.0000
  H   H38       1.0  0.1026497605450629  0.2387808796815989  0.9979237429075526  1.0000
  H   H39       1.0  0.9892879312223498  0.3272183756581555  0.016975510171519947  1.0000
  H   H40       1.0  0.13856337935860813  0.3703042319291612  0.9906322708829338  1.0000
  H   H41       1.0  0.03567828779804934  0.3968736078063698  0.08400431836954438  1.0000
  H   H42       1.0  0.21801069444601492  0.22589811950894753  0.09254986455569286  1.0000
  H   H43       1.0  0.1426000891386678  0.29034478985294493  0.17426970753098917  1.0000
  H   H44       1.0  0.0690611175089444  0.1774953317987666  0.2506447282463853  1.0000
  H   H45       1.0  0.23775846399600195  0.7040839989128361  0.2748053624584869  1.0000
  H   H46       1.0  0.12476093353596697  0.017000672977836504  0.18611118236182736  1.0000
  H   H47       1.0  0.18680411651047985  0.0220447249050935  0.2867575675541546  1.0000
  H   H48       1.0  0.27701008195311516  0.8126613392887307  0.47008132715252765  1.0000
  H   H49       1.0  0.4213676160868828  0.8424714415474527  0.40815538026393483  1.0000
  H   H50       1.0  0.42987038089218294  0.8115500599902319  0.3163906343193333  1.0000
  H   H51       1.0  0.4488756290410337  0.9829723231774994  0.27227385852065566  1.0000
  H   H52       1.0  0.3726208286776328  0.9824494701239459  0.22773484133494284  1.0000
  H   H53       1.0  0.31942326421480527  0.05621686764012419  0.3850636065142724  1.0000
  H   H54       1.0  0.25627636310549917  0.09493320569715993  0.3077623350553155  1.0000
  H   H55       1.0  0.17421248467356074  0.9940066706147733  0.43137346939968063  1.0000
  H   H56       1.0  0.188356413224902  0.3062046480170508  0.8187484220769505  1.0000
  H   H57       1.0  0.23217142640874036  0.07696065132378749  0.7306627373556225  1.0000
  H   H58       1.0  0.32229155930458125  0.153634710903809  0.5710867109664123  1.0000
  H   H59       1.0  0.35424409007630686  0.3923355354489929  0.5042588233278948  1.0000
  H   H60       1.0  0.5050108398577252  0.30467963572411344  0.4408215749418716  1.0000
  H   H61       1.0  0.4822270074154247  0.1940185266948333  0.5039621163680579  1.0000
  H   H62       1.0  0.5152342892606825  0.2755342175264204  0.3096218096295758  1.0000
  H   H63       1.0  0.4430021390994057  0.20076838612963144  0.38284254794357514  1.0000
  H   H64       1.0  0.3765050957668948  0.4224872853056213  0.31827693827785447  1.0000
  H   H65       1.0  0.3312689914090257  0.34750785894577524  0.31353468764609715  1.0000
  H   H66       1.0  0.26572079077845967  0.30127033984017265  0.47344188501939044  1.0000
  C   C1        1.0  0.8016847589040734  0.8914131756547692  0.15815497450297764  1.0000
  C   C2        1.0  0.7087011536897806  0.8836832541178906  0.22905653946295265  1.0000
  C   C3        1.0  0.6899559062426236  0.7963578150788422  0.27431995516193564  1.0000
  C   C4        1.0  0.615200544357684  0.786438563266735  0.3572876713087184  1.0000
  C   C5        1.0  0.5624297285982394  0.8635672698090461  0.39438792962682356  1.0000
  C   C6        1.0  0.574796334820675  0.9536769487274983  0.3426639787415198  1.0000
  C   C7        1.0  0.6463162830400434  0.9664241630994969  0.2579592148508493  1.0000
  C   C8        1.0  0.6584853399556181  0.0654886164474675  0.19714661189031102  1.0000
  C   C9        1.0  0.641848102785687  0.101117506742348  0.10261005493909177  1.0000
  C   C10       1.0  0.5342938835856401  0.14843949551769245  0.12593086643867216  1.0000
  C   C11       1.0  0.5033732170969358  0.18076116894069827  0.21060390090399048  1.0000
  C   C12       1.0  0.5864912511139764  0.6980117654867611  0.4068491093268137  1.0000
  C   C13       1.0  0.866431718221804  0.1506976325746621  0.843881104271624  1.0000
  C   C14       1.0  0.8557067142639452  0.20878502198397794  0.747991735098694  1.0000
  C   C15       1.0  0.767069017197059  0.2529275387955395  0.734999126849502  1.0000
  C   C16       1.0  0.7577624937320877  0.3142214344905269  0.6467725841459927  1.0000
  C   C17       1.0  0.8377414704072662  0.32815948896419667  0.5716173733128117  1.0000
  C   C18       1.0  0.9261835780507964  0.2791863813163928  0.5841471765418121  1.0000
  C   C19       1.0  0.9371300366851543  0.21971730110973908  0.6719950171879036  1.0000
  C   C20       1.0  0.03462503736466257  0.16712825841873524  0.6846081496157127  1.0000
  C   C21       1.0  0.0717587289183541  0.0596172317374055  0.6897195536964704  1.0000
  C   C22       1.0  0.1154500618130214  0.06534976549622232  0.5868634014087777  1.0000
  C   C23       1.0  0.15808959916031984  0.1469149544874639  0.5414292236306439  1.0000
  C   C24       1.0  0.6648207116278898  0.3701805022850237  0.6288507979516285  1.0000
  C   C25       1.0  0.10989265662674798  0.8244993350994889  0.9156650128951753  1.0000
  C   C26       1.0  0.17987284177191035  0.7267791298351015  0.90855066217825  1.0000
  C   C27       1.0  0.22108021911614634  0.7086917421363665  0.8235065994815046  1.0000
  C   C28       1.0  0.29857621872472606  0.6249015929761157  0.8130232555313911  1.0000
  C   C29       1.0  0.33156749770834887  0.558090209441403  0.8890206979826235  1.0000
  C   C30       1.0  0.2860629013342049  0.5739584923249339  0.9751406414419465  1.0000
  C   C31       1.0  0.21055590454968606  0.6587191438041914  0.9866451807914842  1.0000
  C   C32       1.0  0.16323134445249102  0.6795585487193139  0.07923551080954636  1.0000
  C   C33       1.0  0.07184605405647906  0.6537099356983448  0.13606678665414762  1.0000
  C   C34       1.0  0.10838446411396066  0.5451702737565753  0.18816200137557357  1.0000
  C   C35       1.0  0.19405664597508832  0.5340329886220729  0.20767126481285914  1.0000
  C   C36       1.0  0.349371681196473  0.6082669724657067  0.7208865957865381  1.0000
  C   C37       1.0  0.8628897167623533  0.1660083484425598  0.16400178539371538  1.0000
  C   C38       1.0  0.8455155340584639  0.22850412794679906  0.21720098725537448  1.0000
  C   C39       1.0  0.7556797178193618  0.26489619745650833  0.27598583107547364  1.0000
  C   C40       1.0  0.7405071002426098  0.32737299324684704  0.31983300272965925  1.0000
  C   C41       1.0  0.8161392776758375  0.3508657858384937  0.30650117159903106  1.0000
  C   C42       1.0  0.9055033665522602  0.3117946441512701  0.2509714468609945  1.0000
  C   C43       1.0  0.9221307545403689  0.2513993215008199  0.2041495346246337  1.0000
  C   C44       1.0  0.0211332127208479  0.21064583142892707  0.1436038929358077  1.0000
  C   C45       1.0  0.04892595304227849  0.2816369357427959  0.04471645118398014  1.0000
  C   C46       1.0  0.09163683611295428  0.3377368639876225  0.056464086183837  1.0000
  C   C47       1.0  0.14347157191751586  0.2600428564607712  0.12789669209340104  1.0000
  C   C48       1.0  0.6468295129633431  0.3759712845987906  0.38001409651437257  1.0000
  C   C49       1.0  0.32219245966407317  0.6868160338053642  0.39058204816776515  1.0000
  C   C50       1.0  0.26292504770357533  0.7771906900684942  0.335391622311043  1.0000
  C   C51       1.0  0.2266367481938758  0.773417480104307  0.2782363079460949  1.0000
  C   C52       1.0  0.17436816444350714  0.859846969600376  0.22653769360803017  1.0000
  C   C53       1.0  0.1620313090217281  0.9489090401163621  0.2290113580638575  1.0000
  C   C54       1.0  0.19759692285180813  0.9515192312447383  0.28646524756554476  1.0000
  C   C55       1.0  0.2466043511659349  0.8664087205177394  0.34212877122033813  1.0000
  C   C56       1.0  0.28579812783800657  0.8715158246511693  0.4035455472317296  1.0000
  C   C57       1.0  0.38986006161724157  0.8642317602585693  0.3547425819575805  1.0000
  C   C58       1.0  0.38425252795237697  0.9685677506796752  0.29198518762144243  1.0000
  C   C59       1.0  0.2980438921375708  0.03005408096503001  0.35099947671430703  1.0000
  C   C60       1.0  0.12391559800040142  0.8698809098461098  0.1681956979186126  1.0000
  C   C61       1.0  0.3252820821968214  0.37613794414042456  0.6593539320770675  1.0000
  C   C62       1.0  0.2790219573832288  0.30771026252631384  0.6783853069654385  1.0000
  C   C63       1.0  0.21802783921847885  0.27254046020355105  0.7646661912197671  1.0000
  C   C64       1.0  0.1990014035200147  0.190658156655644  0.7819439094721902  1.0000
  C   C65       1.0  0.24292489994584796  0.1439118793591589  0.7143614271339943  1.0000
  C   C66       1.0  0.2948837661928322  0.18624585163051685  0.6255965339861121  1.0000
  C   C67       1.0  0.31058004839000825  0.27057248182206456  0.6053112780286727  1.0000
  C   C68       1.0  0.35445509180261325  0.32440390303210637  0.5062629378462589  1.0000
  C   C69       1.0  0.4572016714057625  0.2676026968286962  0.4578920976614215  1.0000
  C   C70       1.0  0.45223871390161463  0.2683358181716216  0.36970393743511926  1.0000
  C   C71       1.0  0.3621895441188698  0.35311463533953014  0.3545377301344316  1.0000
  C   C72       1.0  0.1326413900155288  0.14721868975632904  0.8689718403413735  1.0000
  N   N1        1.0  0.5909562143091946  0.14621474492765427  0.23274878160596293  1.0000
  N   N2        1.0  0.10907323110719597  0.20224856541789654  0.6074078398845018  1.0000
  N   N3        1.0  0.2164538139440067  0.6243952924174041  0.14588474854688377  1.0000
  N   N4        1.0  0.09513802164130417  0.18673873921473932  0.1811866213444233  1.0000
  N   N5        1.0  0.2445460142118988  0.9638075946408907  0.42260985635972037  1.0000
  N   N6        1.0  0.29597340862175503  0.3530720363798991  0.4479738795621131  1.0000
  O   O1        1.0  0.9712214315346015  0.0101621564869845  0.021687509350783923  1.0000
  O   O2        1.0  0.8583425179931226  0.8835444958187111  0.1934294801085273  1.0000
  O   O3        1.0  0.8175828563961715  0.9078316341667332  0.07245160815541857  1.0000
  O   O4        1.0  0.5969689090397664  0.6504479906922854  0.35877485483762683  1.0000
  O   O5        1.0  0.5489829669785777  0.6794307323640539  0.49515271835495867  1.0000
  O   O6        1.0  0.8659022366956607  0.19676342040113326  0.8874286424790583  1.0000
  O   O7        1.0  0.8771334376941481  0.06076810356430681  0.8722507844547353  1.0000
  O   O8        1.0  0.6087593325603605  0.3257798003344092  0.6522748371780837  1.0000
  O   O9        1.0  0.6500193754015697  0.4611853091144908  0.5872612736614684  1.0000
  O   O10       1.0  0.14591526770858826  0.8864492734061286  0.8977338099281553  1.0000
  O   O11       1.0  0.022317763557396106  0.8391604581844234  0.940021589946497  1.0000
  O   O12       1.0  0.302333936775156  0.6389569870167193  0.6656772138215388  1.0000
  O   O13       1.0  0.43823341389617804  0.5636065263605233  0.7040238806098317  1.0000
  O   O14       1.0  0.8675750122187792  0.07739757701634892  0.2084966197860611  1.0000
  O   O15       1.0  0.8742569336053946  0.2078225978996144  0.07689690083753212  1.0000
  O   O16       1.0  0.6054088619058788  0.4638629763193761  0.3393231513850452  1.0000
  O   O17       1.0  0.6198823348605628  0.3283331770744341  0.4659429985169368  1.0000
  O   O18       1.0  0.2820443811417305  0.6563036908436571  0.47770924849100993  1.0000
  O   O19       1.0  0.4082865765286599  0.6511378707753367  0.3461307348023581  1.0000
  O   O20       1.0  0.1682861738829402  0.8789388638466349  0.0820828273916802  1.0000
  O   O21       1.0  0.03681625079494926  0.8790324114444344  0.20779439908307035  1.0000
  O   O22       1.0  0.2778012431738049  0.4646090862177275  0.6542029612531053  1.0000
  O   O23       1.0  0.4139489880369566  0.3354302389252624  0.6471290116325507  1.0000
  O   O24       1.0  0.16806538511866617  0.057002866083280423  0.9086285306287324  1.0000
  O   O25       1.0  0.04660034025321381  0.19972488329929658  0.8941051373726552  1.0000
  O   O26       1.0  0.4726016726561681  0.5173415835146359  0.5280902889066682  1.0000
