data_image0
_chemical_formula_structural       Hg2H22C26N4Cl4O2
_chemical_formula_sum              "Hg2 H22 C26 N4 Cl4 O2"
_cell_length_a       9.513730446902466
_cell_length_b       9.764566914778605
_cell_length_c       10.631520424001037
_cell_angle_alpha    72.26434651560717
_cell_angle_beta     85.92338399502842
_cell_angle_gamma    64.76335594969485

_space_group_name_H-M_alt    "P 1"
_space_group_IT_number       1

loop_
  _space_group_symop_operation_xyz
  'x, y, z'

loop_
  _atom_site_type_symbol
  _atom_site_label
  _atom_site_symmetry_multiplicity
  _atom_site_fract_x
  _atom_site_fract_y
  _atom_site_fract_z
  _atom_site_occupancy
  Hg  Hg1       1.0  0.8261690040489994  0.5706426668930931  0.6245720250058469  1.0000
  Hg  Hg2       1.0  0.17382689413560834  0.4293611051473575  0.375437168407636  1.0000
  H   H1        1.0  0.5471791847316466  0.4506915707617623  0.2551441540873967  1.0000
  H   H2        1.0  0.4528233252041148  0.5493074525731741  0.7448519410759002  1.0000
  H   H3        1.0  0.749359444331155  0.4062184024944528  0.422300854885435  1.0000
  H   H4        1.0  0.25063725653729557  0.5937768502736348  0.5777022170121027  1.0000
  H   H5        1.0  0.4997129998126936  0.854944411910985  0.4616945093215889  1.0000
  H   H6        1.0  0.500282639046759  0.14504600524433192  0.5383127886280616  1.0000
  H   H7        1.0  0.2900063119052802  0.9205963715947618  0.298287156197496  1.0000
  H   H8        1.0  0.7099950440426214  0.07939785624159872  0.7017169213095471  1.0000
  H   H9        1.0  0.9990164496888527  0.8350994779812171  0.05388895433843998  1.0000
  H   H10       1.0  0.000987097369090881  0.16489958355673204  0.9461070806834396  1.0000
  H   H11       1.0  0.290611735759512  0.9688215334844444  0.8667615534665812  1.0000
  H   H12       1.0  0.7093891652634241  0.0311882743535108  0.13322971920611337  1.0000
  H   H13       1.0  0.35391392940618965  0.9595855897565286  0.6389065110288995  1.0000
  H   H14       1.0  0.6460822696018198  0.04042285935109649  0.36108724759900207  1.0000
  H   H15       1.0  0.20291119308091504  0.8819614206956388  0.513528110963179  1.0000
  H   H16       1.0  0.7970844542930066  0.11805062993202141  0.48646466621646295  1.0000
  H   H17       1.0  0.9986955123932119  0.8010655182474692  0.6215457264708774  1.0000
  H   H18       1.0  0.0013011711568395718  0.1989441668640595  0.37844860398622854  1.0000
  H   H19       1.0  0.9422668581675849  0.7995739085259077  0.8525507688380569  1.0000
  H   H20       1.0  0.05773915664397576  0.20042890925531512  0.14744786060292367  1.0000
  H   H21       1.0  0.20432261662345738  0.9559168264590524  0.11772228528253943  1.0000
  H   H22       1.0  0.7956893404934321  0.04407768312198361  0.8822718000811987  1.0000
  C   C1        1.0  0.5339151258242579  0.5434559103131279  0.2979298025589187  1.0000
  C   C2        1.0  0.46608719826168965  0.4565383858118892  0.7020770320254286  1.0000
  C   C3        1.0  0.6454606170172497  0.5182997203062384  0.39066804141114625  1.0000
  C   C4        1.0  0.35453396361740624  0.48169547611291114  0.6093370289150569  1.0000
  C   C5        1.0  0.506740912408141  0.7693392112425597  0.41242475790301814  1.0000
  C   C6        1.0  0.4932542428553148  0.2306523736280113  0.5875803547985397  1.0000
  C   C7        1.0  0.39025044700475325  0.8051280832118904  0.31966412426518787  1.0000
  C   C8        1.0  0.6097519221245663  0.1948637891368747  0.6803424455922311  1.0000
  C   C9        1.0  0.4031678784790245  0.6900910692962439  0.26118907172074307  1.0000
  C   C10       1.0  0.5968380626181328  0.30989975997487557  0.7388204420334147  1.0000
  C   C11       1.0  0.28027730703237796  0.7151721301400259  0.16440955825137127  1.0000
  C   C12       1.0  0.7197214920212148  0.2848255927246939  0.835590840871525  1.0000
  C   C13       1.0  0.058044955736860866  0.9119767644580605  0.007304216891668586  1.0000
  C   C14       1.0  0.9419507117936162  0.0880280649836109  0.9926924614717333  1.0000
  C   C15       1.0  0.10892033872135419  0.8899601392684107  0.8736885857143616  1.0000
  C   C16       1.0  0.8910883489041411  0.11004153706085873  0.12630741332732495  1.0000
  C   C17       1.0  0.2268016605193779  0.9311770531005121  0.8134667026683713  1.0000
  C   C18       1.0  0.7731955526161015  0.0688314442386826  0.1865279348910178  1.0000
  C   C19       1.0  0.26248742689323723  0.926179174941268  0.6849594075418108  1.0000
  C   C20       1.0  0.7375113998853209  0.07383055649064829  0.31503198541372507  1.0000
  C   C21       1.0  0.17901967140699773  0.8814515611425691  0.615238506312103  1.0000
  C   C22       1.0  0.8209755364682463  0.11855682970495  0.3847534343114062  1.0000
  C   C23       1.0  0.0637804820649278  0.836424007324702  0.6756696854811536  1.0000
  C   C24       1.0  0.936222029762938  0.16357982344852937  0.3243231828443596  1.0000
  C   C25       1.0  0.03023254173381668  0.8387745190839908  0.8051225073718268  1.0000
  C   C26       1.0  0.969767319328781  0.16122803939349242  0.19487366569896378  1.0000
  N   N1        1.0  0.18823853922839345  0.8682863899703861  0.09776049110674725  1.0000
  N   N2        1.0  0.811771227724506  0.1317056896282054  0.9022400233232729  1.0000
  N   N3        1.0  0.6314184756532341  0.6286481826145547  0.44734949041930605  1.0000
  N   N4        1.0  0.3685782693125433  0.3713422426581374  0.552654930170199  1.0000
  Cl  Cl1       1.0  0.9996830550256988  0.31271453007266103  0.6160816385534884  1.0000
  Cl  Cl2       1.0  0.0003154469887079852  0.6872881306014803  0.3839277416794287  1.0000
  Cl  Cl3       1.0  0.6958079427010802  0.8089201335039603  0.6803174387338159  1.0000
  Cl  Cl4       1.0  0.30419214996170046  0.1910837712914599  0.31968963596816735  1.0000
  O   O1        1.0  0.265191450485979  0.601217226649112  0.1481911139766936  1.0000
  O   O2        1.0  0.7348001328096387  0.3987754012991119  0.8518110548281256  1.0000
