data_image0
_chemical_formula_structural       Cd4H24C36N12Cl4O8
_chemical_formula_sum              "Cd4 H24 C36 N12 Cl4 O8"
_cell_length_a       5.960535474162374
_cell_length_b       7.710537078149403
_cell_length_c       22.046715615310514
_cell_angle_alpha    89.9997685467314
_cell_angle_beta     89.99946955956102
_cell_angle_gamma    89.99932089341169

_space_group_name_H-M_alt    "P 1"
_space_group_IT_number       1

loop_
  _space_group_symop_operation_xyz
  'x, y, z'

loop_
  _atom_site_type_symbol
  _atom_site_label
  _atom_site_symmetry_multiplicity
  _atom_site_fract_x
  _atom_site_fract_y
  _atom_site_fract_z
  _atom_site_occupancy
  Cd  Cd1       1.0  0.23510274844101528  0.31178234444435293  0.7180588422162089  1.0000
  Cd  Cd2       1.0  0.73507963851916  0.6882168070471977  0.2819440504928608  1.0000
  Cd  Cd3       1.0  0.23510281047022363  0.8117808640089097  0.7819432920869643  1.0000
  Cd  Cd4       1.0  0.7350745434131056  0.1882156936554296  0.21805914704755477  1.0000
  H   H1        1.0  0.21364407394396062  0.5873411418175253  0.3723654600369882  1.0000
  H   H2        1.0  0.713652904501366  0.4126556133576571  0.6276270508211823  1.0000
  H   H3        1.0  0.21363890045424225  0.08733719353772071  0.127630942999275  1.0000
  H   H4        1.0  0.7136564001383262  0.9126556708073751  0.8723715466742163  1.0000
  H   H5        1.0  0.08378787915493999  0.0540068263240556  0.3418249286088155  1.0000
  H   H6        1.0  0.5838260542910446  0.9459989061118749  0.6581796814187442  1.0000
  H   H7        1.0  0.0838024926984886  0.5539964156107331  0.1581799915387023  1.0000
  H   H8        1.0  0.5838064077893534  0.44599115987977467  0.8418241649251711  1.0000
  H   H9        1.0  0.6049595412393599  0.1689119755532005  0.3658645496702491  1.0000
  H   H10       1.0  0.10497777111260828  0.8310792958403468  0.6341336603371985  1.0000
  H   H11       1.0  0.6049649598026362  0.6689070333231227  0.1341362600338201  1.0000
  H   H12       1.0  0.10495725310983058  0.331085535029395  0.8658683001427293  1.0000
  H   H13       1.0  0.8557161431230184  0.100619345511916  0.45367329953393215  1.0000
  H   H14       1.0  0.35573148025731166  0.8993851796799035  0.5463243194355839  1.0000
  H   H15       1.0  0.8557213885404024  0.6006102409308482  0.04632565381994879  1.0000
  H   H16       1.0  0.3557144909518825  0.399382611955211  0.9536755938299778  1.0000
  H   H17       1.0  0.7198838087604641  0.1459391556428002  0.5591054587601008  1.0000
  H   H18       1.0  0.21989694718848085  0.8540731051317323  0.44089293394505086  1.0000
  H   H19       1.0  0.7198848211773237  0.6459345221872111  0.9408948574866044  1.0000
  H   H20       1.0  0.21987748007223465  0.35406347245147163  0.0591085246555707  1.0000
  H   H21       1.0  0.0982916848842379  0.35105783239164623  0.4904032975998263  1.0000
  H   H22       1.0  0.5983028663904975  0.6489503604891026  0.5095944745379057  1.0000
  H   H23       1.0  0.09829322818803378  0.8510569382695152  0.0095979982238887  1.0000
  H   H24       1.0  0.5982879014658379  0.14893828537343268  0.9904056705086361  1.0000
  C   C1        1.0  0.14198731637154077  0.46953785348721777  0.3538562938275547  1.0000
  C   C2        1.0  0.6419987122191698  0.5304634523652608  0.6461382002482381  1.0000
  C   C3        1.0  0.1419788781788469  0.9695340680415897  0.1461420119729482  1.0000
  C   C4        1.0  0.642002117235009  0.030452971584111296  0.8538624609293706  1.0000
  C   C5        1.0  0.08166292270022518  0.19449642859498792  0.3371171022566628  1.0000
  C   C6        1.0  0.5816896487350077  0.8055054327049974  0.6628838841371945  1.0000
  C   C7        1.0  0.08166729941781631  0.6944924476024213  0.16288535868851986  1.0000
  C   C8        1.0  0.581675205855653  0.3054977413920171  0.8371178956368582  1.0000
  C   C9        1.0  0.3411224078180907  0.26512016023628604  0.4234488808373841  1.0000
  C   C10       1.0  0.8411348851711365  0.734881905521405  0.5765478653699887  1.0000
  C   C11       1.0  0.34111984705850756  0.7651145935368574  0.0765506019779139  1.0000
  C   C12       1.0  0.8411189912247891  0.23487190915317774  0.9234520408319966  1.0000
  C   C13       1.0  0.5518995194238485  0.19371566844405658  0.41229463995806265  1.0000
  C   C14       1.0  0.051911421740030085  0.8062838732025455  0.587701880784067  1.0000
  C   C15       1.0  0.5518999098917517  0.6937060807109462  0.0877035386652452  1.0000
  C   C16       1.0  0.051894254241339886  0.3062856794299762  0.912297064342802  1.0000
  C   C17       1.0  0.6897036584355121  0.15475766800589244  0.4614777944278003  1.0000
  C   C18       1.0  0.1897217819252859  0.845245792202988  0.5385206694120868  1.0000
  C   C19       1.0  0.6897075089421205  0.6547525453394556  0.0385219281500682  1.0000
  C   C20       1.0  0.18970115447677216  0.345237945673567  0.9614778964655528  1.0000
  C   C21       1.0  0.6137075440212953  0.18000364420760917  0.5206245448299356  1.0000
  C   C22       1.0  0.1137181297432406  0.8200134851738526  0.4793759124609593  1.0000
  C   C23       1.0  0.6137138727327026  0.6799946706075346  0.9793755204896684  1.0000
  C   C24       1.0  0.1137067681758097  0.3199952233534803  0.0206226689146831  1.0000
  C   C25       1.0  0.3984862420334139  0.24726058854396632  0.531250824045955  1.0000
  C   C26       1.0  0.898505708901453  0.7527578089097632  0.46875032275850265  1.0000
  C   C27       1.0  0.3984946335281591  0.7472504420833063  0.9687505617336782  1.0000
  C   C28       1.0  0.8984822183262152  0.25273942306186836  0.0312496779439044  1.0000
  C   C29       1.0  0.263453596574287  0.29524388763510245  0.4821053073354591  1.0000
  C   C30       1.0  0.7634686590739718  0.7047692688160437  0.5178907147615206  1.0000
  C   C31       1.0  0.2634632277520907  0.7952390058181892  0.0178929556910319  1.0000
  C   C32       1.0  0.7634523171609048  0.2047508059521164  0.9821089630000727  1.0000
  C   C33       1.0  0.3094980157379581  0.2607668199253723  0.5948182110676399  1.0000
  C   C34       1.0  0.8095401247611632  0.7392614754777895  0.4051772488781182  1.0000
  C   C35       1.0  0.309515421775103  0.7607548218591518  0.905181097663636  1.0000
  C   C36       1.0  0.8095009087055517  0.2392449412239799  0.0948207124799723  1.0000
  N   N1        1.0  0.9581244535634992  0.2847236855543542  0.2987102857139803  1.0000
  N   N2        1.0  0.45815879325697745  0.7152760056238422  0.7012907205190472  1.0000
  N   N3        1.0  0.9581257607698885  0.7847166622563506  0.2012904369286801  1.0000
  N   N4        1.0  0.4581524530330867  0.21527265353552855  0.7987101157352257  1.0000
  N   N5        1.0  0.9948612482956987  0.4580317445830318  0.3093860879582095  1.0000
  N   N6        1.0  0.4948784861802125  0.5419676083716566  0.6906107494660532  1.0000
  N   N7        1.0  0.9948545538904339  0.9580248459852143  0.19061430594101839  1.0000
  N   N8        1.0  0.4948835028989151  0.04196283461470069  0.809386613734091  1.0000
  N   N9        1.0  0.19844957712050607  0.3070987318618067  0.37308233377152783  1.0000
  N   N10       1.0  0.6984608695148821  0.6929033509121041  0.6269152022986901  1.0000
  N   N11       1.0  0.1984435133290177  0.8070951708914292  0.1269187874156614  1.0000
  N   N12       1.0  0.6984602224886345  0.1928965364721194  0.8730837380750245  1.0000
  Cl  Cl1       1.0  0.9833550474245456  0.5378225261746368  0.7676157511132687  1.0000
  Cl  Cl2       1.0  0.48333138908005674  0.46217693291573875  0.23238428855528778  1.0000
  Cl  Cl3       1.0  0.9833594993074896  0.0378212454388702  0.7323854559455114  1.0000
  Cl  Cl4       1.0  0.48332861480998446  0.9621769166854863  0.2676200267095865  1.0000
  O   O1        1.0  0.4261333221781456  0.18630040953677002  0.6365177609072532  1.0000
  O   O2        1.0  0.9261690957516036  0.8137177332589403  0.3634778777265169  1.0000
  O   O3        1.0  0.4261505616616645  0.6862914922433632  0.8634827377124595  1.0000
  O   O4        1.0  0.9261283685018924  0.3137020090142928  0.1365201582830267  1.0000
  O   O5        1.0  0.1313705692170615  0.34487715395627566  0.6053745831196053  1.0000
  O   O6        1.0  0.6314059553814598  0.655148891174683  0.39461812160505616  1.0000
  O   O7        1.0  0.13139339082186297  0.8448808422563445  0.8946236671650994  1.0000
  O   O8        1.0  0.6313730675427323  0.15512574896758477  0.10537856281333552  1.0000
