data_image0
_chemical_formula_structural       Fe2H40C52N20
_chemical_formula_sum              "Fe2 H40 C52 N20"
_cell_length_a       9.423042384476563
_cell_length_b       9.422111058949689
_cell_length_c       14.278069745761501
_cell_angle_alpha    92.81128107100723
_cell_angle_beta     104.57660970668526
_cell_angle_gamma    110.93253588559277

_space_group_name_H-M_alt    "P 1"
_space_group_IT_number       1

loop_
  _space_group_symop_operation_xyz
  'x, y, z'

loop_
  _atom_site_type_symbol
  _atom_site_label
  _atom_site_symmetry_multiplicity
  _atom_site_fract_x
  _atom_site_fract_y
  _atom_site_fract_z
  _atom_site_occupancy
  Fe  Fe1       1.0  0.5000024657511161  2.666843961700759e-06  5.262811768619986e-07  1.0000
  Fe  Fe2       1.0  0.4999928045807207  0.49999867510999957  0.4999997890469815  1.0000
  H   H1        1.0  0.8602208801628848  0.6057143543214137  0.9941650802562096  1.0000
  H   H2        1.0  0.13978063543817137  0.3942898886698458  0.005832487853332716  1.0000
  H   H3        1.0  0.5722816388834815  0.5082105986936655  0.8946889868435054  1.0000
  H   H4        1.0  0.4277203305954913  0.49179477526462995  0.10531009973507113  1.0000
  H   H5        1.0  0.41929888916587993  0.6753762493839232  0.9001283301546085  1.0000
  H   H6        1.0  0.5807027928783555  0.324625659145994  0.09987127893877101  1.0000
  H   H7        1.0  0.8401190712281235  0.4792725251760929  0.2866092056022823  1.0000
  H   H8        1.0  0.15988197059707682  0.5207305204299287  0.7133917410385209  1.0000
  H   H9        1.0  0.009142072645737213  0.6686918687031564  0.43898062603948074  1.0000
  H   H10       1.0  0.9908628860042226  0.33131000252291193  0.5610209249616815  1.0000
  H   H11       1.0  0.2758082771204115  0.6656203004312571  0.5231202087997603  1.0000
  H   H12       1.0  0.7241951164993097  0.3343803890069664  0.47688384023958735  1.0000
  H   H13       1.0  0.2199320783457281  0.31833424913244807  0.3094554819193647  1.0000
  H   H14       1.0  0.7800690174587785  0.6816606905874778  0.6905479704895401  1.0000
  H   H15       1.0  0.08604683855794795  0.8027983014226763  0.09860003281721672  1.0000
  H   H16       1.0  0.9139542174800609  0.19720479162492668  0.9013974159662371  1.0000
  H   H17       1.0  0.040233255289287236  0.8959382583030334  0.1919391601416862  1.0000
  H   H18       1.0  0.9597673383431127  0.10406367531259521  0.8080588688871446  1.0000
  H   H19       1.0  0.09598388587295387  0.9960062033954384  0.09900250330322542  1.0000
  H   H20       1.0  0.9040191805455321  0.003999173942091297  0.9009960646254884  1.0000
  H   H21       1.0  0.16547086429065416  0.09067142302569658  0.7445218668510665  1.0000
  H   H22       1.0  0.8345293209154503  0.9093212452718547  0.25547924819123585  1.0000
  H   H23       1.0  0.2916698814283336  0.3753905506688824  0.802865018503127  1.0000
  H   H24       1.0  0.7083242016016628  0.624603313715099  0.19713443076413034  1.0000
  H   H25       1.0  0.43415397080298856  0.548314814681163  0.6975932391355926  1.0000
  H   H26       1.0  0.5658372894991928  0.4516802179737027  0.3024057866929156  1.0000
  H   H27       1.0  0.29265748448712964  0.7675069329599751  0.3361133213528903  1.0000
  H   H28       1.0  0.7073413691441672  0.2324961248641984  0.6638872634446926  1.0000
  H   H29       1.0  0.26642332708456  0.5846882899322167  0.19203182103844096  1.0000
  H   H30       1.0  0.7335788116801538  0.4153147590530467  0.8079686069525069  1.0000
  H   H31       1.0  0.3499598094109118  0.6931901708710626  0.04884869423112551  1.0000
  H   H32       1.0  0.6500434262933155  0.3068128814934497  0.9511512151099597  1.0000
  H   H33       1.0  0.5087744355460018  0.1397898529818917  0.1915326803782449  1.0000
  H   H34       1.0  0.4912309855095672  0.8602131776761511  0.8084682903775332  1.0000
  H   H35       1.0  0.1905063114699316  0.9068208160429662  0.5132598430736196  1.0000
  H   H36       1.0  0.8094961800790726  0.0931776304378289  0.4867397698847213  1.0000
  H   H37       1.0  0.04563735017900679  0.8935135363506107  0.5770362052426706  1.0000
  H   H38       1.0  0.95436267142648  0.10648147589660079  0.4229621692443146  1.0000
  H   H39       1.0  0.22633608241286388  0.8777395537401204  0.637972801943157  1.0000
  H   H40       1.0  0.7736645737265349  0.12225430245435834  0.3620256341393572  1.0000
  C   C1        1.0  0.816411972905172  0.0593608185504664  0.10368431661234472  1.0000
  C   C2        1.0  0.18358924957601633  0.9406399400358013  0.8963151731549532  1.0000
  C   C3        1.0  0.9166887043919373  0.26596783297545556  0.20195787582247965  1.0000
  C   C4        1.0  0.08331021458891288  0.7340271569158787  0.7980424164573138  1.0000
  C   C5        1.0  0.7648525022190427  0.9075570103385076  0.050089362610876334  1.0000
  C   C6        1.0  0.23515119304822452  0.0924471919696543  0.9499106660562973  1.0000
  C   C7        1.0  0.8598086490100627  0.8206019398153259  0.0524696273186365  1.0000
  C   C8        1.0  0.14019022167660466  0.1794011749387394  0.947526760050124  1.0000
  C   C9        1.0  0.7891681405957199  0.6750617135091729  0.9952423172295894  1.0000
  C   C10       1.0  0.21083292112741248  0.32494139851506537  0.004753732410925705  1.0000
  C   C11       1.0  0.6304782265203385  0.6208528361200577  0.940033626454188  1.0000
  C   C12       1.0  0.3695206413237671  0.3791502691456968  0.059963460486038414  1.0000
  C   C13       1.0  0.5438625780289215  0.7126952492006352  0.9424441020204457  1.0000
  C   C14       1.0  0.4561406605178675  0.28730781265218747  0.05755510774916672  1.0000
  C   C15       1.0  0.016800121719086302  0.38445821213102255  0.28588845679492897  1.0000
  C   C16       1.0  0.9832023499319787  0.615540167931563  0.7141160531637072  1.0000
  C   C17       1.0  0.9588044293088132  0.485996632202557  0.32330219502338764  1.0000
  C   C18       1.0  0.04120069862689484  0.5140029140504793  0.676700697390153  1.0000
  C   C19       1.0  0.05168634503838377  0.5893182822116287  0.4081409867686717  1.0000
  C   C20       1.0  0.9483181455208507  0.4106824106058298  0.5918625436208133  1.0000
  C   C21       1.0  0.20031185603681925  0.589153447711034  0.45516200883214714  1.0000
  C   C22       1.0  0.7996917182388897  0.41084495470742166  0.5448405833336878  1.0000
  C   C23       1.0  0.16935551670845678  0.39403191166078955  0.3360590192811587  1.0000
  C   C24       1.0  0.8306432187738438  0.6059653557619882  0.6639434294436131  1.0000
  C   C25       1.0  0.029545092015290195  0.8813745164024809  0.1132952715507969  1.0000
  C   C26       1.0  0.9704555044596714  0.11862742670146528  0.8867020579065681  1.0000
  C   C27       1.0  0.3654698544320354  0.17133667970747274  0.4743241980098249  1.0000
  C   C28       1.0  0.6345266956989234  0.8286606094217747  0.5256771893002538  1.0000
  C   C29       1.0  0.4028165987151482  0.07796625934955159  0.35010175428103457  1.0000
  C   C30       1.0  0.5971815164460493  0.9220322115675399  0.6498971349908587  1.0000
  C   C31       1.0  0.332250398786698  0.21089603919372021  0.5637718767380521  1.0000
  C   C32       1.0  0.6677457031514678  0.7891001379451338  0.436226592960054  1.0000
  C   C33       1.0  0.2470985671454642  0.10729888494466881  0.6165148993392435  1.0000
  C   C34       1.0  0.7529008085558643  0.8926972454020115  0.38348621183811105  1.0000
  C   C35       1.0  0.23218918865890711  0.16888415472801907  0.7030305670052928  1.0000
  C   C36       1.0  0.7678081766619442  0.8311096913287344  0.2969694250268022  1.0000
  C   C37       1.0  0.30149950292240385  0.3266653074092147  0.7350447486679458  1.0000
  C   C38       1.0  0.6984961337675841  0.6733297008093473  0.26495500084701024  1.0000
  C   C39       1.0  0.3815623466239585  0.4230783360077338  0.6782263389317864  1.0000
  C   C40       1.0  0.6184298328043168  0.5769189965344522  0.3217729255489061  1.0000
  C   C41       1.0  0.39768838227593045  0.9676989666720672  0.2728017153276667  1.0000
  C   C42       1.0  0.6023106491687927  0.03230179464402741  0.7271981121678764  1.0000
  C   C43       1.0  0.33282607340760245  0.8087991377793954  0.27393421751438757  1.0000
  C   C44       1.0  0.6671737078774668  0.19120624839704453  0.7260645072209615  1.0000
  C   C45       1.0  0.3180942514481017  0.7086644494364478  0.19395787581350996  1.0000
  C   C46       1.0  0.6819052424022232  0.2913374713116212  0.8060413714366563  1.0000
  C   C47       1.0  0.36626440337153804  0.7674284175373032  0.11469144626402544  1.0000
  C   C48       1.0  0.6337355471992723  0.232574643666112  0.885308619883695  1.0000
  C   C49       1.0  0.4517670619992061  0.017543502877820995  0.19277546958957717  1.0000
  C   C50       1.0  0.548233523105516  0.9824584022728614  0.8072246581536718  1.0000
  C   C51       1.0  0.17316559872452336  0.9366327492275133  0.5833663033007284  1.0000
  C   C52       1.0  0.8268370677953455  0.06336339125688542  0.41663325192704553  1.0000
  N   N1        1.0  0.70731895112484  0.12572976867729577  0.08803851116127959  1.0000
  N   N2        1.0  0.2926820878577985  0.8742732674404153  0.9119631350509964  1.0000
  N   N3        1.0  0.7710817783736843  0.25895113044974494  0.15046065439639025  1.0000
  N   N4        1.0  0.228921445960296  0.7410518839614967  0.8495420532305787  1.0000
  N   N5        1.0  0.9503050284787093  0.1444846484717601  0.17464403883571583  1.0000
  N   N6        1.0  0.04969727957174536  0.8555160755404784  0.8253577305676034  1.0000
  N   N7        1.0  0.6085421238816975  0.8544139768960475  0.9957091282534452  1.0000
  N   N8        1.0  0.3914595666902229  0.14558796009882258  0.004288382125530207  1.0000
  N   N9        1.0  0.2577987313372816  0.4936057807821186  0.4187479895880912  1.0000
  N   N10       1.0  0.7422048315681734  0.5063925836830807  0.5812574008636278  1.0000
  N   N11       1.0  0.4449386955359955  0.29214112970654327  0.4334538218090103  1.0000
  N   N12       1.0  0.5550570450901873  0.7078596214718331  0.5665475616361136  1.0000
  N   N13       1.0  0.4691621889907296  0.23278652113170745  0.3535236989913387  1.0000
  N   N14       1.0  0.5308351109805755  0.767215392857885  0.6464765855585455  1.0000
  N   N15       1.0  0.3366643292969869  0.0350322848993585  0.42349384398016104  1.0000
  N   N16       1.0  0.6633336080507847  0.9649684825258122  0.576505802593772  1.0000
  N   N17       1.0  0.39552460566950026  0.36731965119292204  0.593983381765355  1.0000
  N   N18       1.0  0.604468205450118  0.6326765158082068  0.4060166438823317  1.0000
  N   N19       1.0  0.4343347509599908  0.9204177592770931  0.1144471115357888  1.0000
  N   N20       1.0  0.5656662937077712  0.079585295817246  0.8855531355335488  1.0000
