data_image0
_chemical_formula_structural       Al2H16C18N6O10
_chemical_formula_sum              "Al2 H16 C18 N6 O10"
_cell_length_a       6.686762359575586
_cell_length_b       8.830838669114442
_cell_length_c       16.832662738654673
_cell_angle_alpha    100.66290087109248
_cell_angle_beta     84.25402172674039
_cell_angle_gamma    75.73064335269311

_space_group_name_H-M_alt    "P 1"
_space_group_IT_number       1

loop_
  _space_group_symop_operation_xyz
  'x, y, z'

loop_
  _atom_site_type_symbol
  _atom_site_label
  _atom_site_symmetry_multiplicity
  _atom_site_fract_x
  _atom_site_fract_y
  _atom_site_fract_z
  _atom_site_occupancy
  Al  Al1       1.0  0.000503379040090125  0.5050845384352555  0.49943707058020687  1.0000
  Al  Al2       1.0  0.5008788134407498  0.5066326984790307  0.4987947225713683  1.0000
  H   H1        1.0  0.17954760643152673  0.6551151576202017  0.5919263005815195  1.0000
  H   H2        1.0  0.8293450805533241  0.3154455558629152  0.43155168570531527  1.0000
  H   H3        1.0  0.5827934753248415  0.5879569884584087  0.2759347338806961  1.0000
  H   H4        1.0  0.6521024204234609  0.5937284450018581  0.12688963414198176  1.0000
  H   H5        1.0  0.09532126791361863  0.44577269831786037  0.0901347410099191  1.0000
  H   H6        1.0  0.9394744342937998  0.435450418036254  0.8959001636020716  1.0000
  H   H7        1.0  0.2790105851612594  0.5842896457785828  0.8903430754971352  1.0000
  H   H8        1.0  0.35463713044107686  0.5837311827533541  0.7411362279967193  1.0000
  H   H9        1.0  0.9431724262475573  0.4494529995322694  0.30480586542383037  1.0000
  H   H10       1.0  0.8833736543039733  0.41161780551470883  0.2053477996596058  1.0000
  H   H11       1.0  0.09245394129947476  0.42587132122076815  0.6805785058244852  1.0000
  H   H12       1.0  0.17780165260781194  0.3934122260546218  0.7731040945529555  1.0000
  H   H13       1.0  0.7299009924719896  0.15085310435734564  0.5312741570179469  1.0000
  H   H14       1.0  0.8823803716615192  0.9667821369487799  0.5400121707419245  1.0000
  H   H15       1.0  0.27026583518985353  0.8601429338739663  0.4770470606169965  1.0000
  H   H16       1.0  0.1187421576432044  0.041627321704240196  0.4628953168324513  1.0000
  C   C1        1.0  0.6524510240516007  0.7916963442173285  0.5062872741604069  1.0000
  C   C2        1.0  0.7140432415536823  0.5123188990497171  0.6458963233866442  1.0000
  C   C3        1.0  0.35153717088685715  0.2184037235722017  0.4926505736185049  1.0000
  C   C4        1.0  0.2837324471129321  0.5027980245503657  0.3539414073754229  1.0000
  C   C5        1.0  0.30575852609182164  0.5100972857226225  0.26694793906945335  1.0000
  C   C6        1.0  0.47996898201081  0.5539010754513286  0.2337513706463028  1.0000
  C   C7        1.0  0.5199406334084387  0.5566787797545771  0.1520434443405279  1.0000
  C   C8        1.0  0.37954550414182353  0.5131304448126032  0.1004732992158068  1.0000
  C   C9        1.0  0.20173650524624515  0.4754812190261434  0.1318641208398077  1.0000
  C   C10       1.0  0.15894834833930105  0.4730901725808181  0.21562498757786835  1.0000
  C   C11       1.0  0.8126401470233021  0.4660447820623901  0.8605604109255225  1.0000
  C   C12       1.0  0.6079540714979146  0.5059127143357858  0.9001540184613788  1.0000
  C   C13       1.0  0.4378769295497946  0.5487173720687863  0.857560119397746  1.0000
  C   C14       1.0  0.4811886096145131  0.5488861916002109  0.7757384784806476  1.0000
  C   C15       1.0  0.6868828115378278  0.5071363924454461  0.7331474721150144  1.0000
  C   C16       1.0  0.8585775365282518  0.46360839486281696  0.7762824572291862  1.0000
  C   C17       1.0  0.6012144727796169  0.9636605356083975  0.5059006682674577  1.0000
  C   C18       1.0  0.40282090038453333  0.04680868795605872  0.4947575833377726  1.0000
  N   N1        1.0  0.4038854069310959  0.5077439761183625  0.015465185256353193  1.0000
  N   N2        1.0  0.5860298725673374  0.5043291201564699  0.9844996466599695  1.0000
  N   N3        1.0  0.9862942846353137  0.43177435655915275  0.24344576479943916  1.0000
  N   N4        1.0  0.06091547688811969  0.41919961835346703  0.7398884918785524  1.0000
  N   N5        1.0  0.7674389410263203  0.029698706251288325  0.5143433221065479  1.0000
  N   N6        1.0  0.23687458942929138  0.981396487808759  0.48796649735502473  1.0000
  O   O1        1.0  0.8390474214972486  0.7238368426190933  0.5154468351605459  1.0000
  O   O2        1.0  0.5516382491442612  0.5331020829638932  0.6105752237489739  1.0000
  O   O3        1.0  0.4956157858012063  0.2910038614957244  0.4988378920303873  1.0000
  O   O4        1.0  0.10256220749222679  0.5085325715074519  0.3900833913710358  1.0000
  O   O5        1.0  0.1638300104839772  0.2846916232927654  0.4840314244301211  1.0000
  O   O6        1.0  0.4465208387712281  0.4894484751011846  0.388695442701632  1.0000
  O   O7        1.0  0.5091375877006216  0.7191745925436381  0.4981468056500801  1.0000
  O   O8        1.0  0.8994288900124163  0.49654866925901325  0.6095120020576061  1.0000
  O   O9        1.0  0.21578500428645953  0.5807569010646035  0.5393290902524441  1.0000
  O   O10       1.0  0.7864183950073383  0.4275073132464088  0.4590753909401428  1.0000
