data_image0
_chemical_formula_structural       Zn2H32C50N8Cl2O8
_chemical_formula_sum              "Zn2 H32 C50 N8 Cl2 O8"
_cell_length_a       8.639407488216131
_cell_length_b       12.117136086901729
_cell_length_c       12.5842
_cell_angle_alpha    61.328774504590776
_cell_angle_beta     74.18545672582397
_cell_angle_gamma    75.38010849950258

_space_group_name_H-M_alt    "P 1"
_space_group_IT_number       1

loop_
  _space_group_symop_operation_xyz
  'x, y, z'

loop_
  _atom_site_type_symbol
  _atom_site_label
  _atom_site_symmetry_multiplicity
  _atom_site_fract_x
  _atom_site_fract_y
  _atom_site_fract_z
  _atom_site_occupancy
  Zn  Zn1       1.0  0.6015698650707008  0.6050644671245422  0.7146726903920281  1.0000
  Zn  Zn2       1.0  0.39842918855956094  0.3949346566771297  0.2853282887756947  1.0000
  H   H1        1.0  0.19090538924794484  0.3105979537840682  0.10811669356461806  1.0000
  H   H2        1.0  0.809090732755429  0.6894040216068618  0.891882722085661  1.0000
  H   H3        1.0  0.7626805451388776  0.8254352851342261  0.5261693507746088  1.0000
  H   H4        1.0  0.23731610244623613  0.1745638386674457  0.4738296946120997  1.0000
  H   H5        1.0  0.7310953866016163  0.05894995424139181  0.46874344875222806  1.0000
  H   H6        1.0  0.26889850455052766  0.9410510706197855  0.531252850166176  1.0000
  H   H7        1.0  0.5423852689471005  0.1396727430123335  0.6137251667261125  1.0000
  H   H8        1.0  0.45761498770573183  0.8603263807893384  0.38627320341946353  1.0000
  H   H9        1.0  0.45314162365571786  0.7537938576265049  0.8599448914079275  1.0000
  H   H10       1.0  0.5468610390422624  0.24620526617516703  0.14005700181317593  1.0000
  H   H11       1.0  0.2734257523082988  0.1695459920996711  0.7000803392775907  1.0000
  H   H12       1.0  0.7265734765158809  0.8304521811722481  0.29992025158652064  1.0000
  H   H13       1.0  0.4463740076321159  0.8333560495686427  0.004644725508065126  1.0000
  H   H14       1.0  0.5536308859171014  0.16664402476278184  0.9953563112086313  1.0000
  H   H15       1.0  0.14842104650055177  0.3518927683872946  0.6496970827096076  1.0000
  H   H16       1.0  0.851580588368769  0.6481054048846246  0.3503022633464923  1.0000
  H   H17       1.0  0.9221495795665219  0.5298490477443423  0.5954591589189917  1.0000
  H   H18       1.0  0.07785205530279879  0.470149125527577  0.40454177643162137  1.0000
  H   H19       1.0  0.6832629898108706  0.40385632894179213  0.9577735826660002  1.0000
  H   H20       1.0  0.31673761722979066  0.5961408938003743  0.04222639481412222  1.0000
  H   H21       1.0  0.9008367152448072  0.2170382606945438  0.02871238923486169  1.0000
  H   H22       1.0  0.09916251357936551  0.7829599125773754  0.9712874069819932  1.0000
  H   H23       1.0  0.04442134321488569  0.0384460769325301  0.21857267429341218  1.0000
  H   H24       1.0  0.9555799412666061  0.9615539973988946  0.7814266537226545  1.0000
  H   H25       1.0  0.011621126709115982  0.9133640399650816  0.44648925019460245  1.0000
  H   H26       1.0  0.9883777517272276  0.086636034366343  0.5535105279822191  1.0000
  H   H27       1.0  0.3568710874054872  0.6166390679307199  0.41924119659028497  1.0000
  H   H28       1.0  0.6431277910308637  0.3833610064007047  0.5807585815865366  1.0000
  H   H29       1.0  0.41174409957964286  0.7290382607310448  0.1917838175926931  1.0000
  H   H30       1.0  0.5882559818792785  0.2709618136003797  0.8082165301510001  1.0000
  H   H31       1.0  0.8333395018864068  0.3117880170352265  0.4206023865551741  1.0000
  H   H32       1.0  0.1666604043785966  0.6882130078259578  0.5793975548448742  1.0000
  C   C1        1.0  0.33985733184399436  0.4687708573852661  0.8899611411451858  1.0000
  C   C2        1.0  0.6601437774435795  0.5312301674759183  0.11003857517449232  1.0000
  C   C3        1.0  0.16175378346294877  0.4832787930101858  0.9424072749857474  1.0000
  C   C4        1.0  0.838244919779491  0.5167222318509914  0.05759289149468568  1.0000
  C   C5        1.0  0.10619938306636101  0.393165720806202  0.0607009260730962  1.0000
  C   C6        1.0  0.8937981171535012  0.6068353040549823  0.939299465487707  1.0000
  C   C7        1.0  0.9460366259340913  0.4092486842323737  0.11976748316615732  1.0000
  C   C8        1.0  0.05396087428577088  0.5907523406288036  0.8802329083946459  1.0000
  C   C9        1.0  0.9009249190307429  0.3165549237481216  0.25238435518035374  1.0000
  C   C10       1.0  0.09907343382386094  0.6834480021725611  0.7476149986127821  1.0000
  C   C11       1.0  0.6872735459502478  0.8654221707968901  0.5878263850466042  1.0000
  C   C12       1.0  0.3127263603147625  0.1345788540642872  0.41217196705893133  1.0000
  C   C13       1.0  0.6673473706210301  0.9941067898608439  0.5563921202968984  1.0000
  C   C14       1.0  0.33264875138234357  0.0058951855300933  0.4436049114116115  1.0000
  C   C15       1.0  0.5634504237689626  0.0384622359383329  0.6382813597381798  1.0000
  C   C16       1.0  0.4365494824960479  0.9615387889228444  0.36171699236735577  1.0000
  C   C17       1.0  0.4865421974913175  0.9527929646625496  0.7518005362056571  1.0000
  C   C18       1.0  0.5134614930353222  0.0472071096688822  0.24819834164965474  1.0000
  C   C19       1.0  0.513805913403452  0.8247071793431857  0.7757724871579939  1.0000
  C   C20       1.0  0.4861967492945282  0.1752919444584862  0.22422861141585315  1.0000
  C   C21       1.0  0.3744910024174075  0.9959527186417888  0.8411201279402787  1.0000
  C   C22       1.0  0.6255126881092321  0.0040473556896359  0.15887954456228934  1.0000
  C   C23       1.0  0.2705684036608531  0.1114752778800963  0.798564716381918  1.0000
  C   C24       1.0  0.729434434231045  0.888522895391823  0.2014359938883102  1.0000
  C   C25       1.0  0.15999530397964887  0.1486780618952821  0.8840637481366328  1.0000
  C   C26       1.0  0.8400059805018428  0.8513220124361425  0.11593637452669003  1.0000
  C   C27       1.0  0.2510483642963663  0.9674254196851564  0.04803798381525576  1.0000
  C   C28       1.0  0.7489518923564731  0.0325737041165226  0.9519627702720896  1.0000
  C   C29       1.0  0.3654938262226962  0.9229197155752118  0.9685177935014125  1.0000
  C   C30       1.0  0.6345108921326028  0.0770813092859726  0.031482836871632  1.0000
  C   C31       1.0  0.03941725380029478  0.2652472287234247  0.8448565728548161  1.0000
  C   C32       1.0  0.9605817998299669  0.7347518950782472  0.15514281701839397  1.0000
  C   C33       1.0  0.047089492663935965  0.3568716432351877  0.7219134266177889  1.0000
  C   C34       1.0  0.9529105887949926  0.6431284310962369  0.2780853318313988  1.0000
  C   C35       1.0  0.9226603162738982  0.4581648463977217  0.6904187439928933  1.0000
  C   C36       1.0  0.07734131859542967  0.5418333268741975  0.3095806020632068  1.0000
  C   C37       1.0  0.7886704135650006  0.387990086299375  0.8932111472340125  1.0000
  C   C38       1.0  0.2113288152591792  0.6120080869725442  0.1067878543355861  1.0000
  C   C39       1.0  0.9084214050692336  0.2844260675561614  0.9319201267160864  1.0000
  C   C40       1.0  0.09157799894885701  0.7155711551860051  0.06808007584441352  1.0000
  C   C41       1.0  0.2298429613361107  0.8942812046374371  0.18423638370401124  1.0000
  C   C42       1.0  0.7701597013618766  0.1057179191642419  0.8157647148698288  1.0000
  C   C43       1.0  0.11470640227786075  0.9446317162005401  0.25886534614929957  1.0000
  C   C44       1.0  0.8852938543749784  0.05536740760113191  0.7411346132907893  1.0000
  C   C45       1.0  0.0952020275063247  0.8748818429019282  0.38589523997173103  1.0000
  C   C46       1.0  0.904799256975167  0.1251182314294965  0.6141040880443284  1.0000
  C   C47       1.0  0.29010055418105196  0.7103441920725047  0.37089996240497675  1.0000
  C   C48       1.0  0.7098995272778694  0.289655882258927  0.6291003853387238  1.0000
  C   C49       1.0  0.3198299344013761  0.7745562790282747  0.2429276314721065  1.0000
  C   C50       1.0  0.6801703222514631  0.2254428447733972  0.7570731226152319  1.0000
  N   N1        1.0  0.609821417552169  0.782699467424969  0.6948394219036443  1.0000
  N   N2        1.0  0.390179516541501  0.2173025079659681  0.3051575041306123  1.0000
  N   N3        1.0  0.150747298596805  0.0774824328418688  0.005822502714629287  1.0000
  N   N4        1.0  0.849252782862116  0.9225176414895558  0.9941786396763276  1.0000
  N   N5        1.0  0.7937611859701688  0.4728381741997225  0.7737757926889229  1.0000
  N   N6        1.0  0.2062390706826704  0.5271609496019494  0.22622416675116602  1.0000
  N   N7        1.0  0.18012494535966533  0.7593763188677585  0.4415980715428844  1.0000
  N   N8        1.0  0.8198751360992558  0.24062375546367323  0.5584006869063033  1.0000
  Cl  Cl1       1.0  0.6119031270014331  0.6360393801959816  0.522459061531208  1.0000
  Cl  Cl2       1.0  0.38809610182274656  0.3639587930759376  0.4775431186274163  1.0000
  O   O1        1.0  0.4195457198971439  0.3617450092804617  0.9095780107245872  1.0000
  O   O2        1.0  0.58045040210623  0.6382569661104753  0.09042299422021216  1.0000
  O   O3        1.0  0.397629307159491  0.5764592247281328  0.8309659105207315  1.0000
  O   O4        1.0  0.6023716269341718  0.4235427506627971  0.16903498874980719  1.0000
  O   O5        1.0  0.8463009401832977  0.375178846284129  0.32375191800211667  1.0000
  O   O6        1.0  0.15370222476160217  0.6248240796365607  0.6762465354695025  1.0000
  O   O7        1.0  0.9245997346769528  0.20001712440184602  0.2885409958799841  1.0000
  O   O8        1.0  0.0753950091099327  0.7999858015188438  0.7114590331542842  1.0000
