data_image0
_chemical_formula_structural       Zn4H40C56N8O16
_chemical_formula_sum              "Zn4 H40 C56 N8 O16"
_cell_length_a       7.464457651900547
_cell_length_b       13.36141577230016
_cell_length_c       16.373361453758378
_cell_angle_alpha    113.0266078507567
_cell_angle_beta     89.99456738988349
_cell_angle_gamma    106.22147500338885

_space_group_name_H-M_alt    "P 1"
_space_group_IT_number       1

loop_
  _space_group_symop_operation_xyz
  'x, y, z'

loop_
  _atom_site_type_symbol
  _atom_site_label
  _atom_site_symmetry_multiplicity
  _atom_site_fract_x
  _atom_site_fract_y
  _atom_site_fract_z
  _atom_site_occupancy
  Zn  Zn1       1.0  0.6220380974663373  0.6736327651003152  0.8231771204742772  1.0000
  Zn  Zn2       1.0  0.9480691993758941  0.32631105627719853  0.6767636990825708  1.0000
  Zn  Zn3       1.0  0.37796159634193327  0.32636889942146047  0.17682436847372432  1.0000
  Zn  Zn4       1.0  0.05192922343348988  0.6736880657878005  0.3232351333485256  1.0000
  H   H1        1.0  0.9620768183850787  0.48744299894047327  0.34977413550970493  1.0000
  H   H2        1.0  0.4743700527461598  0.5125322204648414  0.1501346841564484  1.0000
  H   H3        1.0  0.03792110598576675  0.5125578061659725  0.6502276856208767  1.0000
  H   H4        1.0  0.5256314791799073  0.4874677610098532  0.8498638160607117  1.0000
  H   H5        1.0  0.796976345574848  0.4727542602055834  0.2734544592428208  1.0000
  H   H6        1.0  0.32401091515399133  0.5272812730422275  0.22647048325709562  1.0000
  H   H7        1.0  0.20302023911673941  0.5272465449064827  0.7265473619191101  1.0000
  H   H8        1.0  0.6759883671717478  0.4727195678646654  0.7735276848715317  1.0000
  H   H9        1.0  0.4519728638689103  0.6869872631068218  0.5842727372958337  1.0000
  H   H10       1.0  0.764703385195489  0.3129401906862911  0.9156632358906125  1.0000
  H   H11       1.0  0.5480360794712312  0.31301950420342456  0.4157322380439581  1.0000
  H   H12       1.0  0.235293211679867  0.6870606382964939  0.08433614995757924  1.0000
  H   H13       1.0  0.5805241702294526  0.588917566150947  0.3130935697507625  1.0000
  H   H14       1.0  0.991339985342144  0.41102190824840085  0.18681961076490694  1.0000
  H   H15       1.0  0.4194732617947282  0.41108493393230117  0.6869100224224455  1.0000
  H   H16       1.0  0.008662883217233661  0.5889780672529951  0.8131794982493404  1.0000
  H   H17       1.0  0.9202079572724033  0.5567108680063271  0.5079246933569054  1.0000
  H   H18       1.0  0.3632029586108203  0.4433151989932044  0.9919654337735366  1.0000
  H   H19       1.0  0.07979045335321895  0.44328823018794583  0.49207657438791597  1.0000
  H   H20       1.0  0.6367941336571337  0.5566839409804488  0.008031572203599124  1.0000
  H   H21       1.0  0.7860795857054157  0.8184956543299439  0.018349667592666274  1.0000
  H   H22       1.0  0.9675848009874601  0.18148673849221814  0.4816448795967503  1.0000
  H   H23       1.0  0.213926018709067  0.18150175482709588  0.9816492201243675  1.0000
  H   H24       1.0  0.03241490195863881  0.8185149439325915  0.5183547828659486  1.0000
  H   H25       1.0  0.11308716346148637  0.9307833010179253  0.09747965008446614  1.0000
  H   H26       1.0  0.18224297533183892  0.0691658162824851  0.40255029638953493  1.0000
  H   H27       1.0  0.8869184470448774  0.06921412007447  0.9025180199757017  1.0000
  H   H28       1.0  0.8177549581768276  0.9308350067269943  0.5974496982557441  1.0000
  H   H29       1.0  0.29150475888486244  0.8976980708432479  0.8390979306612536  1.0000
  H   H30       1.0  0.39322102737101977  0.1019717296550269  0.660898160444532  1.0000
  H   H31       1.0  0.7084962959242561  0.10230363544665273  0.16089929645636403  1.0000
  H   H32       1.0  0.6067800747968661  0.8980273923987171  0.3391006719238663  1.0000
  H   H33       1.0  0.9636638919977686  0.787719893459787  0.7728562152588838  1.0000
  H   H34       1.0  0.17551126159687414  0.21209942527745806  0.7271410772011111  1.0000
  H   H35       1.0  0.03633532773949362  0.21228350184486544  0.22714339176113194  1.0000
  H   H36       1.0  0.8244889276040015  0.7879005502351859  0.2728580318758347  1.0000
  H   H37       1.0  0.43736662274182697  0.018392028223360106  0.09319194679649462  1.0000
  H   H38       1.0  0.4185640229516849  0.9813263266278582  0.40680580115211035  1.0000
  H   H39       1.0  0.5626376007265109  0.9816079771108122  0.9068041180442351  1.0000
  H   H40       1.0  0.5814334929825621  0.018673660831389303  0.5931920903306606  1.0000
  C   C1        1.0  0.6901150887621698  0.6226177387814431  0.5551977846930357  1.0000
  C   C2        1.0  0.0672348616526293  0.377392315169196  0.9447292828260744  1.0000
  C   C3        1.0  0.30988326232090907  0.3773839197782677  0.4448043131147514  1.0000
  C   C4        1.0  0.9327636206992909  0.6226042465303651  0.055268719542063104  1.0000
  C   C5        1.0  0.5389782947953564  0.653849895136176  0.5335130462304889  1.0000
  C   C6        1.0  0.8848696384092847  0.34609477283579093  0.9664074513711258  1.0000
  C   C7        1.0  0.46102444249518737  0.34615517722537  0.46649015822341516  1.0000
  C   C8        1.0  0.11512878135415863  0.6539043432615232  0.03359198988840016  1.0000
  C   C9        1.0  0.4973650234020895  0.6403980005637068  0.4458148956218438  1.0000
  C   C10       1.0  0.8566535233644645  0.3595363005679318  0.05411301323360364  1.0000
  C   C11       1.0  0.5026355116469007  0.3596053469938882  0.554189581994301  1.0000
  C   C12       1.0  0.14334489944491932  0.6404628214970671  0.9458858191974856  1.0000
  C   C13       1.0  0.6073466162524003  0.5956522847886989  0.3805895213885365  1.0000
  C   C14       1.0  0.011409821477272496  0.404299998893791  0.11932072184468726  1.0000
  C   C15       1.0  0.39265173483068594  0.4043493737710194  0.6194125764192435  1.0000
  C   C16       1.0  0.9885890875868881  0.5956974162590356  0.8806775572006487  1.0000
  C   C17       1.0  0.7586074379214623  0.5644403898049363  0.40204140666163113  1.0000
  C   C18       1.0  0.19388858217864427  0.4356070051978592  0.09788498704696744  1.0000
  C   C19       1.0  0.241394932199377  0.4355612687379066  0.5979606910521085  1.0000
  C   C20       1.0  0.8061098436766799  0.5643921228348106  0.9021132365556854  1.0000
  C   C21       1.0  0.8007248675375752  0.5783914516463116  0.48947506184518375  1.0000
  C   C22       1.0  0.2220477353584869  0.4216309101423689  0.010440445862990033  1.0000
  C   C23       1.0  0.19927347136174234  0.4216101830426878  0.5105294712763353  1.0000
  C   C24       1.0  0.777950266830537  0.5783673704047132  0.9895568922340277  1.0000
  C   C25       1.0  0.7307470122399168  0.632203103701059  0.6481452357339849  1.0000
  C   C26       1.0  0.09820564092625976  0.3677681905441049  0.8517731848715473  1.0000
  C   C27       1.0  0.2692535914894308  0.3677977013941387  0.3518565853339056  1.0000
  C   C28       1.0  0.9017879689634256  0.6322266642657796  0.14822426423622662  1.0000
  C   C29       1.0  0.3342081918366944  0.6721861925590106  0.422000170214183  1.0000
  C   C30       1.0  0.6616510535101199  0.32772803669261924  0.07795355523429494  1.0000
  C   C31       1.0  0.6657910065789778  0.3278171609718897  0.5780036986048744  1.0000
  C   C32       1.0  0.33834822272373805  0.6722727922789177  0.9220458305512055  1.0000
  C   C33       1.0  0.9036166317638605  0.8406809936188467  0.982745690855268  1.0000
  C   C34       1.0  0.06275133512447441  0.1592101497433802  0.5172518217418941  1.0000
  C   C35       1.0  0.09638854593838182  0.1593155620849132  0.017252920184560618  1.0000
  C   C36       1.0  0.9372483678216242  0.8407915326814219  0.48274784072080484  1.0000
  C   C37       1.0  0.08516257640327744  0.9023436512631233  0.02537911745019263  1.0000
  C   C38       1.0  0.1825323728058876  0.09747907970761821  0.4746300084686866  1.0000
  C   C39       1.0  0.9148466233826654  0.09765291039145299  0.9746188846671658  1.0000
  C   C40       1.0  0.8174638034491085  0.90252090775725  0.5253678830454335  1.0000
  C   C41       1.0  0.2327000958528132  0.9258569893731521  0.9756902278731591  1.0000
  C   C42       1.0  0.3064414281827297  0.0739126019641247  0.5243231006496459  1.0000
  C   C43       1.0  0.7673032680991626  0.0741412971191124  0.0243065012700399  1.0000
  C   C44       1.0  0.6935560786136961  0.9260873675920819  0.47567661731842753  1.0000
  C   C45       1.0  0.18567730869506258  0.8851372732043573  0.8828160303935988  1.0000
  C   C46       1.0  0.3000941984426291  0.11462743333332533  0.6171956691646159  1.0000
  C   C47       1.0  0.8143228865976939  0.11486271424364251  0.11718186102648083  1.0000
  C   C48       1.0  0.6999059877123059  0.8853725362116336  0.38280404874076623  1.0000
  C   C49       1.0  0.002038067677453741  0.824281185631172  0.8448753460506142  1.0000
  C   C50       1.0  0.17736884086198768  0.17555436626079776  0.6551220982117343  1.0000
  C   C51       1.0  0.9979638940067873  0.17571965526448  0.1551228220153149  1.0000
  C   C52       1.0  0.8226313483388878  0.824445609251839  0.34487701086521133  1.0000
  C   C53       1.0  0.42302418715056717  0.9885386775068101  0.0204689639597576  1.0000
  C   C54       1.0  0.4342384634949426  0.011303649510225002  0.4795457369854931  1.0000
  C   C55       1.0  0.5769778936187535  0.011457042657973204  0.979527543980261  1.0000
  C   C56       1.0  0.5657599623603816  0.9886954785224521  0.5204524866171598  1.0000
  N   N1        1.0  0.8760955584217458  0.5278960369607903  0.3344402006071122  1.0000
  N   N2        1.0  0.34791224828411776  0.47211605045880833  0.16547181659938562  1.0000
  N   N3        1.0  0.12390279570727374  0.47210562756659896  0.6655612883722386  1.0000
  N   N4        1.0  0.6520879439626982  0.5278839310215133  0.8345266836491236  1.0000
  N   N5        1.0  0.862062120110409  0.801453747130623  0.8934328614867157  1.0000
  N   N6        1.0  0.06037555789665562  0.1984572816869417  0.6065647369086804  1.0000
  N   N7        1.0  0.13794165837003902  0.1985453689442025  0.10656657964742071  1.0000
  N   N8        1.0  0.939625970983471  0.8015426938200747  0.3934343721369231  1.0000
  O   O1        1.0  0.6263876843491547  0.6793148400121892  0.7050261783109947  1.0000
  O   O2        1.0  0.9466973217266742  0.32066568533853274  0.7949246426338663  1.0000
  O   O3        1.0  0.3736151185758062  0.3206876839192816  0.2949749784230847  1.0000
  O   O4        1.0  0.053293605758561596  0.6793291635149146  0.20507341536503532  1.0000
  O   O5        1.0  0.8572638815129496  0.5966207383810699  0.6670484201869941  1.0000
  O   O6        1.0  0.2603123728501516  0.40327516552499537  0.8328318691337842  1.0000
  O   O7        1.0  0.14273140781222085  0.40337747653278194  0.33295561508549554  1.0000
  O   O8        1.0  0.7396822125950282  0.5967162814282433  0.16716386437403946  1.0000
  O   O9        1.0  0.3045599482794118  0.6572970634148165  0.3386364071365053  1.0000
  O   O10       1.0  0.6468923571542222  0.3427019099096712  0.16133905231810536  1.0000
  O   O11       1.0  0.6954393066328635  0.34270372378296815  0.66136724044803  1.0000
  O   O12       1.0  0.35310643282485904  0.657300625974024  0.8386608868531413  1.0000
  O   O13       1.0  0.23169490558988312  0.7099821040644656  0.4793911243621594  1.0000
  O   O14       1.0  0.5213699222700969  0.28988961799369417  0.020554171232888125  1.0000
  O   O15       1.0  0.7683052057928067  0.29002039600754165  0.5206124677483503  1.0000
  O   O16       1.0  0.4786306371464236  0.7101137773053312  0.9794454357557854  1.0000
