data_image0
_chemical_formula_structural       Mn4H16C32N32
_chemical_formula_sum              "Mn4 H16 C32 N32"
_cell_length_a       7.3090023114355835
_cell_length_b       8.808183783188253
_cell_length_c       16.62385234930008
_cell_angle_alpha    90.00138966206451
_cell_angle_beta     89.99967411988875
_cell_angle_gamma    89.84894059271426

_space_group_name_H-M_alt    "P 1"
_space_group_IT_number       1

loop_
  _space_group_symop_operation_xyz
  'x, y, z'

loop_
  _atom_site_type_symbol
  _atom_site_label
  _atom_site_symmetry_multiplicity
  _atom_site_fract_x
  _atom_site_fract_y
  _atom_site_fract_z
  _atom_site_occupancy
  Mn  Mn1       1.0  0.7371212573589006  0.8749664885204141  0.8659784644356634  1.0000
  Mn  Mn2       1.0  0.2371416379520568  0.37476472333087685  0.6340452772780267  1.0000
  Mn  Mn3       1.0  0.2628595318482709  0.12503266118459072  0.13401694723570756  1.0000
  Mn  Mn4       1.0  0.7628626257205511  0.6250493396602225  0.3659964521653976  1.0000
  H   H1        1.0  0.0641474340899819  0.6832714339527257  0.9404728305797221  1.0000
  H   H2        1.0  0.5641530316989928  0.18343748187709255  0.5594033084368276  1.0000
  H   H3        1.0  0.9358936892723548  0.316612964050286  0.059435957761046196  1.0000
  H   H4        1.0  0.435827539646148  0.8167489922828468  0.4405169112745284  1.0000
  H   H5        1.0  0.40888894724201913  0.6794038736720368  0.9393384688056441  1.0000
  H   H6        1.0  0.9088561231360899  0.17965403857466816  0.5604880478057409  1.0000
  H   H7        1.0  0.5911618078910336  0.32043396247725303  0.060532421871947385  1.0000
  H   H8        1.0  0.09108743486822139  0.8205949277629475  0.4393864549099291  1.0000
  H   H9        1.0  0.41183316961070904  0.046568501076059504  0.7823750034338914  1.0000
  H   H10       1.0  0.9118095075436939  0.54657499855162  0.717606203742676  1.0000
  H   H11       1.0  0.588205031487682  0.9534748463129292  0.2176282285387643  1.0000
  H   H12       1.0  0.08816170833839009  0.45342075861265846  0.28239462182629177  1.0000
  H   H13       1.0  0.0658943412579021  0.04706692855525321  0.780865553563956  1.0000
  H   H14       1.0  0.5659062159294805  0.5470870698027143  0.7191153081570363  1.0000
  H   H15       1.0  0.9341466478650203  0.9529321377665028  0.2191298580328223  1.0000
  H   H16       1.0  0.43410873677773043  0.45294722704470314  0.28087589288052317  1.0000
  C   C1        1.0  0.7786770140972123  0.24328861416968559  0.8896445710042258  1.0000
  C   C2        1.0  0.2785922602285567  0.7431801786029271  0.6104483639724663  1.0000
  C   C3        1.0  0.22134756309215933  0.7567047996958183  0.1104097920144582  1.0000
  C   C4        1.0  0.7213215947475008  0.25672710594874804  0.38963908362120486  1.0000
  C   C5        1.0  0.7767523659936799  0.5047514679987302  0.881287777063811  1.0000
  C   C6        1.0  0.2766632681834266  0.0047444240677805  0.6187124760113318  1.0000
  C   C7        1.0  0.22327498245167018  0.4952124223262474  0.11869319723749071  1.0000
  C   C8        1.0  0.7232709948506725  0.9952616023315246  0.3813003805746078  1.0000
  C   C9        1.0  0.7103689312248208  0.7543320948250953  0.0460059323192112  1.0000
  C   C10       1.0  0.20974326435433  0.2542480913853282  0.4539575205480162  1.0000
  C   C11       1.0  0.2902698123510277  0.24578648582909327  0.9539720344947185  1.0000
  C   C12       1.0  0.7896219790433534  0.745636108910766  0.546013829332658  1.0000
  C   C13       1.0  0.7241974494586286  0.6300982620996862  0.168621102414825  1.0000
  C   C14       1.0  0.223974520390513  0.12980826177538773  0.3315476540328817  1.0000
  C   C15       1.0  0.27600468326902217  0.37015830020283863  0.8315565788550856  1.0000
  C   C16       1.0  0.7758040655857883  0.8699436746052528  0.6686143843471086  1.0000
  C   C17       1.0  0.1415688229519603  0.7641891962797802  0.9046151393983948  1.0000
  C   C18       1.0  0.641565795501819  0.26430467934262225  0.5953081648176806  1.0000
  C   C19       1.0  0.858475000898366  0.23572585179179137  0.0953147032204313  1.0000
  C   C20       1.0  0.3584093703255178  0.7358239025862618  0.4046559673351666  1.0000
  C   C21       1.0  0.3320053408120457  0.7631307095443989  0.9047827294599385  1.0000
  C   C22       1.0  0.8319995079525951  0.26330749480377597  0.5951124219233037  1.0000
  C   C23       1.0  0.6680357878838806  0.23674914707969924  0.09512004339887167  1.0000
  C   C24       1.0  0.16798380885229847  0.7368710289610622  0.4048324610904217  1.0000
  C   C25       1.0  0.33326806510419976  0.965593315708134  0.8178168187652091  1.0000
  C   C26       1.0  0.8332626717344381  0.46557882199844874  0.6821615300736568  1.0000
  C   C27       1.0  0.6667756578396435  0.034408017070859415  0.18216235112002718  1.0000
  C   C28       1.0  0.16671814255345646  0.534398757033934  0.317843506184019  1.0000
  C   C29       1.0  0.1427284637501387  0.9658844644840627  0.8171138486097291  1.0000
  C   C30       1.0  0.6427230649611175  0.46586659729423036  0.6828715897712525  1.0000
  C   C31       1.0  0.8573152763619873  0.0341021093867582  0.1828707350884784  1.0000
  C   C32       1.0  0.35725363158499596  0.5341223404147828  0.3171286342019997  1.0000
  N   N1        1.0  0.7401184881694718  0.11589313770657844  0.8764452970042241  1.0000
  N   N2        1.0  0.24020184698223804  0.6157828070124512  0.6237495657429264  1.0000
  N   N3        1.0  0.2597884092476406  0.8841140643081291  0.12367222850252091  1.0000
  N   N4        1.0  0.7598843981300263  0.3841242405972381  0.3764178871600592  1.0000
  N   N5        1.0  0.8324763367939169  0.37711284002912043  0.9103679958744877  1.0000
  N   N6        1.0  0.33226732369606543  0.8770297366305544  0.5896994525678494  1.0000
  N   N7        1.0  0.1676549468530553  0.6228906426519175  0.08963583727349089  1.0000
  N   N8        1.0  0.6675425100331083  0.12291175081045225  0.4103687459238472  1.0000
  N   N9        1.0  0.7378866870493185  0.6279948271214908  0.8589231609110326  1.0000
  N   N10       1.0  0.23792992920266443  0.12805447287038874  0.6410029728165725  1.0000
  N   N11       1.0  0.2620599879675183  0.37192716777592955  0.1410247282303843  1.0000
  N   N12       1.0  0.7621205633927275  0.8720081564376373  0.3589437140077223  1.0000
  N   N13       1.0  0.738151195172236  0.8439774997261085  0.9944881884841764  1.0000
  N   N14       1.0  0.23758855631795225  0.34421340660300365  0.5052909296826371  1.0000
  N   N15       1.0  0.2624537421743867  0.15580053093704294  0.0053020940601911  1.0000
  N   N16       1.0  0.7618009449879963  0.6559886422083921  0.49449634934769887  1.0000
  N   N17       1.0  0.666611919456912  0.6483730786979224  0.09596725237629758  1.0000
  N   N18       1.0  0.1658477119012218  0.14798612012519646  0.40414894403007645  1.0000
  N   N19       1.0  0.3341482695238653  0.3520212171941709  0.9041641101026769  1.0000
  N   N20       1.0  0.8334138929535228  0.8516030468481618  0.5959661734107016  1.0000
  N   N21       1.0  0.7669108529646635  0.6013230087466682  0.23545254665007317  1.0000
  N   N22       1.0  0.26720992281676814  0.10117113188793071  0.26477288296571533  1.0000
  N   N23       1.0  0.2327920829852417  0.3987718971436537  0.764779273273767  1.0000
  N   N24       1.0  0.7330582661375759  0.8987561001721432  0.7354342718315863  1.0000
  N   N25       1.0  0.0471823266345197  0.865396564099797  0.8607921269375467  1.0000
  N   N26       1.0  0.5471417601551494  0.3655277344757694  0.6391146603639868  1.0000
  N   N27       1.0  0.9528628348055221  0.13454459473607733  0.1391605745677822  1.0000
  N   N28       1.0  0.45277592779463294  0.6346134146432761  0.36081398076828464  1.0000
  N   N29       1.0  0.42744821505218056  0.8641727957419222  0.861640431659346  1.0000
  N   N30       1.0  0.9274719194725805  0.3643424380586568  0.638241342647312  1.0000
  N   N31       1.0  0.572599677537994  0.13577290025447308  0.13829963742070817  1.0000
  N   N32       1.0  0.07256203207526109  0.6358257971888792  0.3616770722456479  1.0000
