data_image0
_chemical_formula_structural       Bi2H32C30S4I4N6O2
_chemical_formula_sum              "Bi2 H32 C30 S4 I4 N6 O2"
_cell_length_a       8.769353352674127
_cell_length_b       9.466407191288695
_cell_length_c       12.518987382692135
_cell_angle_alpha    84.33829708259515
_cell_angle_beta     87.95949924016232
_cell_angle_gamma    84.37963095381235

_space_group_name_H-M_alt    "P 1"
_space_group_IT_number       1

loop_
  _space_group_symop_operation_xyz
  'x, y, z'

loop_
  _atom_site_type_symbol
  _atom_site_label
  _atom_site_symmetry_multiplicity
  _atom_site_fract_x
  _atom_site_fract_y
  _atom_site_fract_z
  _atom_site_occupancy
  Bi  Bi1       1.0  0.5238829973223035  0.5369600389681182  0.8106091168393162  1.0000
  Bi  Bi2       1.0  0.47611769406744037  0.46303802477572037  0.18939029389846232  1.0000
  H   H1        1.0  0.8092848268019921  0.010042066598551  0.5629037286666757  1.0000
  H   H2        1.0  0.1907158645877587  0.9899559971452875  0.43709568207110283  1.0000
  H   H3        1.0  0.6296944533854187  0.9538310490284729  0.5292926413871442  1.0000
  H   H4        1.0  0.370304985620507  0.046168078493202806  0.4707067227997611  1.0000
  H   H5        1.0  0.7299844134725292  0.8976203739890136  0.35108072936331775  1.0000
  H   H6        1.0  0.2700151371321411  0.10237768717394148  0.6489187127467059  1.0000
  H   H7        1.0  0.7709661178380359  0.07458139954313481  0.3710512711045623  1.0000
  H   H8        1.0  0.2290335480982293  0.925415596814723  0.6289490475007327  1.0000
  H   H9        1.0  0.1196654119962517  0.7554645206912409  0.3931635907010004  1.0000
  H   H10       1.0  0.8803341498069417  0.24453354513256906  0.606838247125495  1.0000
  H   H11       1.0  0.9330110603039187  0.7130409589725842  0.36184305648345827  1.0000
  H   H12       1.0  0.066989642284355  0.2869571094321088  0.6381587499707848  1.0000
  H   H13       1.0  0.9815059959005836  0.6250575033697601  0.5493568499802847  1.0000
  H   H14       1.0  0.018494702954846797  0.3749405634813172  0.45064415790180573  1.0000
  H   H15       1.0  0.04147561198411149  0.7911918363767684  0.5778274000395596  1.0000
  H   H16       1.0  0.9585239460862383  0.20880622789342607  0.42217363921476897  1.0000
  H   H17       1.0  0.4246728253114327  0.8545494010805894  0.9027616426374506  1.0000
  H   H18       1.0  0.5753274234161552  0.14545292965173223  0.09723825498002008  1.0000
  H   H19       1.0  0.2269038143558788  0.057964389531917994  0.9070068011141073  1.0000
  H   H20       1.0  0.7730954014525437  0.9420368707071914  0.09299240722656779  1.0000
  H   H21       1.0  0.9040690909527384  0.7835083898878566  0.8022814419094569  1.0000
  H   H22       1.0  0.09593125817508509  0.21649286982489718  0.19771613791465364  1.0000
  H   H23       1.0  0.11867655193778148  0.5949591607180054  0.7971428543278588  1.0000
  H   H24       1.0  0.8813250570395469  0.4050410383241498  0.20285636919143707  1.0000
  H   H25       1.0  0.861743040350646  0.4090321001566721  0.9052075874455451  1.0000
  H   H26       1.0  0.1382561642592535  0.5909691554215755  0.09478922517865836  1.0000
  H   H27       1.0  0.0672804399956988  0.2136416985592433  0.9087244242125292  1.0000
  H   H28       1.0  0.9327199091321178  0.7863595611535102  0.09127315561158157  1.0000
  H   H29       1.0  0.7380637204083057  0.9493671372639909  0.797958986926126  1.0000
  H   H30       1.0  0.2619357260632924  0.05063199336491659  0.20204197440509822  1.0000
  H   H31       1.0  0.5486034391668542  0.1613522325176717  0.7937553627540764  1.0000
  H   H32       1.0  0.4513958994388362  0.8386479660235721  0.20624631922618863  1.0000
  C   C1        1.0  0.7235057498514337  0.7165841798471957  0.6343517203919191  1.0000
  C   C2        1.0  0.2764934771555119  0.28341708505276125  0.36564988366522744  1.0000
  C   C3        1.0  0.754259621903877  0.9365209902880451  0.5171468557761398  1.0000
  C   C4        1.0  0.24573982083488488  0.0634781387872465  0.48285330698292467  1.0000
  C   C5        1.0  0.7967361010589685  0.9612036833201713  0.3983915484295436  1.0000
  C   C6        1.0  0.2032635648772967  0.038793313037693594  0.6016087701757441  1.0000
  C   C7        1.0  0.9964571168105534  0.7779275767484819  0.4102076424494569  1.0000
  C   C8        1.0  0.003542325928208409  0.22207155232680972  0.5897925203096079  1.0000
  C   C9        1.0  0.9636699387665291  0.7407942847666361  0.5293152742318481  1.0000
  C   C10       1.0  0.03633064849015001  0.2592048484431544  0.47068565572712356  1.0000
  C   C11       1.0  0.307574880176503  0.8445707409483562  0.8796428504178874  1.0000
  C   C12       1.0  0.6924253685510848  0.1554315897839658  0.12035704719958318  1.0000
  C   C13       1.0  0.19502381976404587  0.957913111116696  0.8822335047660627  1.0000
  C   C14       1.0  0.8049753923115333  0.04208814756879061  0.11776490500245267  1.0000
  C   C15       1.0  0.04499158102395026  0.9412466038285461  0.8531745134234396  1.0000
  C   C16       1.0  0.9550075194528774  0.05875572121566109  0.14682381842196424  1.0000
  C   C17       1.0  0.017322250443825692  0.8068146642258612  0.823992154625223  1.0000
  C   C18       1.0  0.9826782102827424  0.19318552912817916  0.17600550312200616  1.0000
  C   C19       1.0  0.13700581010440524  0.6991419602416329  0.8221324058793085  1.0000
  C   C20       1.0  0.8629957988729301  0.30085823880051527  0.17786681763998757  1.0000
  C   C21       1.0  0.8397971798668564  0.3054149549103258  0.8808250873826038  1.0000
  C   C22       1.0  0.16020419844728911  0.6945873737420242  0.11917238314615014  1.0000
  C   C23       1.0  0.9546315015369373  0.1937482850766585  0.883121914369404  1.0000
  C   C24       1.0  0.045367710538641894  0.8062529736088351  0.11687649539911148  1.0000
  C   C25       1.0  0.9234086598006924  0.060940418355230015  0.8529124596716925  1.0000
  C   C26       1.0  0.07659044814181473  0.9390619097962087  0.14708746931802344  1.0000
  C   C27       1.0  0.7730812727241984  0.0485551025409805  0.8221313706366187  1.0000
  C   C28       1.0  0.22691795428274725  0.9514461623589769  0.1778702334205277  1.0000
  C   C29       1.0  0.6651086721487617  0.1666101611737929  0.8201939641357183  1.0000
  C   C30       1.0  0.3348916919104212  0.8333911047534315  0.17980680997702334  1.0000
  S   S1        1.0  0.7927510918392215  0.5491498734068685  0.6872440847689417  1.0000
  S   S2        1.0  0.20724928341848436  0.45085139718121076  0.3127590850602715  1.0000
  S   S3        1.0  0.5487513734562623  0.7895966412830476  0.680127431445463  1.0000
  S   S4        1.0  0.4512469322302549  0.210402486764977  0.31987356125800653  1.0000
  I   I1        1.0  0.6833607192490164  0.658487150318912  0.006502083471296807  1.0000
  I   I2        1.0  0.3166395369442583  0.3415151835206487  0.9934994112904857  1.0000
  I   I3        1.0  0.3640868129121698  0.4200891615011315  0.6412259830571326  1.0000
  I   I4        1.0  0.6359080704191201  0.5799099588042509  0.3587751037630794  1.0000
  N   N1        1.0  0.8054631157998529  0.7902134688987417  0.5593664969008572  1.0000
  N   N2        1.0  0.194537471456826  0.2097856643110489  0.4406344330581149  1.0000
  N   N3        1.0  0.28028494238722607  0.7173631115917373  0.8489853372979466  1.0000
  N   N4        1.0  0.7197155258050216  0.2826370848695348  0.15101391759359464  1.0000
  N   N5        1.0  0.6974076191133206  0.29340810825192426  0.8486935989498928  1.0000
  N   N6        1.0  0.3025914813635069  0.7065942167922826  0.1513047328955111  1.0000
  O   O1        1.0  0.9569722632537603  0.9261799414157964  0.3788397486858058  1.0000
  O   O2        1.0  0.0430274026824975  0.0738170549420616  0.621160569919489  1.0000
