data_image0
_chemical_formula_structural       Cd2H20C24N8O18
_chemical_formula_sum              "Cd2 H20 C24 N8 O18"
_cell_length_a       7.9447518780839745
_cell_length_b       10.146591545690324
_cell_length_c       10.280950512875439
_cell_angle_alpha    107.46000379313362
_cell_angle_beta     90.65477365588
_cell_angle_gamma    114.01308712915703

_space_group_name_H-M_alt    "P 1"
_space_group_IT_number       1

loop_
  _space_group_symop_operation_xyz
  'x, y, z'

loop_
  _atom_site_type_symbol
  _atom_site_label
  _atom_site_symmetry_multiplicity
  _atom_site_fract_x
  _atom_site_fract_y
  _atom_site_fract_z
  _atom_site_occupancy
  Cd  Cd1       1.0  0.323635619866387  0.06160875600721743  0.4368331939086616  1.0000
  Cd  Cd2       1.0  0.6763626687108726  0.9383913317198987  0.5631664506559346  1.0000
  H   H1        1.0  0.5269117248055721  0.1798272577506879  0.1462823622235163  1.0000
  H   H2        1.0  0.47309168854351913  0.8201705803564822  0.8537176610299257  1.0000
  H   H3        1.0  0.3572511076974933  0.2105418745262426  0.7305408179326065  1.0000
  H   H4        1.0  0.6427496839359179  0.7894582271807312  0.26946178204097765  1.0000
  H   H5        1.0  0.17360401384677  0.045789508701645304  0.6919668994707493  1.0000
  H   H6        1.0  0.8263980482893344  0.9542106016667731  0.3080347472287103  1.0000
  H   H7        1.0  0.5285732104087374  0.9435235993460939  0.2585424187480074  1.0000
  H   H8        1.0  0.4714281875056514  0.05647764815586242  0.7414585810872936  1.0000
  H   H9        1.0  0.33029902210493134  0.8851960073709437  0.16963385044599033  1.0000
  H   H10       1.0  0.6697042374134481  0.11480639325024106  0.8303665407597906  1.0000
  H   H11       1.0  0.9914242647125137  0.08145780291050642  0.910157351686401  1.0000
  H   H12       1.0  0.008578492004716054  0.9185411729988007  0.08984105231143502  1.0000
  H   H13       1.0  0.14975056680223978  0.5456811575069054  0.05158551568462855  1.0000
  H   H14       1.0  0.8502502627804205  0.4543189475431078  0.9484122223317186  1.0000
  H   H15       1.0  0.30405538424151507  0.5133710355216153  0.43124500432985974  1.0000
  H   H16       1.0  0.6959484967375502  0.4866325122317646  0.5687518419547501  1.0000
  H   H17       1.0  0.8472065897711047  0.5897888648891155  0.2972239253336539  1.0000
  H   H18       1.0  0.15278929163998353  0.410208929272649  0.7027701488671739  1.0000
  H   H19       1.0  0.78867376880158  0.12843996790519446  0.21070869878933252  1.0000
  H   H20       1.0  0.2113295638372321  0.8715601511246761  0.7892919946360023  1.0000
  C   C1        1.0  0.20391092879710024  0.7388352471509309  0.41943187363727225  1.0000
  C   C2        1.0  0.7960866955584435  0.2611659777097231  0.5805671240631654  1.0000
  C   C3        1.0  0.08827390407284237  0.5686848061913211  0.3667802286579375  1.0000
  C   C4        1.0  0.9117270213998053  0.43131301927319754  0.6332148944036292  1.0000
  C   C5        1.0  0.1309145090866792  0.20470837302000436  0.3452267223201346  1.0000
  C   C6        1.0  0.8690843478223089  0.795292857159062  0.6547761840634081  1.0000
  C   C7        1.0  0.05274890543792312  0.31021113771964803  0.32551221582615864  1.0000
  C   C8        1.0  0.9472531794677366  0.6897889746545972  0.6744865136989588  1.0000
  C   C9        1.0  0.1620000184420789  0.4686905635278438  0.37977540738713605  1.0000
  C   C10       1.0  0.8380026575648644  0.531310693304178  0.6202236667825929  1.0000
  C   C11       1.0  0.9051828124565019  0.5112820279360619  0.30356497641532343  1.0000
  C   C12       1.0  0.0948155720107379  0.48871578020555967  0.696432053194485  1.0000
  C   C13       1.0  0.7970003537102529  0.3530366821700568  0.24889267705265186  1.0000
  C   C14       1.0  0.20299684096456627  0.6469588363874125  0.7511046356593882  1.0000
  C   C15       1.0  0.387688789632911  0.357415769998383  0.10917925346328167  1.0000
  C   C16       1.0  0.6123082284416483  0.6425843090672815  0.8908213443754393  1.0000
  C   C17       1.0  0.2501253463370716  0.2023065750033909  0.03485071484819003  1.0000
  C   C18       1.0  0.7498749121357803  0.7976900993172863  0.9651537874832246  1.0000
  C   C19       1.0  0.0419010864003511  0.30826785259360184  0.9780834178021182  1.0000
  C   C20       1.0  0.9580997204127542  0.6917322504505851  0.021917237388571313  1.0000
  C   C21       1.0  0.35314222377451904  0.48819217441896984  0.10834639960397406  1.0000
  C   C22       1.0  0.6468589168293307  0.511815914513882  0.8916585555298939  1.0000
  C   C23       1.0  0.8706743068657375  0.2514636997377267  0.2573100336035879  1.0000
  C   C24       1.0  0.12932903336292154  0.7485364199607503  0.7426896874302997  1.0000
  N   N1        1.0  0.6128460063039609  0.29626722970745334  0.18281712304258957  1.0000
  N   N2        1.0  0.38715239334297985  0.7037305797713813  0.8171779617843242  1.0000
  N   N3        1.0  0.5545341148916164  0.3946452451719935  0.172006001940268  1.0000
  N   N4        1.0  0.4454649186176383  0.6053514244988848  0.8279936193165939  1.0000
  N   N5        1.0  0.086720822835666  0.18917938711112475  0.9697286185081353  1.0000
  N   N6        1.0  0.9132773622617589  0.8108229795328725  0.030274613402689072  1.0000
  N   N7        1.0  0.1782145443989975  0.4524340741264227  0.04457405839438177  1.0000
  N   N8        1.0  0.821784415989825  0.5475648771357627  0.9554252606429333  1.0000
  O   O1        1.0  0.1237263941673063  0.8208686005489483  0.4036293316957327  1.0000
  O   O2        1.0  0.8762726041707722  0.17913035405626945  0.5963651253843523  1.0000
  O   O3        1.0  0.3712356891808995  0.7887983807465776  0.4731436473716856  1.0000
  O   O4        1.0  0.6287612833545566  0.21120169430744806  0.5268627848157125  1.0000
  O   O5        1.0  0.03949239909234589  0.05965581978932729  0.2886442601404866  1.0000
  O   O6        1.0  0.9605114135780681  0.9403477219465947  0.7113613376671354  1.0000
  O   O7        1.0  0.8859637731455976  0.2876325828609653  0.9273337117748852  1.0000
  O   O8        1.0  0.11403831176006923  0.7123675295132729  0.07266501775023222  1.0000
  O   O9        1.0  0.46563282888806157  0.6245756951531477  0.15823747323788245  1.0000
  O   O10       1.0  0.5343606805280386  0.37541752050892546  0.8417561947759538  1.0000
  O   O11       1.0  0.30384703021347553  0.100740678568684  0.6743183622830031  1.0000
  O   O12       1.0  0.6961568783469119  0.8992605835817431  0.3256846205698381  1.0000
  O   O13       1.0  0.4359459375085495  0.9773984861754389  0.23142546078674553  1.0000
  O   O14       1.0  0.5640573144199833  0.0226039137771394  0.7685759028104826  1.0000
  O   O15       1.0  0.2900810842470492  0.26543167381686333  0.41974152620731797  1.0000
  O   O16       1.0  0.709922781552315  0.7345718725993038  0.5802572648601796  1.0000
  O   O17       1.0  0.27422468533194433  0.08650376715768003  0.0266420967849541  1.0000
  O   O18       1.0  0.7257699179865965  0.9134940176740328  0.9733539030814384  1.0000
