data_image0
_chemical_formula_structural       U4H4C16N4O26
_chemical_formula_sum              "U4 H4 C16 N4 O26"
_cell_length_a       5.7214328704546125
_cell_length_b       6.673721910245739
_cell_length_c       19.70650354121072
_cell_angle_alpha    89.99604153109284
_cell_angle_beta     90.00142852298416
_cell_angle_gamma    99.3379829084496

_space_group_name_H-M_alt    "P 1"
_space_group_IT_number       1

loop_
  _space_group_symop_operation_xyz
  'x, y, z'

loop_
  _atom_site_type_symbol
  _atom_site_label
  _atom_site_symmetry_multiplicity
  _atom_site_fract_x
  _atom_site_fract_y
  _atom_site_fract_z
  _atom_site_occupancy
  U   U1        1.0  0.4999926489580987  0.9999922308470631  0.49999660813843855  1.0000
  U   U2        1.0  0.5000079186187635  1.0394984961694533e-05  3.333146658200001e-06  1.0000
  U   U3        1.0  0.2852689523754748  0.38428944558089023  0.2500008016489089  1.0000
  U   U4        1.0  0.7147219516946495  0.6157162569296517  0.7500000649195755  1.0000
  H   H1        1.0  0.77562638661869  0.6468902283393874  0.2893428593645524  1.0000
  H   H2        1.0  0.2243451331189164  0.35308225870301163  0.7893457360544289  1.0000
  H   H3        1.0  0.22441746490948594  0.35307770250408055  0.7106458291174249  1.0000
  H   H4        1.0  0.7755894274689226  0.6469216335270573  0.2106439665039872  1.0000
  C   C1        1.0  0.17471093684869743  0.5258341123309195  0.4522472041993453  1.0000
  C   C2        1.0  0.8252891982457271  0.4741851356119896  0.9522495682919043  1.0000
  C   C3        1.0  0.8252932259581913  0.4741362157918871  0.5477521404913261  1.0000
  C   C4        1.0  0.1747336056996858  0.5258305423957664  0.0477538355087503  1.0000
  C   C5        1.0  0.40009155941177  0.5653308749299769  0.4101685560434731  1.0000
  C   C6        1.0  0.5998973362246504  0.43471059503450243  0.9101737644167615  1.0000
  C   C7        1.0  0.5999117742398357  0.43465167437812363  0.5898287587143187  1.0000
  C   C8        1.0  0.4001187558879309  0.5653143824670224  0.08983166903745139  1.0000
  C   C9        1.0  0.9733297137827179  0.3747676171646716  0.44429002706279874  1.0000
  C   C10       1.0  0.026673929846708654  0.6252470115770875  0.9442942321699661  1.0000
  C   C11       1.0  0.026670222989451996  0.6252073802913999  0.5557057654310568  1.0000
  C   C12       1.0  0.9733429081474584  0.37477337363674934  0.05570967900064971  1.0000
  C   C13       1.0  0.9008173727883317  0.22752830196443344  0.38610359150078466  1.0000
  C   C14       1.0  0.09917424961055589  0.7725117237715081  0.8861023359115305  1.0000
  C   C15       1.0  0.09917245529618408  0.7724484430333901  0.613893723276064  1.0000
  C   C16       1.0  0.9008216249789882  0.22751674941349626  0.1139000527483773  1.0000
  N   N1        1.0  0.191370079611346  0.6464510546264536  0.5068948160021947  1.0000
  N   N2        1.0  0.8086294139902821  0.35355176833786567  0.0069000635619219  1.0000
  N   N3        1.0  0.8086381427198006  0.35352986180829754  0.49310249879242457  1.0000
  N   N4        1.0  0.1913829498650443  0.6464641393066656  0.9931033401982319  1.0000
  O   O1        1.0  0.554750095965943  0.7090814502489949  0.4313594215477323  1.0000
  O   O2        1.0  0.4452451311785454  0.29094810026703743  0.931367383911244  1.0000
  O   O3        1.0  0.44525091802868394  0.29089047307434873  0.568633833752564  1.0000
  O   O4        1.0  0.5547616813401106  0.709066403840936  0.0686390645253852  1.0000
  O   O5        1.0  0.43306613392381627  0.45166174022798355  0.3611486264437715  1.0000
  O   O6        1.0  0.5669267636472811  0.5483785720001819  0.8611509338381323  1.0000
  O   O7        1.0  0.5669378639172324  0.548291812644635  0.6388517333361179  1.0000
  O   O8        1.0  0.4330693605171305  0.45162701549197243  0.1388519625373661  1.0000
  O   O9        1.0  0.7346749776952921  0.08504118374164447  0.4005425315461295  1.0000
  O   O10       1.0  0.26534427460408244  0.9149832017311966  0.900540157527324  1.0000
  O   O11       1.0  0.26532172726175673  0.9149430367126076  0.5994547831680848  1.0000
  O   O12       1.0  0.734675049249745  0.0850325530721392  0.09946070902638127  1.0000
  O   O13       1.0  0.9915789279425838  0.2569368251468802  0.3280694350685991  1.0000
  O   O14       1.0  0.008392477164086629  0.7431470510536331  0.8280737921190778  1.0000
  O   O15       1.0  0.008406674119520074  0.7430445891342146  0.6719248349581193  1.0000
  O   O16       1.0  0.9915850851171728  0.2569016538422844  0.17193417815119008  1.0000
  O   O17       1.0  0.2528003840138737  0.058200403787090196  0.45108279098949566  1.0000
  O   O18       1.0  0.747236481854145  0.9418594480659122  0.9510919051029133  1.0000
  O   O19       1.0  0.7471955750492754  0.9417884090048577  0.5489155385616229  1.0000
  O   O20       1.0  0.2527931157270373  0.058171334145875206  0.0489094687587155  1.0000
  O   O21       1.0  0.41354039628042477  0.15666594375917242  0.2500115434151908  1.0000
  O   O22       1.0  0.5864292960963056  0.8433387005699444  0.7499832337285709  1.0000
  O   O23       1.0  0.158124877502047  0.6156038874495947  0.2499864686176423  1.0000
  O   O24       1.0  0.8418656954611099  0.38440029595602  0.7500250543479368  1.0000
  O   O25       1.0  0.6721121522466689  0.6231485877211966  0.24999686842097193  1.0000
  O   O26       1.0  0.32786880808933466  0.3768756376312867  0.7500039978945949  1.0000
