data_image0
_chemical_formula_structural       Cd2H32C48Br4N4O8
_chemical_formula_sum              "Cd2 H32 C48 Br4 N4 O8"
_cell_length_a       9.811813030163727
_cell_length_b       10.62901670417463
_cell_length_c       13.884397735016625
_cell_angle_alpha    103.81295572498838
_cell_angle_beta     95.73309540922418
_cell_angle_gamma    110.31452182213603

_space_group_name_H-M_alt    "P 1"
_space_group_IT_number       1

loop_
  _space_group_symop_operation_xyz
  'x, y, z'

loop_
  _atom_site_type_symbol
  _atom_site_label
  _atom_site_symmetry_multiplicity
  _atom_site_fract_x
  _atom_site_fract_y
  _atom_site_fract_z
  _atom_site_occupancy
  Cd  Cd1       1.0  0.5884527493961685  0.8747908017184897  0.420421886331674  1.0000
  Cd  Cd2       1.0  0.411548107863318  0.1252074429278025  0.5795751735804515  1.0000
  H   H1        1.0  0.5163570131413094  0.5645966211469542  0.42298653740208897  1.0000
  H   H2        1.0  0.48363602200919326  0.43540811606233376  0.5770293701044125  1.0000
  H   H3        1.0  0.3069298779983285  0.3445394346071922  0.4209908292575193  1.0000
  H   H4        1.0  0.6930593153028327  0.6554642400456315  0.5790167596976445  1.0000
  H   H5        1.0  0.0107008066185941  0.5572273035348873  0.38092854952169836  1.0000
  H   H6        1.0  0.989288198649419  0.4427678456500884  0.6190594078391314  1.0000
  H   H7        1.0  0.23280785787903102  0.7669956936869794  0.38530685156982253  1.0000
  H   H8        1.0  0.7671860648153699  0.233010015609608  0.614696313875271  1.0000
  H   H9        1.0  0.8567414914545851  0.3207878592557378  0.2909164412149536  1.0000
  H   H10       1.0  0.14326411922726834  0.6792219231898359  0.7090823126608684  1.0000
  H   H11       1.0  0.6496069481587058  0.1133101662866594  0.30614610052810326  1.0000
  H   H12       1.0  0.35039243138578513  0.886692284562315  0.6938480763754526  1.0000
  H   H13       1.0  0.9204855740138597  0.0581486883223121  0.5272673831025685  1.0000
  H   H14       1.0  0.07952120672060667  0.941858976925076  0.47273102980775417  1.0000
  H   H15       1.0  0.13839490539087515  0.26148750835942286  0.5232226490808713  1.0000
  H   H16       1.0  0.8616084445637284  0.7385222664591423  0.47677094651096047  1.0000
  H   H17       1.0  0.5319886405496561  0.6743577245212506  0.06331649762687869  1.0000
  H   H18       1.0  0.468019650757192  0.32566048751445453  0.9366890245251795  1.0000
  H   H19       1.0  0.6115245793987257  0.5970721094562491  0.9009866646808503  1.0000
  H   H20       1.0  0.3884790769904427  0.40293245318235177  0.09901605048283808  1.0000
  H   H21       1.0  0.03526608079408787  0.6612939314078758  0.0711972454964069  1.0000
  H   H22       1.0  0.9647375201429471  0.3387127503596474  0.928808028358205  1.0000
  H   H23       1.0  0.9500674107835253  0.73052007987625  0.23253520409610937  1.0000
  H   H24       1.0  0.04992926935491228  0.2694719445861793  0.7674712816079889  1.0000
  H   H25       1.0  0.5668134591743057  0.10561452615700517  0.7808721886745147  1.0000
  H   H26       1.0  0.433180817703068  0.8943700991206994  0.21912413429652133  1.0000
  H   H27       1.0  0.6185241707027985  0.14375444234129725  0.9654968247881615  1.0000
  H   H28       1.0  0.38148169208602667  0.8562437441787052  0.034498312754848784  1.0000
  H   H29       1.0  0.8817148260208468  0.8898853764879602  0.9268431379162507  1.0000
  H   H30       1.0  0.11828915435611258  0.11011284759165818  0.0731555153402823  1.0000
  H   H31       1.0  0.829493477103064  0.8516101108834844  0.7408646888169841  1.0000
  H   H32       1.0  0.17051429839608553  0.1483849186669985  0.259133551443405  1.0000
  C   C1        1.0  0.40243786355760147  0.5586048031180012  0.41575674195132  1.0000
  C   C2        1.0  0.5975572128640041  0.4414030385348867  0.5842533684095059  1.0000
  C   C3        1.0  0.28651358267377  0.4373954706202525  0.41509649247677777  1.0000
  C   C4        1.0  0.7134753344912925  0.5626102968026248  0.5849085953374314  1.0000
  C   C5        1.0  0.14159537868743394  0.43452664892959797  0.40370914643288813  1.0000
  C   C6        1.0  0.8583963387318505  0.565476933611059  0.5962863020372993  1.0000
  C   C7        1.0  0.12076888815241912  0.5538705974823868  0.3907594606638014  1.0000
  C   C8        1.0  0.8792258262792175  0.44613294942939064  0.6092346898182939  1.0000
  C   C9        1.0  0.24349028391912236  0.6713360618896757  0.3935973946622581  1.0000
  C   C10       1.0  0.7565066597134804  0.32866748888356057  0.6064011912706917  1.0000
  C   C11       1.0  0.016023088451262883  0.3099472410578556  0.4062590512252768  1.0000
  C   C12       1.0  0.9839737290762117  0.6900562946531678  0.5937366433751734  1.0000
  C   C13       1.0  0.8755758780159726  0.2669155443010212  0.34540879327462903  1.0000
  C   C14       1.0  0.12442539154081794  0.7330889956483658  0.6545858722725839  1.0000
  C   C15       1.0  0.7598944571514326  0.15087576648166132  0.352925656444647  1.0000
  C   C16       1.0  0.24010650351515028  0.8491277392967688  0.6470716807262562  1.0000
  C   C17       1.0  0.9118158986879905  0.11903477641346423  0.47552952038881113  1.0000
  C   C18       1.0  0.08818720542897293  0.8809739717652434  0.5244681924929752  1.0000
  C   C19       1.0  0.03368706989792257  0.23284311960598808  0.4722294241133511  1.0000
  C   C20       1.0  0.966313266615643  0.7671593143459602  0.5277633563500075  1.0000
  C   C21       1.0  0.6861545460199211  0.7519530847293936  0.2538969963563389  1.0000
  C   C22       1.0  0.3138389718743255  0.24803682987413822  0.7461031688130505  1.0000
  C   C23       1.0  0.7354505253387134  0.7053133958485348  0.15756547235157115  1.0000
  C   C24       1.0  0.2645509636742247  0.29468804728426085  0.842440148625286  1.0000
  C   C25       1.0  0.641093412643741  0.6694147411835302  0.06409575952869766  1.0000
  C   C26       1.0  0.35891415870341353  0.3305992645535766  0.9359089330141971  1.0000
  C   C27       1.0  0.6854409596473233  0.627494603056647  0.9737585916077975  1.0000
  C   C28       1.0  0.31456335364897114  0.3725141583494462  0.026243507498790605  1.0000
  C   C29       1.0  0.8272471547046009  0.6251278049489598  0.9779845338972919  1.0000
  C   C30       1.0  0.17275274435798596  0.37486733341890505  0.022019818052811533  1.0000
  C   C31       1.0  0.9246972221241094  0.6627655513982447  0.06977916790894771  1.0000
  C   C32       1.0  0.07530628300625607  0.33723799589716913  0.9302298330440664  1.0000
  C   C33       1.0  0.8768613076640721  0.701264761959564  0.15952902885359777  1.0000
  C   C34       1.0  0.12313974635353728  0.29873563194006175  0.8404763724144573  1.0000
  C   C35       1.0  0.6569642581265428  0.9461781891325172  0.6356844718373438  1.0000
  C   C36       1.0  0.34303995925979797  0.05381581175147689  0.3643119553698426  1.0000
  C   C37       1.0  0.6930660585540026  0.9738547143578488  0.7478078709997363  1.0000
  C   C38       1.0  0.30693433218387167  0.026142477289724304  0.2521882463704657  1.0000
  C   C39       1.0  0.6355041373460253  0.05751318601154758  0.8118042481650889  1.0000
  C   C40       1.0  0.36449501145840907  0.9424808654676226  0.18819265574496308  1.0000
  C   C41       1.0  0.6644299645619611  0.07982777759303869  0.9160975498188437  1.0000
  C   C42       1.0  0.33557683127008886  0.9201725149244027  0.08389947280802088  1.0000
  C   C43       1.0  0.7519960470449263  0.018145122096861106  0.9561916176893702  1.0000
  C   C44       1.0  0.24801018768666697  0.9818541061252051  0.0438022938961922  1.0000
  C   C45       1.0  0.8125939535165118  0.9362986256549558  0.8943490271173147  1.0000
  C   C46       1.0  0.18741810005513324  0.0637016388606142  0.1056518558054336  1.0000
  C   C47       1.0  0.7827911068782074  0.9148315496745526  0.7901789904473874  1.0000
  C   C48       1.0  0.2172187250929056  0.08517083763958061  0.2098214613816864  1.0000
  Br  Br1       1.0  0.7875735316660625  0.0455042723975723  0.09824711028235811  1.0000
  Br  Br2       1.0  0.2124309782850702  0.954495012211872  0.9017539311823485  1.0000
  Br  Br3       1.0  0.8869142177834277  0.5677758807468861  0.8538648294867812  1.0000
  Br  Br4       1.0  0.11306186754342212  0.4321689375889548  0.1461317200952053  1.0000
  N   N1        1.0  0.38227255430398105  0.674779237714269  0.40756262311982994  1.0000
  N   N2        1.0  0.6177245306346181  0.3252285814412161  0.5924468628599727  1.0000
  N   N3        1.0  0.7773632669497134  0.07860085350733928  0.4172618121011737  1.0000
  N   N4        1.0  0.2226384287741465  0.9213994858397353  0.5827349643954348  1.0000
  O   O1        1.0  0.7559944704479237  0.7564712173460177  0.33771719086682583  1.0000
  O   O2        1.0  0.2440024958826967  0.24352708735729314  0.6622840091398459  1.0000
  O   O3        1.0  0.5745302841552445  0.7880597636834921  0.24685642626333507  1.0000
  O   O4        1.0  0.4254509909204173  0.21191239091024977  0.7531455403911737  1.0000
  O   O5        1.0  0.7049197826710554  0.8647703498961972  0.5784383061118845  1.0000
  O   O6        1.0  0.29508924358978567  0.13523306965816317  0.421557256368061  1.0000
  O   O7        1.0  0.578153943362807  0.003772799406206701  0.5982718452255966  1.0000
  O   O8        1.0  0.42184583709180157  0.9962128245094843  0.4017242207513689  1.0000
