data_image0
_chemical_formula_structural       Mn2H24C32O12
_chemical_formula_sum              "Mn2 H24 C32 O12"
_cell_length_a       7.200038070120039
_cell_length_b       8.373093962259997
_cell_length_c       12.758236554310656
_cell_angle_alpha    109.11424289315478
_cell_angle_beta     95.29198461845047
_cell_angle_gamma    90.00301738482874

_space_group_name_H-M_alt    "P 1"
_space_group_IT_number       1

loop_
  _space_group_symop_operation_xyz
  'x, y, z'

loop_
  _atom_site_type_symbol
  _atom_site_label
  _atom_site_symmetry_multiplicity
  _atom_site_fract_x
  _atom_site_fract_y
  _atom_site_fract_z
  _atom_site_occupancy
  Mn  Mn1       1.0  0.2501398539598228  0.9343005601866778  4.257195616469435e-05  1.0000
  Mn  Mn2       1.0  0.7498608370093084  0.06568620422109463  0.9999624765738205  1.0000
  H   H1        1.0  0.16176355008366275  0.9612202092507971  0.6599033567567646  1.0000
  H   H2        1.0  0.3383901767038325  0.3012648528326667  0.3402385906175312  1.0000
  H   H3        1.0  0.8382430007607482  0.038772943361493596  0.34009792948126016  1.0000
  H   H4        1.0  0.6616064006564883  0.6987587372769467  0.6597641521534144  1.0000
  H   H5        1.0  0.5562757665391446  0.23511775217393452  0.6452131911133564  1.0000
  H   H6        1.0  0.9431149824064281  0.59063569703752  0.35439362573585953  1.0000
  H   H7        1.0  0.44373774595110405  0.7648753649455173  0.35479003299789025  1.0000
  H   H8        1.0  0.0568986375855118  0.4093587935532809  0.6456020681692608  1.0000
  H   H9        1.0  0.7105380101297815  0.12830481583868897  0.47683129299835514  1.0000
  H   H10       1.0  0.788619007606826  0.652604274930475  0.5227333840125183  1.0000
  H   H11       1.0  0.2894642788923321  0.8716870259718661  0.523173392459249  1.0000
  H   H12       1.0  0.2113940371184455  0.3474117273660583  0.47726623083683267  1.0000
  H   H13       1.0  0.4754446511748257  0.34444697100639127  0.9302900035277945  1.0000
  H   H14       1.0  0.025442227573549307  0.41296190286433176  0.06978650828952478  1.0000
  H   H15       1.0  0.5245451988775613  0.6555462798541427  0.06970569446843193  1.0000
  H   H16       1.0  0.9745494836515649  0.5870427919135535  0.9302071072037992  1.0000
  H   H17       1.0  0.5312739244700425  0.41693172182440463  0.818200790614725  1.0000
  H   H18       1.0  0.9694313334928425  0.5977066702298615  0.18148107074262038  1.0000
  H   H19       1.0  0.46872458695007424  0.583069111019185  0.1817962630831715  1.0000
  H   H20       1.0  0.03056010268258551  0.4022916362577149  0.818515826424708  1.0000
  H   H21       1.0  0.4048593944827844  0.21880893580200217  0.7891106340271963  1.0000
  H   H22       1.0  0.09559281552849803  0.42894011293795137  0.2111519662097195  1.0000
  H   H23       1.0  0.5951277976330616  0.7811869150578374  0.21088078900926635  1.0000
  H   H24       1.0  0.9044058333503672  0.5710633253059784  0.7888401816585714  1.0000
  C   C1        1.0  0.9518386856532645  0.033278025547588214  0.5513486669275808  1.0000
  C   C2        1.0  0.5480552830663968  0.48215846675739726  0.44861730854714926  1.0000
  C   C3        1.0  0.048158299822311804  0.9667225705062138  0.4486654963226756  1.0000
  C   C4        1.0  0.45195743862502274  0.5178487051665855  0.5513787769796893  1.0000
  C   C5        1.0  0.0290280187987193  0.02109775232348451  0.6532055942695366  1.0000
  C   C6        1.0  0.471023406052737  0.3679258081487689  0.34685965921538303  1.0000
  C   C7        1.0  0.9709688050938254  0.978897839799224  0.34680353932685654  1.0000
  C   C8        1.0  0.5289742908408499  0.6320902134374862  0.6531399103702924  1.0000
  C   C9        1.0  0.9445125952597877  0.08448283206058702  0.7525144973499139  1.0000
  C   C10       1.0  0.5557357795257829  0.33162943104633763  0.24752912198888316  1.0000
  C   C11       1.0  0.0554788109585829  0.9155142424979913  0.24747977544090108  1.0000
  C   C12       1.0  0.44426853211989953  0.6683776811230402  0.7524719806344679  1.0000
  C   C13       1.0  0.7695798686234953  0.16214128051003485  0.7506359002476375  1.0000
  C   C14       1.0  0.7305629128607762  0.4113236272737737  0.24929390168519214  1.0000
  C   C15       1.0  0.23040862860073472  0.8378532267986573  0.24936078475567316  1.0000
  C   C16       1.0  0.2694399741126929  0.5886822557100188  0.750704501435699  1.0000
  C   C17       1.0  0.6893146041092635  0.1748149013016587  0.6492674814999975  1.0000
  C   C18       1.0  0.8102885054586652  0.5260296680923345  0.3504382390850012  1.0000
  C   C19       1.0  0.31067959153941166  0.8251821677700876  0.35072694154271034  1.0000
  C   C20       1.0  0.18971967326359623  0.47396861636210735  0.6495587784719421  1.0000
  C   C21       1.0  0.7790129023004654  0.11265331599048521  0.5525271858653015  1.0000
  C   C22       1.0  0.7204974979433417  0.5608128542839594  0.4471947796002311  1.0000
  C   C23       1.0  0.22098670492523112  0.8873410822678879  0.4474763491195121  1.0000
  C   C24       1.0  0.2795166663152031  0.4391955794892226  0.5528016620638426  1.0000
  C   C25       1.0  0.0458755368065766  0.0652776352858098  0.8544172208617982  1.0000
  C   C26       1.0  0.4543851407972853  0.2105744795785114  0.14570265954093034  1.0000
  C   C27       1.0  0.9541125956289919  0.9347079654352229  0.14558140267119773  1.0000
  C   C28       1.0  0.5456096949541305  0.7894402393504689  0.8542996032685297  1.0000
  C   C29       1.0  0.5133439932847779  0.30638437782690187  0.8447975189457397  1.0000
  C   C30       1.0  0.9873421446982679  0.46065237788796054  0.15521673862555477  1.0000
  C   C31       1.0  0.4866542190935662  0.6936088456852544  0.1551994109279065  1.0000
  C   C32       1.0  0.012655037753589204  0.539349754955282  0.8447781775924598  1.0000
  O   O1        1.0  0.19094016619658302  0.9763969763434163  0.844564034932944  1.0000
  O   O2        1.0  0.30969737541276043  0.13110030238367193  0.15564111366855124  1.0000
  O   O3        1.0  0.8090479486084519  0.023590946693254  0.15544999193570422  1.0000
  O   O4        1.0  0.6903218712917721  0.8688954418260764  0.8443551617516435  1.0000
  O   O5        1.0  0.989867676543085  0.13743465540389374  0.9512574555698735  1.0000
  O   O6        1.0  0.5100790479620089  0.1863094154961829  0.04879664576149171  1.0000
  O   O7        1.0  0.010130799087193094  0.8625661121124607  0.048744284858471945  1.0000
  O   O8        1.0  0.4899222589855798  0.8136926002380775  0.9512063070517769  1.0000
  O   O9        1.0  0.6877334152498237  0.22311048796601804  0.8474138207423325  1.0000
  O   O10       1.0  0.8128891741156039  0.3749029341341555  0.15262670045473214  1.0000
  O   O11       1.0  0.31226750304922046  0.7768825776290812  0.1525941950875804  1.0000
  O   O12       1.0  0.1871164365412881  0.6251016461065788  0.8473739152719802  1.0000
