data_image0
_chemical_formula_structural       Cd2H30C30N2O24
_chemical_formula_sum              "Cd2 H30 C30 N2 O24"
_cell_length_a       8.37427003501741
_cell_length_b       8.649729079691337
_cell_length_c       12.788068642569886
_cell_angle_alpha    94.97150186712751
_cell_angle_beta     98.94726652321043
_cell_angle_gamma    98.99222068738226

_space_group_name_H-M_alt    "P 1"
_space_group_IT_number       1

loop_
  _space_group_symop_operation_xyz
  'x, y, z'

loop_
  _atom_site_type_symbol
  _atom_site_label
  _atom_site_symmetry_multiplicity
  _atom_site_fract_x
  _atom_site_fract_y
  _atom_site_fract_z
  _atom_site_occupancy
  Cd  Cd1       1.0  0.3018475065344716  0.7265568817531616  0.01326490803150188  1.0000
  Cd  Cd2       1.0  0.6981537418214573  0.273449352866983  0.986739180533135  1.0000
  H   H1        1.0  0.6443163609326916  0.7034152077980026  0.06301155745075698  1.0000
  H   H2        1.0  0.3556950094191366  0.2966046058806739  0.9369785865153942  1.0000
  H   H3        1.0  0.636427618184932  0.8901472867088743  0.0792190338481404  1.0000
  H   H4        1.0  0.3635704385387015  0.10986690181754001  0.9207771903375458  1.0000
  H   H5        1.0  0.46142306530056504  0.5193109910243477  0.8796546343840602  1.0000
  H   H6        1.0  0.5385997690018912  0.4806940437058458  0.12035029764614785  1.0000
  H   H7        1.0  0.29050667502034594  0.5169909262905819  0.8081976684441229  1.0000
  H   H8        1.0  0.7095134090101709  0.48299882540946754  0.19180711371397047  1.0000
  H   H9        1.0  0.23547746657270352  0.9796007042441417  0.15087830756469597  1.0000
  H   H10       1.0  0.7645097265961881  0.020413438732305188  0.8491158960259353  1.0000
  H   H11       1.0  0.33473948647677076  0.07297018436317868  0.07200489730698928  1.0000
  H   H12       1.0  0.6652479163177246  0.9270379866608849  0.9279867411717787  1.0000
  H   H13       1.0  0.03177141990860832  0.6757360307175804  0.8570255816065494  1.0000
  H   H14       1.0  0.9682391507103176  0.32425496833916867  0.1429805153560579  1.0000
  H   H15       1.0  0.9314205921436384  0.640848851762975  0.9531406624141707  1.0000
  H   H16       1.0  0.06859201050639291  0.35910550758652  0.0468602696635401  1.0000
  H   H17       1.0  0.4023395194784528  0.2968058573636725  0.22171719359067044  1.0000
  H   H18       1.0  0.5976652861443484  0.703193346455258  0.7782877973206792  1.0000
  H   H19       1.0  0.4007354388067412  0.14568814068646674  0.3782135672498939  1.0000
  H   H20       1.0  0.5992530711811739  0.8543074199340595  0.6217870743901769  1.0000
  H   H21       1.0  0.20743065474390932  0.6589453833685397  0.38601243376233896  1.0000
  H   H22       1.0  0.792575605229864  0.3410620933109741  0.6139938401874615  1.0000
  H   H23       1.0  0.5339940423630694  0.17051195208432557  0.5851183822143041  1.0000
  H   H24       1.0  0.46599793674097606  0.8294895013424652  0.41488289300347947  1.0000
  H   H25       1.0  0.4896996547224789  0.9984081136430305  0.726637640333891  1.0000
  H   H26       1.0  0.510294305218153  0.0015981660740322983  0.2733671852200458  1.0000
  H   H27       1.0  0.02656189776514851  0.2286253198178443  0.5482917511432033  1.0000
  H   H28       1.0  0.9734265567895194  0.7713616585717276  0.45169914841618913  1.0000
  H   H29       1.0  0.113999348886864  0.6980074368096253  0.6388663652710632  1.0000
  H   H30       1.0  0.8860014956682889  0.30198926417568833  0.3611341617253742  1.0000
  C   C1        1.0  0.2886886977775164  0.5709166033132719  0.19602268834751155  1.0000
  C   C2        1.0  0.7113322087005614  0.42909781972400657  0.8039816223020747  1.0000
  C   C3        1.0  0.2995241834709432  0.4851189400500003  0.29279567935134304  1.0000
  C   C4        1.0  0.7004868057947674  0.5148871967091465  0.707206384534558  1.0000
  C   C5        1.0  0.3600630093416087  0.34323553042089827  0.29244307398140273  1.0000
  C   C6        1.0  0.6399380805843153  0.6567694415082174  0.7075585983784476  1.0000
  C   C7        1.0  0.3617644438968314  0.2598688843431277  0.3806628335477952  1.0000
  C   C8        1.0  0.6382324056621087  0.7401325201531677  0.6193374293306205  1.0000
  C   C9        1.0  0.30444958626436863  0.3157496362792429  0.47129273510212494  1.0000
  C   C10       1.0  0.6955430574616771  0.6842481441865687  0.5287045552553521  1.0000
  C   C11       1.0  0.254409418256337  0.4647036686182773  0.47494249666004146  1.0000
  C   C12       1.0  0.7455892185695634  0.5352942063279899  0.5250578266318583  1.0000
  C   C13       1.0  0.21719341643203902  0.5380055146712905  0.5762537627594283  1.0000
  C   C14       1.0  0.7828076556213048  0.4619923358097254  0.4237460543627874  1.0000
  C   C15       1.0  0.24938178288946486  0.5459766861916081  0.3849387620192672  1.0000
  C   C16       1.0  0.7506253346704099  0.4540283236202924  0.615064380235502  1.0000
  C   C17       1.0  0.2836537543975909  0.21102113418532303  0.5555334262464413  1.0000
  C   C18       1.0  0.7163394676152207  0.7889731148136646  0.4444637868494821  1.0000
  C   C19       1.0  0.41206934677236273  0.14332446414014305  0.6056279438867589  1.0000
  C   C20       1.0  0.5879244541327395  0.8566734031389628  0.3943718287050045  1.0000
  C   C21       1.0  0.3874843567601758  0.04514819215543039  0.6848187063535957  1.0000
  C   C22       1.0  0.6125055903116703  0.9548556696245213  0.3151839998446774  1.0000
  C   C23       1.0  0.2332771129436679  0.008129336501006893  0.7138357845326907  1.0000
  C   C24       1.0  0.7667116251479771  0.9918745233621568  0.2861667839905521  1.0000
  C   C25       1.0  0.20650259892411787  0.8870056280936256  0.7896932777496344  1.0000
  C   C26       1.0  0.7934968097581746  0.1129970712261255  0.21031045820338073  1.0000
  C   C27       1.0  0.1059111105889912  0.0772920200946459  0.6627380060454725  1.0000
  C   C28       1.0  0.8940772755030152  0.9227022212371805  0.3372586563503147  1.0000
  C   C29       1.0  0.1284625592518793  0.17585684222869696  0.5844283812752095  1.0000
  C   C30       1.0  0.8715246172543942  0.8241302474394133  0.4155655066881535  1.0000
  N   N1        1.0  0.9463729486467757  0.0559262230498589  0.6967039660756029  1.0000
  N   N2        1.0  0.05361592697572345  0.9440702606757084  0.3032897135322372  1.0000
  O   O1        1.0  0.3466713945520681  0.5145230289455895  0.11522255466599056  1.0000
  O   O2        1.0  0.6533517196552623  0.48549022013073545  0.8847819596881333  1.0000
  O   O3        1.0  0.22332220282918772  0.692253570177769  0.19342324760159355  1.0000
  O   O4        1.0  0.7767021721594887  0.3077595959188458  0.806579059868312  1.0000
  O   O5        1.0  0.265133575365006  0.4956524858503714  0.663820022699184  1.0000
  O   O6        1.0  0.7348647636834472  0.5043300533016649  0.3361788630311651  1.0000
  O   O7        1.0  0.1318395236563745  0.654972325059113  0.5645815133324631  1.0000
  O   O8        1.0  0.8681572044276962  0.34502212778208025  0.435421583426823  1.0000
  O   O9        1.0  0.10512343728922961  0.7607715193816419  0.7542371354113724  1.0000
  O   O10       1.0  0.8948723789865556  0.23923111759005877  0.24576462447704017  1.0000
  O   O11       1.0  0.2920612954581473  0.91519453090671  0.88249794301025  1.0000
  O   O12       1.0  0.7079377272959492  0.08480575622629519  0.11750408661220746  1.0000
  O   O13       1.0  0.9429345404687268  0.021095120817726385  0.7893758499025194  1.0000
  O   O14       1.0  0.057049516500022476  0.9789013269418452  0.21061649748543226  1.0000
  O   O15       1.0  0.8248242743662431  0.07484277868069  0.6339526165749518  1.0000
  O   O16       1.0  0.1751658102364502  0.925153706961666  0.3660412007079258  1.0000
  O   O17       1.0  0.5952091715055874  0.7888493495169939  0.031454686352454124  1.0000
  O   O18       1.0  0.4047864672576438  0.21116483517583626  0.9685412624831639  1.0000
  O   O19       1.0  0.3422300406559912  0.5164368854788818  0.8830963258308838  1.0000
  O   O20       1.0  0.657790674067961  0.48355639960477964  0.11690867126379346  1.0000
  O   O21       1.0  0.32880120285734193  0.980788802475317  0.11199925355327878  1.0000
  O   O22       1.0  0.6711817499445588  0.019221773068316798  0.887993540555918  1.0000
  O   O23       1.0  0.034690122137604446  0.6358579703609807  0.9281396992246228  1.0000
  O   O24       1.0  0.9653256685137138  0.3641139993088984  0.07186074449650445  1.0000
