data_image0
_chemical_formula_structural       Zn4H22C34N6O14
_chemical_formula_sum              "Zn4 H22 C34 N6 O14"
_cell_length_a       8.951591632958952
_cell_length_b       9.187443474655302
_cell_length_c       11.35029369776333
_cell_angle_alpha    101.23478984859442
_cell_angle_beta     113.20696415632143
_cell_angle_gamma    99.33667002516283

_space_group_name_H-M_alt    "P 1"
_space_group_IT_number       1

loop_
  _space_group_symop_operation_xyz
  'x, y, z'

loop_
  _atom_site_type_symbol
  _atom_site_label
  _atom_site_symmetry_multiplicity
  _atom_site_fract_x
  _atom_site_fract_y
  _atom_site_fract_z
  _atom_site_occupancy
  Zn  Zn1       1.0  0.48721896922847213  0.6703427029912421  0.9944502093068122  1.0000
  Zn  Zn2       1.0  0.5127807325055046  0.3296565770433163  0.005549854757688924  1.0000
  Zn  Zn3       1.0  0.347541201220487  0.5711044970276903  0.18503541860115996  1.0000
  Zn  Zn4       1.0  0.6524603810598181  0.428897088469185  0.8149647148697383  1.0000
  H   H1        1.0  0.6676028765845317  0.674382781011353  0.6212515716941168  1.0000
  H   H2        1.0  0.3323971593055148  0.32561764991260844  0.3787487804845993  1.0000
  H   H3        1.0  0.4187811133556068  0.9205871202554408  0.8068637342483881  1.0000
  H   H4        1.0  0.5812158232641592  0.07941100874916172  0.19313529241948396  1.0000
  H   H5        1.0  0.7834192403274829  0.03835783922374251  0.6856477095668794  1.0000
  H   H6        1.0  0.21657836784931567  0.961642587946429  0.3143527747926739  1.0000
  H   H7        1.0  0.2503523008734661  0.8173563905559436  0.4845405534671769  1.0000
  H   H8        1.0  0.7496480691726575  0.1826451912574286  0.5154600868257618  1.0000
  H   H9        1.0  0.22099977718288247  0.04193042528918062  0.9210239607217401  1.0000
  H   H10       1.0  0.7789999213062018  0.9580688583586154  0.07897522187950999  1.0000
  H   H11       1.0  0.9789186709414325  0.792216486543488  0.10955637448276427  1.0000
  H   H12       1.0  0.021081030792544208  0.20778279349107012  0.8904436895817298  1.0000
  H   H13       1.0  0.2979711267862797  0.550683244995419  0.5373550033152412  1.0000
  H   H14       1.0  0.7020289091037669  0.44931718592854974  0.4626453488634823  1.0000
  H   H15       1.0  0.7766717419294198  0.4827209134658332  0.2777571361923137  1.0000
  H   H16       1.0  0.22332829071573462  0.5172795210713658  0.7222423345231589  1.0000
  H   H17       1.0  0.8625093160805832  0.7636636472832098  0.5323560078030098  1.0000
  H   H18       1.0  0.13749071980946334  0.23633678364075192  0.4676443443757066  1.0000
  H   H19       1.0  0.8728419884892135  0.05932676090691302  0.2834395661564884  1.0000
  H   H20       1.0  0.1271564977656894  0.9406725190573656  0.7165601232668093  1.0000
  H   H21       1.0  0.23115330291592076  0.4595365953140345  0.932186703860701  1.0000
  H   H22       1.0  0.768846732974126  0.5404638356099272  0.06781364831802253  1.0000
  C   C1        1.0  0.6127833700871435  0.711872429708791  0.6876091231401631  1.0000
  C   C2        1.0  0.387216331646826  0.28812685032576724  0.3123909409243382  1.0000
  C   C3        1.0  0.4814452110146945  0.8367562217119229  0.7808358136407347  1.0000
  C   C4        1.0  0.5185529410841383  0.1632419073629522  0.21916358766833344  1.0000
  C   C5        1.0  0.5185726393949041  0.9208010556867099  0.5927163459280179  1.0000
  C   C6        1.0  0.48142739649514976  0.07919937523725201  0.4072840062507055  1.0000
  C   C7        1.0  0.660724311828794  0.021005641297627206  0.6033120455521798  1.0000
  C   C8        1.0  0.33927572406125256  0.9789947896263341  0.3966883066265437  1.0000
  C   C9        1.0  0.3582489695963815  0.8983800588659677  0.4910725323411922  1.0000
  C   C10       1.0  0.6417507288927027  0.10161922478182822  0.5089266502600651  1.0000
  C   C11       1.0  0.23457365818729417  0.8103874573663746  0.03815579264649217  1.0000
  C   C12       1.0  0.7654275866920417  0.18961298085433506  0.9618431712469402  1.0000
  C   C13       1.0  0.11218153502464656  0.9073392592125274  0.017058244407330347  1.0000
  C   C14       1.0  0.8878184943756298  0.09266117893790952  0.9829403448448985  1.0000
  C   C15       1.0  0.12313613168503681  0.023257793828349804  0.9546087598507569  1.0000
  C   C16       1.0  0.8768632326479777  0.9767403389300428  0.04539013463627841  1.0000
  C   C17       1.0  0.9879438462644998  0.8841507303843559  0.06260517961336381  1.0000
  C   C18       1.0  0.0120558457348139  0.1158485604899084  0.9373922400614063  1.0000
  C   C19       1.0  0.08577197962170402  0.5426603993267848  0.28333990624859234  1.0000
  C   C20       1.0  0.9142317059504281  0.45734002819477854  0.7166624513169849  1.0000
  C   C21       1.0  0.042074241760033715  0.5199903170133454  0.39559143909091427  1.0000
  C   C22       1.0  0.9579273437651568  0.4800112648702993  0.6044095758432276  1.0000
  C   C23       1.0  0.16748908732219553  0.5300875466622942  0.5219449380984925  1.0000
  C   C24       1.0  0.8325109485678512  0.46991288426166733  0.4780554140802309  1.0000
  C   C25       1.0  0.8740137761032188  0.4892853166528468  0.3750478915432822  1.0000
  C   C26       1.0  0.12598747526589452  0.5107151143413945  0.6249528352766375  1.0000
  C   C27       1.0  0.6866070609245511  0.7958536417333307  0.28521337292668386  1.0000
  C   C28       1.0  0.31339142533035164  0.20414563823094775  0.7147863164966067  1.0000
  C   C29       1.0  0.849055276541087  0.8999726040653117  0.39619338062973947  1.0000
  C   C30       1.0  0.15094354386989292  0.10002782678837721  0.6038065969077734  1.0000
  C   C31       1.0  0.9226066695297774  0.8677413253520144  0.5188251138845812  1.0000
  C   C32       1.0  0.07739248828216459  0.13226025277783995  0.48117603323039754  1.0000
  C   C33       1.0  0.9284103748404533  0.033242846106553314  0.3783962174008407  1.0000
  C   C34       1.0  0.07158723333635225  0.9667575810636185  0.6216042669587196  1.0000
  N   N1        1.0  0.6005595058629966  0.647450465529282  0.7784653008013223  1.0000
  N   N2        1.0  0.399440195870973  0.3525488145052834  0.22153476326317903  1.0000
  N   N3        1.0  0.5189401321185302  0.7262559281314795  0.8373212718733994  1.0000
  N   N4        1.0  0.48105923545936957  0.27374220101367547  0.1626785040768794  1.0000
  N   N5        1.0  0.5393106795313544  0.8312502044309938  0.685857348341507  1.0000
  N   N6        1.0  0.4606881408796255  0.16875022642269502  0.314142629196013  1.0000
  O   O1        1.0  0.34788149183297895  0.4830032269185411  0.003976842419412189  1.0000
  O   O2        1.0  0.6521182131458829  0.5169960495027868  0.9960241031083324  1.0000
  O   O3        1.0  0.30783902120037965  0.7979683167284223  0.9616823708499068  1.0000
  O   O4        1.0  0.6921628919911029  0.20203442327109403  0.038317169271969966  1.0000
  O   O5        1.0  0.2580478518547197  0.7511618188669476  0.134302591420969  1.0000
  O   O6        1.0  0.7419537304255784  0.2488397666299349  0.8656975420499291  1.0000
  O   O7        1.0  0.24210697965595787  0.551969649038391  0.30944372612823656  1.0000
  O   O8        1.0  0.757895818103414  0.4480319365287715  0.6905567819838652  1.0000
  O   O9        1.0  0.9755091566031667  0.5516593450512559  0.17695097919752098  1.0000
  O   O10       1.0  0.02449121344295695  0.448342236762109  0.8230496610954174  1.0000
  O   O11       1.0  0.5994576396001959  0.6934713471691792  0.3104647077617101  1.0000
  O   O12       1.0  0.40054239628985044  0.3065290837547822  0.6895356444170061  1.0000
  O   O13       1.0  0.6479776039882099  0.8204927743492691  0.17089751341698892  1.0000
  O   O14       1.0  0.35202243190183685  0.17950765657469256  0.8291028387617344  1.0000
