data_image0
_chemical_formula_structural       Cu2H16C24Br2N6O4
_chemical_formula_sum              "Cu2 H16 C24 Br2 N6 O4"
_cell_length_a       3.848385069556359
_cell_length_b       8.578760619107733
_cell_length_c       17.59478546332008
_cell_angle_alpha    89.99977156323818
_cell_angle_beta     90.92063777610578
_cell_angle_gamma    89.99953457654912

_space_group_name_H-M_alt    "P 1"
_space_group_IT_number       1

loop_
  _space_group_symop_operation_xyz
  'x, y, z'

loop_
  _atom_site_type_symbol
  _atom_site_label
  _atom_site_symmetry_multiplicity
  _atom_site_fract_x
  _atom_site_fract_y
  _atom_site_fract_z
  _atom_site_occupancy
  Cu  Cu1       1.0  0.6972333828869638  0.16826952805541842  0.7620725825708095  1.0000
  Cu  Cu2       1.0  0.6971825873511223  0.8317263595575849  0.2620783546985734  1.0000
  H   H1        1.0  0.9727657416838941  0.2707366308768257  0.9198254331245012  1.0000
  H   H2        1.0  0.9727245485141581  0.7292547680407181  0.4198360105788765  1.0000
  H   H3        1.0  0.9443968523858363  0.5214345879079472  0.9956268779352087  1.0000
  H   H4        1.0  0.9443218821542488  0.4785306443602479  0.49563657420809903  1.0000
  H   H5        1.0  0.6544875828455402  0.7527297763429743  0.935840097487251  1.0000
  H   H6        1.0  0.6544079639653689  0.24726367776674604  0.43583428819437847  1.0000
  H   H7        1.0  0.3904321716447541  0.7251801295935676  0.804635402177027  1.0000
  H   H8        1.0  0.39036429377692633  0.2748292184508613  0.304640417171548  1.0000
  H   H9        1.0  0.2615167029805434  0.06605488954303948  0.4995965489753758  1.0000
  H   H10       1.0  0.2614941583357791  0.9339509636928369  0.9995967956331455  1.0000
  H   H11       1.0  0.4592451519108352  0.788160091727718  0.4884566751160265  1.0000
  H   H12       1.0  0.4592627867124079  0.21184405282661337  0.988467654599468  1.0000
  H   H13       1.0  0.7916171590925459  0.6675915777226958  0.5996585888272535  1.0000
  H   H14       1.0  0.7915841210348307  0.3324111490308112  0.09966940687460381  1.0000
  H   H15       1.0  0.9067618249519002  0.8296586303570236  0.7141519516475584  1.0000
  H   H16       1.0  0.9067218893097221  0.17034280223957407  0.21416019093375385  1.0000
  C   C1        1.0  0.843189931171601  0.37477060233611326  0.8979605222146462  1.0000
  C   C2        1.0  0.8431483040143847  0.625220222466467  0.3979707264660917  1.0000
  C   C3        1.0  0.8268284888091771  0.5131027987432759  0.9390777627722002  1.0000
  C   C4        1.0  0.8267718276363215  0.4868854147419055  0.43908301606554556  1.0000
  C   C5        1.0  0.6663565875245185  0.6422815246640708  0.9055299992953894  1.0000
  C   C6        1.0  0.666300477540709  0.3577098050921847  0.4055275444451212  1.0000
  C   C7        1.0  0.5220004547836653  0.6280795320956045  0.8327624303601695  1.0000
  C   C8        1.0  0.5219410570974149  0.37193266439450656  0.3327661793386696  1.0000
  C   C9        1.0  0.5427215553536514  0.4851207699580442  0.7956833346280803  1.0000
  C   C10       1.0  0.542648331660111  0.5148904942753845  0.2956946784036631  1.0000
  C   C11       1.0  0.382822368949988  0.4597517071494933  0.7181812764695723  1.0000
  C   C12       1.0  0.38276945092400894  0.5402735178199194  0.2181921367801252  1.0000
  C   C13       1.0  0.3594307301069507  0.2558811926965062  0.6219174387870086  1.0000
  C   C14       1.0  0.3593972096443921  0.744127400303071  0.12192519626711372  1.0000
  C   C15       1.0  0.47966981588962215  0.09067186150790718  0.6119188568031221  1.0000
  C   C16       1.0  0.4796411821051123  0.9093294334228685  0.11191894257752473  1.0000
  C   C17       1.0  0.40691172291794  0.008806109120946797  0.5453501473400665  1.0000
  C   C18       1.0  0.406909998593072  0.9911982881677158  0.0453502538473032  1.0000
  C   C19       1.0  0.5161711200737144  0.8544455912732757  0.5399400455072155  1.0000
  C   C20       1.0  0.5161577858953806  0.14555966565572478  0.039946801323367316  1.0000
  C   C21       1.0  0.6973710433153076  0.7871451243530316  0.6007082877820764  1.0000
  C   C22       1.0  0.6973119029619497  0.21286255833364717  0.1007185937266328  1.0000
  C   C23       1.0  0.7627787672279924  0.8766775039698156  0.6655803800667641  1.0000
  C   C24       1.0  0.7627530036990321  0.12332245085104182  0.16558539143147752  1.0000
  Br  Br1       1.0  0.12906114738852645  0.022618568558442593  0.8346595359221709  1.0000
  Br  Br2       1.0  0.12895818048991003  0.9773494094206825  0.3346618464169994  1.0000
  N   N1        1.0  0.7041976993137028  0.36097890619765133  0.8278314483410156  1.0000
  N   N2        1.0  0.7041532275101403  0.6390245871780917  0.3278410392527107  1.0000
  N   N3        1.0  0.45106586782591773  0.3122012516314711  0.6922285153323102  1.0000
  N   N4        1.0  0.45103642414696327  0.6878018169592437  0.1922312911382207  1.0000
  N   N5        1.0  0.655396065340149  0.025005678725364095  0.6710363387149627  1.0000
  N   N6        1.0  0.6553814261637783  0.974987581706962  0.1710403701605898  1.0000
  O   O1        1.0  0.21115155535148483  0.5631796386252929  0.6862214975520831  1.0000
  O   O2        1.0  0.21109303003641605  0.4368417315925868  0.1862313811557357  1.0000
  O   O3        1.0  0.19801402055729514  0.32368982260281576  0.5703700924040406  1.0000
  O   O4        1.0  0.19798214090414495  0.6763138754994598  0.07037401090575911  1.0000
