data_image0
_chemical_formula_structural       Ag4H36C20N8O6
_chemical_formula_sum              "Ag4 H36 C20 N8 O6"
_cell_length_a       8.004585352539399
_cell_length_b       10.19333322896615
_cell_length_c       9.48684874472576
_cell_angle_alpha    100.37003858159434
_cell_angle_beta     104.00790529178215
_cell_angle_gamma    97.56531145238642

_space_group_name_H-M_alt    "P 1"
_space_group_IT_number       1

loop_
  _space_group_symop_operation_xyz
  'x, y, z'

loop_
  _atom_site_type_symbol
  _atom_site_label
  _atom_site_symmetry_multiplicity
  _atom_site_fract_x
  _atom_site_fract_y
  _atom_site_fract_z
  _atom_site_occupancy
  Ag  Ag1       1.0  0.2175787137266454  0.853469713620136  0.7158137929843208  1.0000
  Ag  Ag2       1.0  0.7848488165683705  0.15252080967732698  0.29667474249877307  1.0000
  Ag  Ag3       1.0  0.49789508902228624  0.5055354138169291  0.5092540461649194  1.0000
  Ag  Ag4       1.0  2.7144033282393568e-05  0.0039184704271591  0.5081785786348121  1.0000
  H   H1        1.0  0.17515551128925472  0.4117758807982597  0.28923492514732635  1.0000
  H   H2        1.0  0.0010473553255608075  0.41161934572354403  0.37506973057411847  1.0000
  H   H3        1.0  0.15151416849882077  0.5633600327970426  0.3997194838239579  1.0000
  H   H4        1.0  0.044538894931015705  0.5560936551049593  0.12469681574742711  1.0000
  H   H5        1.0  0.8829280320936735  0.41134081521062177  0.10371184864295208  1.0000
  H   H6        1.0  0.8113528003307594  0.6646148700047262  0.01573531273245978  1.0000
  H   H7        1.0  0.6465422929289134  0.527821923393013  0.007524744096045338  1.0000
  H   H8        1.0  0.516139410760438  0.7321606355257585  0.9912070010725389  1.0000
  H   H9        1.0  0.6702778356115433  0.8273519242003643  0.15986298209869435  1.0000
  H   H10       1.0  0.5098951692842421  0.6916517224873572  0.16409027014571362  1.0000
  H   H11       1.0  0.8171608245574121  0.5939530634599492  0.7327842607135227  1.0000
  H   H12       1.0  0.8387597024753718  0.4425311110154766  0.6205652965793507  1.0000
  H   H13       1.0  0.9887889417721212  0.5942348128923172  0.6441764041340647  1.0000
  H   H14       1.0  0.9504609511367478  0.4472028736848941  0.8938171084325861  1.0000
  H   H15       1.0  0.10971081035778237  0.5935821961376532  0.91576835339707  1.0000
  H   H16       1.0  0.3490794875996884  0.4792629076731456  0.00905671659200637  1.0000
  H   H17       1.0  0.1864269298190919  0.3408162181168066  0.0004093438167131916  1.0000
  H   H18       1.0  0.4830341449653874  0.27643478943595307  0.02316543061837711  1.0000
  H   H19       1.0  0.48744465756213623  0.3186602171210994  0.850669243994169  1.0000
  H   H20       1.0  0.3294602540638181  0.18108166241468376  0.8542342586089476  1.0000
  H   H21       1.0  0.6023072695899573  0.9342461169862515  0.4071527705652755  1.0000
  H   H22       1.0  0.4037037527186058  0.9923128310310786  0.3409417545971039  1.0000
  H   H23       1.0  0.5947807843015411  0.016721320896842005  0.6692456846626913  1.0000
  H   H24       1.0  0.3951118959792481  0.07333678510767068  0.6024243849444633  1.0000
  H   H25       1.0  0.7110295022052854  0.17835828925156247  0.5497552341253283  1.0000
  H   H26       1.0  0.5361498891658556  0.21361862579338714  0.4359878212049965  1.0000
  H   H27       1.0  0.4648310145683325  0.7950227018943962  0.5747194588252995  1.0000
  H   H28       1.0  0.2879399856251297  0.8288428420081646  0.4614586742319134  1.0000
  H   H29       1.0  0.05021369943480641  0.0798001206243271  0.8935659414097047  1.0000
  H   H30       1.0  0.2023333721183036  0.025697446598499592  0.0318981092852795  1.0000
  H   H31       1.0  0.8028957851037434  0.9782632879298133  0.9827426608599199  1.0000
  H   H32       1.0  0.9552695199612986  0.9251792726977826  0.12188031942397255  1.0000
  H   H33       1.0  0.9206445143711834  0.8506732783922144  0.7765677841855452  1.0000
  H   H34       1.0  0.044217525296872354  0.7932325319334055  0.9110208808315506  1.0000
  H   H35       1.0  0.9609081760646419  0.21124439339669013  0.10241180013817093  1.0000
  H   H36       1.0  0.08287076076687329  0.1548223280758663  0.23847755894866657  1.0000
  C   C1        1.0  0.7633906855835234  0.7339153588171781  0.4824429645630417  1.0000
  C   C2        1.0  0.7153913128544573  0.5287454271959363  0.29874077975019736  1.0000
  C   C3        1.0  0.8371393765322921  0.59734481144379  0.2211767390412476  1.0000
  C   C4        1.0  0.9431798156249441  0.7338227753905073  0.3135666753764923  1.0000
  C   C5        1.0  0.07800826156683632  0.47052490290965204  0.31824160501564347  1.0000
  C   C6        1.0  0.9623775458206937  0.5040112226030331  0.18215235502243848  1.0000
  C   C7        1.0  0.7212148025512235  0.626244947575344  0.07637530767966882  1.0000
  C   C8        1.0  0.5979523342885997  0.7253450718466113  0.09961245874692536  1.0000
  C   C9        1.0  0.23510842085509856  0.27568222961387073  0.5352974347072817  1.0000
  C   C10       1.0  0.2780085435807678  0.48044968069772415  0.7184955848659274  1.0000
  C   C11       1.0  0.15772036827789299  0.4097970575112485  0.7957601546087505  1.0000
  C   C12       1.0  0.05355241223344358  0.2730699114996327  0.7025811483722251  1.0000
  C   C13       1.0  0.9133855920401572  0.5351249774465358  0.7018342717437562  1.0000
  C   C14       1.0  0.03110102641099384  0.5010683919175348  0.8365182704411326  1.0000
  C   C15       1.0  0.2754783590656729  0.3807144338281531  0.939676379546505  1.0000
  C   C16       1.0  0.4003530618190467  0.28331396357636146  0.9151295211649713  1.0000
  C   C17       1.0  0.523182531890633  0.010458573674057402  0.4333472993038044  1.0000
  C   C18       1.0  0.4751835664764882  0.9977072950185214  0.5768169039793279  1.0000
  C   C19       1.0  0.06718050252250411  0.002067073248923604  0.9598457012834632  1.0000
  C   C20       1.0  0.9379324678726277  0.0025075796777329997  0.0550753258600878  1.0000
  N   N1        1.0  0.67565143607532  0.604120940075205  0.41578063121014  1.0000
  N   N2        1.0  0.8921182662468539  0.797489224686636  0.4298530285501272  1.0000
  N   N3        1.0  0.3202762767661653  0.40615569420702957  0.6022653793569576  1.0000
  N   N4        1.0  0.10640048900996392  0.21061736709240358  0.5867324835267029  1.0000
  N   N5        1.0  0.6229300280262892  0.1473853222224619  0.4455832026241994  1.0000
  N   N6        1.0  0.37697255978350347  0.8604407633531254  0.5651476853656945  1.0000
  N   N7        1.0  0.041627897085419426  0.8700184766913636  0.8547467264191015  1.0000
  N   N8        1.0  0.9625749545004467  0.13494494017883338  0.1593702148939613  1.0000
  O   O1        1.0  0.7299325760738429  0.7964680036526061  0.5966959119239662  1.0000
  O   O2        1.0  0.6505863603614731  0.4056679323847519  0.25256758444135846  1.0000
  O   O3        1.0  0.07153378160425926  0.7889824463512412  0.2775833200832595  1.0000
  O   O4        1.0  0.2709178263769587  0.21404902815328333  0.42182080572641933  1.0000
  O   O5        1.0  0.3399044331142207  0.6040504444506779  0.7646868962815107  1.0000
  O   O6        1.0  0.925303774470308  0.21646096950772886  0.7375535766565521  1.0000
