data_image0
_chemical_formula_structural       Cd2H44C40N8O12
_chemical_formula_sum              "Cd2 H44 C40 N8 O12"
_cell_length_a       9.509104933845244
_cell_length_b       9.813388173827672
_cell_length_c       12.051
_cell_angle_alpha    100.66817972062537
_cell_angle_beta     95.05572544056673
_cell_angle_gamma    106.31553170932085

_space_group_name_H-M_alt    "P 1"
_space_group_IT_number       1

loop_
  _space_group_symop_operation_xyz
  'x, y, z'

loop_
  _atom_site_type_symbol
  _atom_site_label
  _atom_site_symmetry_multiplicity
  _atom_site_fract_x
  _atom_site_fract_y
  _atom_site_fract_z
  _atom_site_occupancy
  Cd  Cd1       1.0  0.651927410412128  0.013525708865096  0.39223281866945564  1.0000
  Cd  Cd2       1.0  0.34806989829857576  0.9864756136680058  0.6077687701890825  1.0000
  H   H1        1.0  0.9473357401691017  0.5633749413537288  0.3264622436848228  1.0000
  H   H2        1.0  0.05266684719686049  0.43662638117937286  0.6735380526203301  1.0000
  H   H3        1.0  0.8044819596565844  0.403820986721648  0.3368094983524585  1.0000
  H   H4        1.0  0.19551957197832343  0.5961803358114608  0.6631915543473639  1.0000
  H   H5        1.0  0.5674462943468157  0.44601645328172873  0.416796418428568  1.0000
  H   H6        1.0  0.4325559565601793  0.5539837809259112  0.5832036904175766  1.0000
  H   H7        1.0  0.5472302923228297  0.5990872531254823  0.20915201811195058  1.0000
  H   H8        1.0  0.4527681648272334  0.4009075394548418  0.7908411979685965  1.0000
  H   H9        1.0  0.7119807094516799  0.3268720231234923  0.7507373808757904  1.0000
  H   H10       1.0  0.28802014926530006  0.6731271227586859  0.2492591478727419  1.0000
  H   H11       1.0  0.7026545042827337  0.1643599998805811  0.7979106603509223  1.0000
  H   H12       1.0  0.2973474565194536  0.8356358810252047  0.2020904316844891  1.0000
  H   H13       1.0  0.4420580737125519  0.2334751967897262  0.9211969320706715  1.0000
  H   H14       1.0  0.5579386547885292  0.7665174191396673  0.07879998471315017  1.0000
  H   H15       1.0  0.184768446568107  0.4522362333078007  0.8765516723737007  1.0000
  H   H16       1.0  0.8152264605756797  0.5477607359234469  0.123454072076747  1.0000
  H   H17       1.0  0.4636844624129707  0.6903422549463301  0.4418056858200289  1.0000
  H   H18       1.0  0.5363132291108528  0.309656890935841  0.558195601532475  1.0000
  H   H19       1.0  0.8924303155714809  0.7999431591118054  0.34778866896407107  1.0000
  H   H20       1.0  0.10756982387340491  0.2000570750958346  0.6522129526714124  1.0000
  H   H21       1.0  0.8528738143821215  0.4792506479722221  0.5481298843345783  1.0000
  H   H22       1.0  0.1471256057906842  0.5207506745608796  0.4518710215412725  1.0000
  H   H23       1.0  0.9773648920828036  0.6489935055971472  0.5408539196179163  1.0000
  H   H24       1.0  0.022636639552104  0.3510078169359545  0.4591471330819061  1.0000
  H   H25       1.0  0.7317605016360602  0.3663847674151128  0.9416034110406315  1.0000
  H   H26       1.0  0.2682361805108613  0.633611113490673  0.05839648412819538  1.0000
  H   H27       1.0  0.5749208363454343  0.1737587785866452  0.055382686577822  1.0000
  H   H28       1.0  0.42507714528319696  0.8262447205973871  0.944617617585422  1.0000
  H   H29       1.0  0.38552035614700486  0.1085844081822103  0.0665116536293837  1.0000
  H   H30       1.0  0.6144807926747831  0.891419091001822  0.9334897005764659  1.0000
  H   H31       1.0  0.2009622051700291  0.2704804392125624  0.11533609829913159  1.0000
  H   H32       1.0  0.7990389900059112  0.7295197949950776  0.8846647669416825  1.0000
  H   H33       1.0  0.017398003449749  0.2537507001818042  0.05784821106657031  1.0000
  H   H34       1.0  0.9826035281851587  0.7462506223512975  0.9421520118266004  1.0000
  H   H35       1.0  0.1538540420205976  0.0029820117710315  0.0530167491251063  1.0000
  H   H36       1.0  0.8461460974242954  0.9970182224366084  0.9469832128970667  1.0000
  H   H37       1.0  0.11937170406349648  0.0820064120288038  0.9367056535803543  1.0000
  H   H38       1.0  0.8806280989224361  0.9179927338533745  0.06329412098281041  1.0000
  H   H39       1.0  0.0362714884641164  0.0633492486015115  0.443056944282155  1.0000
  H   H40       1.0  0.9637265858728269  0.9366477206297361  0.5569415521443517  1.0000
  H   H41       1.0  0.8061010491486371  0.1545171843852486  0.164754546967778  1.0000
  H   H42       1.0  0.1939004824862707  0.8454841381478531  0.8352456759253855  1.0000
  H   H43       1.0  0.23375142811213578  0.1547021997141087  0.2966419539023519  1.0000
  H   H44       1.0  0.7662504399817391  0.8453002111444547  0.7033592862564788  1.0000
  C   C1        1.0  0.863655945161426  0.5178970851945905  0.37777911072466  1.0000
  C   C2        1.0  0.1363452500145144  0.4821031490130494  0.622222584322806  1.0000
  C   C3        1.0  0.53370395104195  0.11085574342532568  0.21311708294216913  1.0000
  C   C4        1.0  0.46629546913085557  0.8891455791077759  0.7868821633203708  1.0000
  C   C5        1.0  0.6179471720941123  0.5572367857374516  0.4101047655665582  1.0000
  C   C6        1.0  0.38205330380974806  0.4427645367956501  0.589895383914623  1.0000
  C   C7        1.0  0.5270469274495041  0.5563225923477901  0.11728890682333305  1.0000
  C   C8        1.0  0.4729538385591567  0.4436830834871657  0.8827110892752402  1.0000
  C   C9        1.0  0.7475515786027811  0.1599479284500092  0.6255447050608893  1.0000
  C   C10       1.0  0.25244649573416206  0.8400490407812384  0.3744546211722692  1.0000
  C   C11       1.0  0.4945393072881643  0.4064536460187682  0.0752366040904988  1.0000
  C   C12       1.0  0.505461795179464  0.5935531181416565  0.9247677285003563  1.0000
  C   C13       1.0  0.7644182063113618  0.23932168118168562  0.7487402371865103  1.0000
  C   C14       1.0  0.2355777102093271  0.7606785530259543  0.2512619206076891  1.0000
  C   C15       1.0  0.9535587699516554  0.3971147252132212  0.8965432352042769  1.0000
  C   C16       1.0  0.04644242522428502  0.6028855089944187  0.10345431080991567  1.0000
  C   C17       1.0  0.4666336605096432  0.349508104446727  0.9570177509073404  1.0000
  C   C18       1.0  0.5333688805021666  0.6504964830627671  0.042983864169507086  1.0000
  C   C19       1.0  0.1038801235706046  0.4737491627523056  0.9305844049857726  1.0000
  C   C20       1.0  0.8961225101495102  0.5262488948044037  0.06941125332107131  1.0000
  C   C21       1.0  0.5671461269767234  0.6762865315803239  0.4190469864476825  1.0000
  C   C22       1.0  0.4328529567371148  0.323713702627316  0.58095373196916  1.0000
  C   C23       1.0  0.7872346369433598  0.7402931287620191  0.36893492163719094  1.0000
  C   C24       1.0  0.21276411031151807  0.259706017120152  0.6310639497073325  1.0000
  C   C25       1.0  0.9365315434360681  0.5328017024224252  0.4994175969700123  1.0000
  C   C26       1.0  0.06347032465780701  0.4672007084361454  0.5005836431888184  1.0000
  C   C27       1.0  0.8494315311203166  0.4236709548573502  0.966389434810502  1.0000
  C   C28       1.0  0.1505767640681839  0.5763249260484358  0.03361292750347637  1.0000
  C   C29       1.0  0.49371393779467343  0.1776549837473382  0.1151202890727916  1.0000
  C   C30       1.0  0.5062876401943939  0.8223430738093782  0.8848769554353737  1.0000
  C   C31       1.0  0.08685398887549668  0.1970032338441854  0.0960759200503603  1.0000
  C   C32       1.0  0.9131475427594111  0.8029980886889163  0.9039251326494622  1.0000
  C   C33       1.0  0.0780091361708841  0.0541267786205921  0.014648633309477096  1.0000
  C   C34       1.0  0.9219899475429542  0.9458734555870479  0.9853512553007137  1.0000
  C   C35       1.0  0.015893492025320196  0.0943523760910523  0.3631769143154102  1.0000
  C   C36       1.0  0.9841055916885182  0.9056478581165877  0.6368221444881215  1.0000
  C   C37       1.0  0.8931625131155981  0.142006883177956  0.22265009809396466  1.0000
  C   C38       1.0  0.10683829924722946  0.8579955276806146  0.7773502388462248  1.0000
  C   C39       1.0  0.1156513933403431  0.1395309427476263  0.2916459173134527  1.0000
  C   C40       1.0  0.8843490825635172  0.8604703797854754  0.7083542321677286  1.0000
  N   N1        1.0  0.7569664877188558  0.5998741124358631  0.37868943854432763  1.0000
  N   N2        1.0  0.2430325959949826  0.4001261217717698  0.621310450065863  1.0000
  N   N3        1.0  0.6734279559566402  0.7895398560025768  0.3926397014791689  1.0000
  N   N4        1.0  0.32657079129823074  0.2104592898795943  0.6073591698653545  1.0000
  N   N5        1.0  0.8773373949884017  0.0957835240760545  0.31918536540331394  1.0000
  N   N6        1.0  0.12266308091545851  0.9042177984570472  0.6808122946579048  1.0000
  N   N7        1.0  0.036054254175056095  0.1706842591511872  0.20311747892469606  1.0000
  N   N8        1.0  0.9639468946467317  0.8293192400328451  0.7968830454745017  1.0000
  O   O1        1.0  0.6125185961909949  0.100983543142469  0.5758903887464584  1.0000
  O   O2        1.0  0.38748471044705457  0.8990166910651709  0.42410813389836477  1.0000
  O   O3        1.0  0.5696875034333927  0.1874216164601918  0.314582363976065  1.0000
  O   O4        1.0  0.4303087959004159  0.8125764410965175  0.6854178326987892  1.0000
  O   O5        1.0  0.5333646717000846  0.9794929174917542  0.1843059223092354  1.0000
  O   O6        1.0  0.4666385885838053  0.0205105816922782  0.815695578720586  1.0000
  O   O7        1.0  0.9179585337463932  0.2980858146038727  0.7940525989607253  1.0000
  O   O8        1.0  0.0820366171480487  0.7019187729056213  0.20595182145883936  1.0000
  O   O9        1.0  0.8576609366010287  0.1568157277649647  0.5766483435455357  1.0000
  O   O10       1.0  0.1423378570079947  0.8431801531408212  0.4233525282539148  1.0000
  O   O11       1.0  0.4933689960409353  0.3232337510977459  0.1557591160473706  1.0000
  O   O12       1.0  0.5066319090301974  0.67676212980804  0.844238583349437  1.0000
