data_image0
_chemical_formula_structural       CdH12C16N2O4
_chemical_formula_sum              "Cd1 H12 C16 N2 O4"
_cell_length_a       5.065041759502078
_cell_length_b       7.967736012969438
_cell_length_c       9.58482465860422
_cell_angle_alpha    68.0856927511717
_cell_angle_beta     80.84890532144277
_cell_angle_gamma    74.72734824803419

_space_group_name_H-M_alt    "P 1"
_space_group_IT_number       1

loop_
  _space_group_symop_operation_xyz
  'x, y, z'

loop_
  _atom_site_type_symbol
  _atom_site_label
  _atom_site_symmetry_multiplicity
  _atom_site_fract_x
  _atom_site_fract_y
  _atom_site_fract_z
  _atom_site_occupancy
  Cd  Cd1       1.0  0.4999944768266501  0.5000010820029388  0.49999886286828854  1.0000
  H   H1        1.0  0.21993482516752033  0.19002767921879377  0.47706465994073716  1.0000
  H   H2        1.0  0.7800686104006614  0.809972997398198  0.5229343693053252  1.0000
  H   H3        1.0  0.835900234682576  0.42909502692874907  0.20297747431398966  1.0000
  H   H4        1.0  0.16410028996318718  0.5709084677110212  0.7970178139982736  1.0000
  H   H5        1.0  0.24382289667916274  0.987050699592828  0.32509245640574863  1.0000
  H   H6        1.0  0.7561863259733954  0.012944383072259293  0.6749098714402635  1.0000
  H   H7        1.0  0.563524211701761  0.025890624690191495  0.0935099573008102  1.0000
  H   H8        1.0  0.436480554732661  0.9741058785974557  0.9064912744942718  1.0000
  H   H9        1.0  0.08618596474364179  0.31675517131101566  0.9878577206443282  1.0000
  H   H10       1.0  0.9138129885360581  0.6832469574987601  0.012137075100064025  1.0000
  H   H11       1.0  0.6464839234522158  0.23169005919218216  0.8511572969632654  1.0000
  H   H12       1.0  0.35350906307407837  0.7683120507463028  0.1488432308807007  1.0000
  C   C1        1.0  0.36422452199906274  0.19525445638062414  0.3789322946935769  1.0000
  C   C2        1.0  0.6357793542944915  0.804744832634384  0.6210671201298509  1.0000
  C   C3        1.0  0.7064332291538732  0.33132072387675754  0.22405412013053902  1.0000
  C   C4        1.0  0.29357063844956593  0.6686785756616658  0.7759442488759803  1.0000
  C   C5        1.0  0.3717254607753233  0.08837413088505028  0.2910509993783492  1.0000
  C   C6        1.0  0.6282817497857991  0.9116209735520258  0.7089504503224262  1.0000
  C   C7        1.0  0.549060464335909  0.11034368432559209  0.16243365576547572  1.0000
  C   C8        1.0  0.45094719564070823  0.8896500219860924  0.837569225329574  1.0000
  C   C9        1.0  0.7189277442645831  0.23703235329622174  0.12444585440469068  1.0000
  C   C10       1.0  0.28107702216983926  0.7629641499914183  0.8755553773903915  1.0000
  C   C11       1.0  0.8989115492455112  0.27388194569410723  0.9863086772272853  1.0000
  C   C12       1.0  0.10108630815395968  0.7261173875900652  0.013690194794250555  1.0000
  C   C13       1.0  0.8403664239323445  0.2629411916473998  0.8582016804891667  1.0000
  C   C14       1.0  0.15962943875591412  0.7370581423619451  0.14179840502095695  1.0000
  C   C15       1.0  0.014184634087371278  0.3049639385272727  0.7141608106156383  1.0000
  C   C16       1.0  0.9858086103189689  0.695043689523736  0.2858400988810104  1.0000
  N   N1        1.0  0.5304963840107959  0.31374103887088006  0.346666227837055  1.0000
  N   N2        1.0  0.46950258664913497  0.6862610688920724  0.6533306595411545  1.0000
  O   O1        1.0  0.9120024800459845  0.3096175458056933  0.5987992094520322  1.0000
  O   O2        1.0  0.08799163712100004  0.6903873175647561  0.4012014253824391  1.0000
  O   O3        1.0  0.252531754045826  0.3311071204843969  0.7130977741741304  1.0000
  O   O4        1.0  0.7474647811775197  0.6688963756057191  0.2868999411153013  1.0000
