data_image0
_chemical_formula_structural       Cd4H36C48N16O16
_chemical_formula_sum              "Cd4 H36 C48 N16 O16"
_cell_length_a       10.57808773
_cell_length_b       11.580964194964423
_cell_length_c       11.9871
_cell_angle_alpha    110.19397947050449
_cell_angle_beta     90.0
_cell_angle_gamma    90.0

_space_group_name_H-M_alt    "P 1"
_space_group_IT_number       1

loop_
  _space_group_symop_operation_xyz
  'x, y, z'

loop_
  _atom_site_type_symbol
  _atom_site_label
  _atom_site_symmetry_multiplicity
  _atom_site_fract_x
  _atom_site_fract_y
  _atom_site_fract_z
  _atom_site_occupancy
  Cd  Cd1       1.0  0.0311294449814525  0.8198692742592328  0.9370404411370712  1.0000
  Cd  Cd2       1.0  0.5311290796035024  0.6801306021331825  0.562959183947271  1.0000
  Cd  Cd3       1.0  0.9688707696130975  0.1801303366551892  0.06295892856331159  1.0000
  Cd  Cd4       1.0  0.4688711349910477  0.3198690087812466  0.4370410199832476  1.0000
  H   H1        1.0  0.2506558905236105  0.6040063635303738  0.7083817450230113  1.0000
  H   H2        1.0  0.7506564704961107  0.8959935128620415  0.7916178800613308  1.0000
  H   H3        1.0  0.7493433787204964  0.39599324738404823  0.2916176246773716  1.0000
  H   H4        1.0  0.2493427987479961  0.1040060980523805  0.20838148963905914  1.0000
  H   H5        1.0  0.4403981247752426  0.8828442788988868  0.23129242426461621  1.0000
  H   H6        1.0  0.9403977593972925  0.6171555974935288  0.2687072008197262  1.0000
  H   H7        1.0  0.5596020898193075  0.117156252057093  0.7687072522731736  1.0000
  H   H8        1.0  0.05960245519725759  0.3828440134208933  0.7312930031107854  1.0000
  H   H9        1.0  0.3206987960951651  0.971100185500447  0.4298887921167989  1.0000
  H   H10       1.0  0.8206974853667646  0.5288987708504109  0.07011136036027205  1.0000
  H   H11       1.0  0.6793023638498425  0.028899425413982303  0.5701105775835842  1.0000
  H   H12       1.0  0.1793017838773423  0.4711008400640111  0.9298888435702465  1.0000
  H   H13       1.0  0.2692452617804122  0.8190927591833272  0.4122651152879867  1.0000
  H   H14       1.0  0.7692448964024622  0.6809071172090883  0.08773450979635561  1.0000
  H   H15       1.0  0.7307540074636947  0.1809077717726595  0.5877353954799317  1.0000
  H   H16       1.0  0.2307543728416377  0.31909249370533393  0.9122648599040275  1.0000
  H   H17       1.0  0.0416474140926795  0.8510605231970205  0.22720108285138  1.0000
  H   H18       1.0  0.5416470487147294  0.6489393531953952  0.2727985422329624  1.0000
  H   H19       1.0  0.9583528005018708  0.14893908771740172  0.772798286849003  1.0000
  H   H20       1.0  0.4583522205293704  0.3510602577190269  0.7272016616975491  1.0000
  H   H21       1.0  0.1293409579237803  0.1160788833913458  0.40209005177269563  1.0000
  H   H22       1.0  0.6293396471953798  0.3839204620450829  0.09790989677386355  1.0000
  H   H23       1.0  0.8706592566707697  0.8839207275230764  0.597910152157823  1.0000
  H   H24       1.0  0.3706605673991703  0.6160800689108967  0.9020906139940549  1.0000
  H   H25       1.0  0.0790984175360023  0.8020397888847626  0.510629739784882  1.0000
  H   H26       1.0  0.5790989975085026  0.6979610075492104  0.9893718605971243  1.0000
  H   H27       1.0  0.9209027424089982  0.19796074207121714  0.4893707709830365  1.0000
  H   H28       1.0  0.4209012170860476  0.3020395234067763  0.010629484400922706  1.0000
  H   H29       1.0  0.3503657839298313  0.8384283525900997  0.0008585826427563039  1.0000
  H   H30       1.0  0.8503654185518812  0.6615715238023157  0.4991410424415861  1.0000
  H   H31       1.0  0.6496344306647188  0.1615712583243223  0.9991407870576267  1.0000
  H   H32       1.0  0.1496338506922186  0.3384280871121064  0.500858327258797  1.0000
  H   H33       1.0  0.2953700214774102  0.0850688826407122  0.735171443899162  1.0000
  H   H34       1.0  0.7953706014499106  0.4149313828372811  0.7648288114847971  1.0000
  H   H35       1.0  0.704630193117147  0.9149307282737099  0.2648287600313565  1.0000
  H   H36       1.0  0.2046296131446468  0.5850691481187056  0.23517169928312137  1.0000
  C   C1        1.0  0.2596093046394117  0.7005619650368828  0.7183678614806297  1.0000
  C   C2        1.0  0.7596089392614616  0.7994379113555325  0.7816317636037196  1.0000
  C   C3        1.0  0.7403909099551385  0.2994394859606615  0.2816312876644317  1.0000
  C   C4        1.0  0.2403912753330886  0.20056169955888953  0.21836760609667036  1.0000
  C   C5        1.0  0.3455842013516772  0.8708579774664785  0.19495184442181565  1.0000
  C   C6        1.0  0.8455838359737271  0.6291428189674947  0.3050480874999266  1.0000
  C   C7        1.0  0.65441601324288  0.1291425534895012  0.8050478321159671  1.0000
  C   C8        1.0  0.154416378620823  0.37085679194692744  0.6949512822004564  1.0000
  C   C9        1.0  0.11877477593958471  0.9538402058510798  0.4509012988879632  1.0000
  C   C10       1.0  0.6187744105616346  0.546158750499778  0.049098853589107684  1.0000
  C   C11       1.0  0.8812254386549725  0.0461594050633494  0.5490980708124197  1.0000
  C   C12       1.0  0.3812267493833659  0.45384086041464405  0.9509005161112754  1.0000
  C   C13       1.0  0.24425681332480306  0.9037034611275914  0.3954505334486313  1.0000
  C   C14       1.0  0.744256447946853  0.596296415264824  0.10454909163571095  1.0000
  C   C15       1.0  0.755743401269747  0.09629614978683072  0.6045488362517587  1.0000
  C   C16       1.0  0.2557437666476972  0.40370319564959806  0.8954511122948005  1.0000
  C   C17       1.0  0.1372488144414348  0.8531618981180813  0.19551958849348233  1.0000
  C   C18       1.0  0.6372484490634847  0.6468370582327694  0.30447972975345994  1.0000
  C   C19       1.0  0.8627514001531154  0.1468386328378983  0.8044792538141792  1.0000
  C   C20       1.0  0.3627508201806151  0.353161632640095  0.69552100156978  1.0000
  C   C21       1.0  0.2220732196555559  0.8962226032102691  0.7727881251218562  1.0000
  C   C22       1.0  0.7220728542776058  0.6037772731821534  0.7272114999624861  1.0000
  C   C23       1.0  0.7779269949390013  0.1037779277457176  0.22721238564606236  1.0000
  C   C24       1.0  0.2779264149665011  0.3962223377322758  0.2727878697378969  1.0000
  C   C25       1.0  0.16013763954669  0.0149046732579805  0.8369251168413568  1.0000
  C   C26       1.0  0.6601382195191903  0.48509467217844815  0.6630748317051952  1.0000
  C   C27       1.0  0.8398616296974097  0.9850958576979992  0.16307455969642604  1.0000
  C   C28       1.0  0.3398610497249095  0.5149049387359739  0.3369262064554519  1.0000
  C   C29       1.0  0.0725102702471148  0.06491721237098601  0.44507949347655534  1.0000
  C   C30       1.0  0.5725099048691646  0.4350821330654497  0.05492045506999692  1.0000
  C   C31       1.0  0.9274908896978857  0.9350833185850007  0.5549201830612276  1.0000
  C   C32       1.0  0.4274903097253855  0.5649174778489794  0.9450797488605146  1.0000
  C   C33       1.0  0.0446857704402888  0.8892919301453048  0.5063644649654079  1.0000
  C   C34       1.0  0.544686350412789  0.6107079462471106  0.9936359943490699  1.0000
  C   C35       1.0  0.9553144441542684  0.1107086008106819  0.4936360458025106  1.0000
  C   C36       1.0  0.4553129188313108  0.38929074462575397  0.0063647369741773  1.0000
  C   C37       1.0  0.2996902730357647  0.8470813434537662  0.08195763431557172  1.0000
  C   C38       1.0  0.7996899076578217  0.6529194529802141  0.4180422976061705  1.0000
  C   C39       1.0  0.7003099415587855  0.1529201075437783  0.9180423490596112  1.0000
  C   C40       1.0  0.20031030693673563  0.34708015793421515  0.5819579063243481  1.0000
  C   C41       1.0  0.40784403666502567  0.9452240166497816  0.6513588475292236  1.0000
  C   C42       1.0  0.9078446166375258  0.5547767797841914  0.8486419186226539  1.0000
  C   C43       1.0  0.5921561779295246  0.0547755942646404  0.3486413564012877  1.0000
  C   C44       1.0  0.0921555979570243  0.44522467121334597  0.1513588989826644  1.0000
  C   C45       1.0  0.3251996095895464  0.868009528799398  0.6948319348049664  1.0000
  C   C46       1.0  0.8251992442116034  0.6319903475930176  0.8051685245095042  1.0000
  C   C47       1.0  0.6748006050050037  0.1319910021565818  0.3051685759629521  1.0000
  C   C48       1.0  0.1748000250325035  0.36800926332141165  0.19483167942100718  1.0000
  N   N1        1.0  0.1822077911618933  0.7893257345790801  0.7869403124574816  1.0000
  N   N2        1.0  0.6822074257839432  0.7106732217717777  0.7130590057894537  1.0000
  N   N3        1.0  0.8177924234326639  0.210673876335342  0.21305905724290133  1.0000
  N   N4        1.0  0.3177918434601565  0.2893263891426514  0.28694036391092936  1.0000
  N   N5        1.0  0.169922016708405  0.8360859267805482  0.08360299799545604  1.0000
  N   N6        1.0  0.6699207059800045  0.663914869653432  0.41639693392628624  1.0000
  N   N7        1.0  0.8300791432366027  0.1639146041754387  0.9163966785423269  1.0000
  N   N8        1.0  0.3300785632641023  0.3360847412609971  0.5836032700042252  1.0000
  N   N9        1.0  0.24134135253574837  0.8756210326181204  0.2658206513187409  1.0000
  N   N10       1.0  0.7413400418073479  0.624378843774295  0.23417980799572993  1.0000
  N   N11       1.0  0.7586598074092521  0.1243785782963016  0.7341795526117707  1.0000
  N   N12       1.0  0.2586592274367518  0.3756216871816918  0.7658198685420529  1.0000
  N   N13       1.0  0.347730146874099  0.743911563178635  0.6617879210341113  1.0000
  N   N14       1.0  0.847729781496149  0.7560883132137804  0.8382125382803592  1.0000
  N   N15       1.0  0.6522700677204512  0.256088047735787  0.33821228289639993  1.0000
  N   N16       1.0  0.1522704330984013  0.24391129770064177  0.16178766565015218  1.0000
  O   O1        1.0  0.1935765756784846  0.1109938136940087  0.8152776612134998  1.0000
  O   O2        1.0  0.6935781010014352  0.3890055317424199  0.6847214531029238  1.0000
  O   O3        1.0  0.8064217482151648  0.8890057972204134  0.18472170848688313  1.0000
  O   O4        1.0  0.3064221135931149  0.6109940791720021  0.3152787508275878  1.0000
  O   O5        1.0  0.0745475004677445  0.014476853932983104  0.9116862924268148  1.0000
  O   O6        1.0  0.5745471350897944  0.4855224915034455  0.5883144903498729  1.0000
  O   O7        1.0  0.9254517687763624  0.9855227569814389  0.08831391150370387  1.0000
  O   O8        1.0  0.425451188803855  0.5144771194109766  0.411686547810774  1.0000
  O   O9        1.0  0.3778641378312741  0.0623880181249277  0.6787480979662133  1.0000
  O   O10       1.0  0.8778647178037743  0.4376122473530657  0.8212521574177457  1.0000
  O   O11       1.0  0.6221351314128327  0.9376125128310591  0.3212524128017051  1.0000
  O   O12       1.0  0.12213549679078281  0.5623882836029139  0.17874835335017275  1.0000
  O   O13       1.0  0.5042329139389707  0.901421758060934  0.5916688293880554  1.0000
  O   O14       1.0  0.0042332793169209  0.5985781183314813  0.9083316299264154  1.0000
  O   O15       1.0  0.495766355305129  0.098577852853488  0.4083313745424561  1.0000
  O   O16       1.0  0.9957669352776293  0.40142241262450545  0.091668880841496  1.0000
