data_image0
_chemical_formula_structural       Mn2H12C24N8O16
_chemical_formula_sum              "Mn2 H12 C24 N8 O16"
_cell_length_a       8.05477920984916
_cell_length_b       8.061157745526081
_cell_length_c       12.206594273957988
_cell_angle_alpha    90.04545936919881
_cell_angle_beta     109.61070862748996
_cell_angle_gamma    119.30967562268194

_space_group_name_H-M_alt    "P 1"
_space_group_IT_number       1

loop_
  _space_group_symop_operation_xyz
  'x, y, z'

loop_
  _atom_site_type_symbol
  _atom_site_label
  _atom_site_symmetry_multiplicity
  _atom_site_fract_x
  _atom_site_fract_y
  _atom_site_fract_z
  _atom_site_occupancy
  Mn  Mn1       1.0  0.8061534076357545  0.051979340612255995  0.7600826468262979  1.0000
  Mn  Mn2       1.0  0.20956976504122343  0.9541686113615667  0.2606023130042984  1.0000
  H   H1        1.0  0.6800017134151091  0.5150016629323345  0.3886876636025676  1.0000
  H   H2        1.0  0.6141119581751224  0.27414045931746495  0.09797608427625448  1.0000
  H   H3        1.0  0.3237635121603829  0.48356825266210984  0.5979249457693072  1.0000
  H   H4        1.0  0.3740880486885557  0.7086432462329241  0.8886785783999328  1.0000
  H   H5        1.0  0.7944924621013598  0.4727597147142362  0.7495001620268126  1.0000
  H   H6        1.0  0.179425172236506  0.031369916751863486  0.7413731151703901  1.0000
  H   H7        1.0  0.20922857548903556  0.5616914086756353  0.2413043666713648  1.0000
  H   H8        1.0  0.7755713490792712  0.9532557958734597  0.24992557056901887  1.0000
  H   H9        1.0  0.7354355194942457  0.6504890927948139  0.5826781666026123  1.0000
  H   H10       1.0  0.5275033849970256  0.13112830840176307  0.8960123476809726  1.0000
  H   H11       1.0  0.2638954111650234  0.36804968827664186  0.39584768795516106  1.0000
  H   H12       1.0  0.4314022063707553  0.8460831219122865  0.08268530689214507  1.0000
  C   C1        1.0  0.8058895030902274  0.038097570988227886  0.5239562860037734  1.0000
  C   C2        1.0  0.007861973181050532  0.2651820766492179  0.993535323880053  1.0000
  C   C3        1.0  0.22970075899836218  0.9859314038716885  0.4940019109974969  1.0000
  C   C4        1.0  0.986794708346487  0.7184301161832849  0.024391588965599367  1.0000
  C   C5        1.0  0.7803567129819982  0.20984199936983564  0.5352997902534824  1.0000
  C   C6        1.0  0.1625406134412231  0.23681185294068996  0.9703689616765061  1.0000
  C   C7        1.0  0.23484759389316417  0.8082171832312922  0.4708589165312702  1.0000
  C   C8        1.0  0.8260560566936729  0.7549352924817683  0.03579147065156713  1.0000
  C   C9        1.0  0.7397210810370394  0.2995693273829758  0.44031375417844737  1.0000
  C   C10       1.0  0.34871588047403174  0.2835147844381254  0.057181174181344795  1.0000
  C   C11       1.0  0.2743998422694531  0.7085081297185807  0.557493976957744  1.0000
  C   C12       1.0  0.6417300502180935  0.7010332401941921  0.9405513463410812  1.0000
  C   C13       1.0  0.6856662525731138  0.22064353105337625  0.31221524998353084  1.0000
  C   C14       1.0  0.40384566385012016  0.35397756675885717  0.18615494057690543  1.0000
  C   C15       1.0  0.3324432616686081  0.7817516754936873  0.6864606361909509  1.0000
  C   C16       1.0  0.5928433591942619  0.6270675192335202  0.8124378301345487  1.0000
  C   C17       1.0  0.7781243021520721  0.42379610725123473  0.6612747572320216  1.0000
  C   C18       1.0  0.22785319508402316  0.1033635732559972  0.8312042268535932  1.0000
  C   C19       1.0  0.22781569175797506  0.6033706722264683  0.3312793574914679  1.0000
  C   C20       1.0  0.7369660810684024  0.8820881187184497  0.1616311259855364  1.0000
  C   C21       1.0  0.7443222270433267  0.5213426725185712  0.5702744448503339  1.0000
  C   C22       1.0  0.4180339068776745  0.1556267429186207  0.9157054528188979  1.0000
  C   C23       1.0  0.2596345689808429  0.497411078214455  0.415638557617001  1.0000
  C   C24       1.0  0.5485532964894801  0.8250897870518656  0.07043166765402725  1.0000
  N   N1        1.0  0.7944205730051831  0.26862972264329693  0.6432153330023098  1.0000
  N   N2        1.0  0.09708554512555881  0.14440844490201954  0.8558280879148441  1.0000
  N   N3        1.0  0.21244931062451397  0.7591940049741622  0.35619054703093406  1.0000
  N   N4        1.0  0.8745261578196659  0.8481696371795308  0.14371063528156464  1.0000
  N   N5        1.0  0.7246561682066213  0.45571011701630226  0.4620968148453671  1.0000
  N   N6        1.0  0.4787816789239017  0.24706742410653956  0.02878695397871672  1.0000
  N   N7        1.0  0.2819451863550313  0.5499274058409823  0.5288922135117886  1.0000
  N   N8        1.0  0.506878942868667  0.737467831611866  0.9622193351198121  1.0000
  O   O1        1.0  0.8035088389166418  0.9519131278199495  0.6149064725732529  1.0000
  O   O2        1.0  0.830568424000006  0.17976965458584  0.9011767823958436  1.0000
  O   O3        1.0  0.2239556073041625  0.0714891322852722  0.4018734540520015  1.0000
  O   O4        1.0  0.16355172399202902  0.810750038863631  0.11554172794564006  1.0000
  O   O5        1.0  0.8258739397517446  0.9864674253937692  0.4367214458557882  1.0000
  O   O6        1.0  0.037489653633329616  0.3515176107922287  0.08760249969583359  1.0000
  O   O7        1.0  0.23584511005535794  0.04961762383473459  0.5877414755004082  1.0000
  O   O8        1.0  0.9516566418161926  0.6121879358723844  0.9368642484125542  1.0000
  O   O9        1.0  0.5292015046144982  0.05001010711384878  0.2726584651100268  1.0000
  O   O10       1.0  0.2988360975583219  0.2236864908138827  0.23466722388445757  1.0000
  O   O11       1.0  0.5106811646943754  0.9356922545300036  0.7352966020817036  1.0000
  O   O12       1.0  0.7236962356993785  0.7445385931966298  0.772844426001072  1.0000
  O   O13       1.0  0.7863276829244936  0.3295504663340836  0.2562625750910001  1.0000
  O   O14       1.0  0.5454749865434748  0.5234974122381998  0.2381100459117391  1.0000
  O   O15       1.0  0.21461133147300157  0.6908897982921046  0.7382162185265884  1.0000
  O   O16       1.0  0.42862219776781524  0.46993453152722947  0.7568453663028691  1.0000
