data_image0
_chemical_formula_structural       Ag2H18C20S2N6O6F6
_chemical_formula_sum              "Ag2 H18 C20 S2 N6 O6 F6"
_cell_length_a       7.748692585169013
_cell_length_b       8.01466154143157
_cell_length_c       12.001276435207506
_cell_angle_alpha    90.28298841906647
_cell_angle_beta     95.33219961681453
_cell_angle_gamma    111.73535410369152

_space_group_name_H-M_alt    "P 1"
_space_group_IT_number       1

loop_
  _space_group_symop_operation_xyz
  'x, y, z'

loop_
  _atom_site_type_symbol
  _atom_site_label
  _atom_site_symmetry_multiplicity
  _atom_site_fract_x
  _atom_site_fract_y
  _atom_site_fract_z
  _atom_site_occupancy
  Ag  Ag1       1.0  0.14913449775739446  0.42279935723204437  0.2169177336976631  1.0000
  Ag  Ag2       1.0  0.8508672398150523  0.5772027212775371  0.7830833919559054  1.0000
  H   H1        1.0  0.5934640619295878  0.3725030681202952  0.42436779204844305  1.0000
  H   H2        1.0  0.4065361241996185  0.627494993294391  0.5756298867879792  1.0000
  H   H3        1.0  0.7093672616535471  0.30814942931855444  0.5426618443108353  1.0000
  H   H4        1.0  0.29063033008265643  0.6918486319033619  0.4573365095015305  1.0000
  H   H5        1.0  0.5965453589921738  0.14972774225212498  0.42786125461732644  1.0000
  H   H6        1.0  0.4034527546773035  0.8502716633897265  0.5721371374524296  1.0000
  H   H7        1.0  0.18876758262103974  0.7904618945955021  0.23794862426122879  1.0000
  H   H8        1.0  0.8112276922983241  0.20954020970011566  0.7620487742591352  1.0000
  H   H9        1.0  0.9699363841969201  0.7378790075046879  0.1564963377014621  1.0000
  H   H10       1.0  0.030057054524768  0.2621150283470968  0.8435009102921711  1.0000
  H   H11       1.0  0.24704527102051096  0.999636914658524  0.9667810057853146  1.0000
  H   H12       1.0  0.7529492151568462  0.0003598140743648  0.033215485711870905  1.0000
  H   H13       1.0  0.38003618513113924  0.892890255876054  0.8148824497256797  1.0000
  H   H14       1.0  0.6199668325698937  0.10710509880240691  0.185117888682619  1.0000
  H   H15       1.0  0.4064791491189084  0.5868620080782845  0.8280745583886144  1.0000
  H   H16       1.0  0.5935298245752847  0.4131386983011042  0.17193033515841452  1.0000
  H   H17       1.0  0.3005030821254379  0.4096949028789396  0.9951779687179824  1.0000
  H   H18       1.0  0.6995033007648958  0.5903058073488977  0.004826766793747996  1.0000
  C   C1        1.0  0.794238093725184  0.8296828012325932  0.3975381115272114  1.0000
  C   C2        1.0  0.20576210049907934  0.17032197400654067  0.6024620995946179  1.0000
  C   C3        1.0  0.8457468631510066  0.35185637980163154  0.39669425097150673  1.0000
  C   C4        1.0  0.15425331221077698  0.6481416694893767  0.6033059268986349  1.0000
  C   C5        1.0  0.6769803396889884  0.29223718375154556  0.45133743150685757  1.0000
  C   C6        1.0  0.3230172520472223  0.7077608774703705  0.5486609223055012  1.0000
  C   C7        1.0  0.20330623654184168  0.7612270800653391  0.0621696322686773  1.0000
  C   C8        1.0  0.7966898046679065  0.2387736698036704  0.9378294730344197  1.0000
  C   C9        1.0  0.12109529196393964  0.8170081222979563  0.1587753274578674  1.0000
  C   C10       1.0  0.8788986911426379  0.18299398796312255  0.8412211590336085  1.0000
  C   C11       1.0  0.14754176477439523  0.005575674982082999  0.1625378776808972  1.0000
  C   C12       1.0  0.8524514601368551  0.9944345035300516  0.8374594343132459  1.0000
  C   C13       1.0  0.25933451082108405  0.8687288697874748  0.9712563288493996  1.0000
  C   C14       1.0  0.7406623074464634  0.13127053777860453  0.028741984202703495  1.0000
  C   C15       1.0  0.3340043869841906  0.8081473371698918  0.8855098665364592  1.0000
  C   C16       1.0  0.6659991490609728  0.1918493578872713  0.1144913431404717  1.0000
  C   C17       1.0  0.3494148815763936  0.6407047580229985  0.8927251277659138  1.0000
  C   C18       1.0  0.6505909829698099  0.3592946118261295  0.107278736477177  1.0000
  C   C19       1.0  0.2899798807896871  0.540975011823626  0.9859543152383949  1.0000
  C   C20       1.0  0.7100239148859229  0.45902570629388617  0.014049429226794492  1.0000
  S   S1        1.0  0.5961266491823238  0.7507437678040392  0.2847963660579467  1.0000
  S   S2        1.0  0.40387404093444706  0.24925561782444566  0.7152055160920625  1.0000
  N   N1        1.0  0.9798932350434058  0.3988607862064981  0.3503752827139195  1.0000
  N   N2        1.0  0.020109279586840438  0.6011399500001531  0.6496250506886696  1.0000
  N   N3        1.0  0.21888792833784282  0.5991873981241087  0.06952361361764052  1.0000
  N   N4        1.0  0.781111991899408  0.4008133378897654  0.9304773947608853  1.0000
  N   N5        1.0  0.17076333869236043  0.15747924267261482  0.16642267374929534  1.0000
  N   N6        1.0  0.8292259613713712  0.8425107839739568  0.8335701363806507  1.0000
  O   O1        1.0  0.4986130474914816  0.5615490206288669  0.3093846842890215  1.0000
  O   O2        1.0  0.5013912772956814  0.43845304999103263  0.690617432411088  1.0000
  O   O3        1.0  0.687862810826303  0.7796529018855054  0.1819591903952258  1.0000
  O   O4        1.0  0.31213322679430183  0.22034784394227103  0.8180407479191062  1.0000
  O   O5        1.0  0.4935469089106661  0.8671976745884608  0.3043033525603462  1.0000
  O   O6        1.0  0.5064501393574333  0.1327990179661498  0.6956999610620542  1.0000
  F   F1        1.0  0.893574510901722  0.0076366635459522  0.38923919349676345  1.0000
  F   F2        1.0  0.10642930271959725  0.9923640747777044  0.6107603859122293  1.0000
  F   F3        1.0  0.9125525039267047  0.7412059177850808  0.38934102677359317  1.0000
  F   F4        1.0  0.08745078417220499  0.2587934720774143  0.6106593473892445  1.0000
  F   F5        1.0  0.7324245546924146  0.8036306776050424  0.5005787031154441  1.0000
  F   F6        1.0  0.2675821129523541  0.1963740839717332  0.4994227361058777  1.0000
