data_image0
_chemical_formula_structural       Cu2H36C36N8O10
_chemical_formula_sum              "Cu2 H36 C36 N8 O10"
_cell_length_a       8.25631335879551
_cell_length_b       9.787666754672108
_cell_length_c       11.969269975653857
_cell_angle_alpha    104.58253373601437
_cell_angle_beta     97.18093413074315
_cell_angle_gamma    104.54445835819314

_space_group_name_H-M_alt    "P 1"
_space_group_IT_number       1

loop_
  _space_group_symop_operation_xyz
  'x, y, z'

loop_
  _atom_site_type_symbol
  _atom_site_label
  _atom_site_symmetry_multiplicity
  _atom_site_fract_x
  _atom_site_fract_y
  _atom_site_fract_z
  _atom_site_occupancy
  Cu  Cu1       1.0  4.3978200138962e-06  2.153437314699106e-06  0.99999911306314  1.0000
  Cu  Cu2       1.0  0.5000034571251959  0.5000039590063635  0.5000050177755284  1.0000
  H   H1        1.0  0.5471225782500466  0.5787798644683306  0.8216041131939562  1.0000
  H   H2        1.0  0.45288049049659673  0.4212245755070755  0.17839071270772422  1.0000
  H   H3        1.0  0.3497027841364186  0.33298607997866014  0.8008230809197983  1.0000
  H   H4        1.0  0.6503006437051297  0.6670194425275612  0.19917031963464638  1.0000
  H   H5        1.0  0.0002744872728755977  0.892426474795727  0.22525786115583207  1.0000
  H   H6        1.0  0.9997266841872802  0.10757247557051389  0.7747382190681122  1.0000
  H   H7        1.0  0.360435906346396  0.9258603026579166  0.005397430566013322  1.0000
  H   H8        1.0  0.6395739894447062  0.0741319967210785  0.9946038649352006  1.0000
  H   H9        1.0  0.48131361727675437  0.8267964693360029  0.18793867489944918  1.0000
  H   H10       1.0  0.5186826154862344  0.1731915679836717  0.8120640132420647  1.0000
  H   H11       1.0  0.16244445696467844  0.8385909651443059  0.394255364591885  1.0000
  H   H12       1.0  0.8375435442412352  0.16139817816502244  0.6057410364625113  1.0000
  H   H13       1.0  0.3769220327035967  0.8319281280508478  0.3931596178781547  1.0000
  H   H14       1.0  0.623068787602513  0.16806882383951197  0.606844422987372  1.0000
  H   H15       1.0  0.26973024072075463  0.582877857187569  0.24682103956160972  1.0000
  H   H16       1.0  0.7302715689589193  0.4171156581169626  0.753182358015259  1.0000
  H   H17       1.0  0.19788445747741426  0.5879955552576207  0.38166333410229214  1.0000
  H   H18       1.0  0.8021100220309948  0.4119980052826974  0.6183378137918893  1.0000
  H   H19       1.0  0.060479476362431214  0.41298924410173043  0.1097951699913438  1.0000
  H   H20       1.0  0.9395190359877362  0.5870020186129495  0.8902024985005212  1.0000
  H   H21       1.0  0.8433252534401704  0.41622926593448284  0.10536919280737321  1.0000
  H   H22       1.0  0.15667081655472972  0.5837653769264152  0.8946314639641956  1.0000
  H   H23       1.0  0.9222027070884167  0.20768720762369952  0.1726711872694366  1.0000
  H   H24       1.0  0.07779014418314036  0.7923086063474262  0.827331952811214  1.0000
  H   H25       1.0  0.056315241716639326  0.34278863156678346  0.3001351446245195  1.0000
  H   H26       1.0  0.9436856811217852  0.6572059554852103  0.6998650544641977  1.0000
  H   H27       1.0  0.8545231228925375  0.5304669979763473  0.40724305646070047  1.0000
  H   H28       1.0  0.1454988790485175  0.4695276954374777  0.5927814136095649  1.0000
  H   H29       1.0  0.6436119399637902  0.08738868850949191  0.19483022910375777  1.0000
  H   H30       1.0  0.3563697722969368  0.9126280814762142  0.8051611780795085  1.0000
  H   H31       1.0  0.4039069941079063  0.1731614916996591  0.3203657429373408  1.0000
  H   H32       1.0  0.5960865188669261  0.8268574414555162  0.6796312215731463  1.0000
  H   H33       1.0  0.004212862338732713  0.8469511431851232  0.6361798352790161  1.0000
  H   H34       1.0  0.9957894823347573  0.15304776299652192  0.3638138235044579  1.0000
  H   H35       1.0  0.7466751483358749  0.9343158142846095  0.33934146021164924  1.0000
  H   H36       1.0  0.2533296300316579  0.06568306948938131  0.6606523891885346  1.0000
  C   C1        1.0  0.5267827468448587  0.5440300718210906  0.8997061982244361  1.0000
  C   C2        1.0  0.47321499949018175  0.455976622215843  0.1002878171898161  1.0000
  C   C3        1.0  0.6122055589152424  0.6395283443705467  0.011638256233950981  1.0000
  C   C4        1.0  0.3877917469408416  0.36048056990619415  0.9883561688425716  1.0000
  C   C5        1.0  0.4151998325788853  0.4059743777105354  0.8883195472841123  1.0000
  C   C6        1.0  0.584798360118441  0.5940334648187431  0.1116780762805618  1.0000
  C   C7        1.0  0.7321788309762596  0.7893777909031883  0.026311896301720573  1.0000
  C   C8        1.0  0.2678177043950996  0.21063228306972093  0.9736860416168726  1.0000
  C   C9        1.0  0.11443901721238357  0.8901583045839062  0.19024747677432433  1.0000
  C   C10       1.0  0.8855623083546434  0.10983739797966763  0.8097538137159859  1.0000
  C   C11       1.0  0.303489908130338  0.9033882070091226  0.0780222357263511  1.0000
  C   C12       1.0  0.6965166962146084  0.0966052085121589  0.9219773485025584  1.0000
  C   C13       1.0  0.36469182614105483  0.8552868297462767  0.16842042108923752  1.0000
  C   C14       1.0  0.6353067443873713  0.14470447694276342  0.8315806030677422  1.0000
  C   C15       1.0  0.24648528650821794  0.7938437837530616  0.3411131912259506  1.0000
  C   C16       1.0  0.7535095520950961  0.20615085931807192  0.658886531320988  1.0000
  C   C17       1.0  0.18681756012326642  0.6264943729041549  0.3026562124854166  1.0000
  C   C18       1.0  0.813181734478313  0.37350246757864625  0.6973459787897696  1.0000
  C   C19       1.0  0.9643691948242791  0.4310454491891064  0.16361085112627902  1.0000
  C   C20       1.0  0.03562851795202707  0.5689469512345727  0.8363886523750993  1.0000
  C   C21       1.0  0.9413754987941163  0.31817552160525514  0.2324393339187623  1.0000
  C   C22       1.0  0.05861942707657871  0.6818191874274079  0.7675654221258412  1.0000
  C   C23       1.0  0.7634463125917109  0.422261673985922  0.36861302551523784  1.0000
  C   C24       1.0  0.2365665332006728  0.5777385329163992  0.6314034600436145  1.0000
  C   C25       1.0  0.6476963589967255  0.19109608297470976  0.2562876826343512  1.0000
  C   C26       1.0  0.3522948917133704  0.8089129093083401  0.7437079437329501  1.0000
  C   C27       1.0  0.5330268124404469  0.23382112648567943  0.3206823238611491  1.0000
  C   C28       1.0  0.46697175977969596  0.7661911783001399  0.6793187310852602  1.0000
  C   C29       1.0  0.7076951986179905  0.7457753558263961  0.47086229249514133  1.0000
  C   C30       1.0  0.2923060164758624  0.25422362752061645  0.5291363044776389  1.0000
  C   C31       1.0  0.8596957717982365  0.8766305340349236  0.48651847289274036  1.0000
  C   C32       1.0  0.14030899202473526  0.12336833874547894  0.5134745375911649  1.0000
  C   C33       1.0  0.003571511553644835  0.9139459551715419  0.5763581049587927  1.0000
  C   C34       1.0  0.9964316617828287  0.08605183528828772  0.42363539664771827  1.0000
  C   C35       1.0  0.8573332110119836  0.9639376002843748  0.41003930465854677  1.0000
  C   C36       1.0  0.14266714044641302  0.0360591080651247  0.5899537538459398  1.0000
  N   N1        1.0  0.14738252862633072  0.9245067902745635  0.09290361698741383  1.0000
  N   N2        1.0  0.8526232093052784  0.07549107671991351  0.9070976254823081  1.0000
  N   N3        1.0  0.24479333231961675  0.8498010188202726  0.2391721071302371  1.0000
  N   N4        1.0  0.7552055973037141  0.15019137039957542  0.7608274916794927  1.0000
  N   N5        1.0  0.6066540265687054  0.3782107816618065  0.39067883578090357  1.0000
  N   N6        1.0  0.3933549563974807  0.6217926626803064  0.6093287979214139  1.0000
  N   N7        1.0  0.7920159314668281  0.31130142769247016  0.2873501031958625  1.0000
  N   N8        1.0  0.20798011532228602  0.688696561913396  0.7126528935558484  1.0000
  O   O1        1.0  0.8213295343628177  0.7983545973502687  0.9457611793419219  1.0000
  O   O2        1.0  0.17867243389331833  0.20164994177768145  0.05424026258162232  1.0000
  O   O3        1.0  0.7439594747691203  0.8963652747910656  0.11492647624471888  1.0000
  O   O4        1.0  0.25603511102082877  0.10364263433045552  0.8850733781437229  1.0000
  O   O5        1.0  0.014504040892852284  0.5795598479622085  0.238670784761382  1.0000
  O   O6        1.0  0.9854919331734354  0.42043808667570914  0.7613280174089426  1.0000
  O   O7        1.0  0.5803819882107746  0.7165817311289332  0.3906782054775703  1.0000
  O   O8        1.0  0.41961960052255176  0.2834183457424686  0.6093198050642457  1.0000
  O   O9        1.0  0.7188582038385718  0.668547970296899  0.5439559416505801  1.0000
  O   O10       1.0  0.281146534000726  0.33146097569917293  0.45604660552258036  1.0000
