data_image0
_chemical_formula_structural       Ag4H60C52N12O12
_chemical_formula_sum              "Ag4 H60 C52 N12 O12"
_cell_length_a       8.669173299806774
_cell_length_b       9.402998546
_cell_length_c       17.7035
_cell_angle_alpha    90.0
_cell_angle_beta     104.26427555070268
_cell_angle_gamma    90.0

_space_group_name_H-M_alt    "P 1"
_space_group_IT_number       1

loop_
  _space_group_symop_operation_xyz
  'x, y, z'

loop_
  _atom_site_type_symbol
  _atom_site_label
  _atom_site_symmetry_multiplicity
  _atom_site_fract_x
  _atom_site_fract_y
  _atom_site_fract_z
  _atom_site_occupancy
  Ag  Ag1       1.0  0.3879813463294255  0.5644529214840546  0.1902224581033209  1.0000
  Ag  Ag2       1.0  0.6120211794091617  0.06445284416829371  0.3097777901569714  1.0000
  Ag  Ag3       1.0  0.612019989202018  0.43554723314747434  0.8097776465509695  1.0000
  Ag  Ag4       1.0  0.387980156122282  0.9355473104632354  0.6902223144973192  1.0000
  H   H1        1.0  0.8950095922120838  0.3959215756322436  0.030823023376115106  1.0000
  H   H2        1.0  0.10498936290505867  0.8959227164385412  0.469177358926224  1.0000
  H   H3        1.0  0.10498936290505867  0.6040775155087417  0.9691773589262239  1.0000
  H   H4        1.0  0.8950095922120838  0.1040774381929808  0.530822458516063  1.0000
  H   H5        1.0  0.1372999164050057  0.2733861956294277  0.021421638440863  1.0000
  H   H6        1.0  0.8627002289192871  0.7733862729451887  0.4785783226074258  1.0000
  H   H7        1.0  0.8627002289192871  0.7266139590020944  0.9785783226074257  1.0000
  H   H8        1.0  0.1372999164050057  0.2266138816863332  0.521421638440863  1.0000
  H   H9        1.0  0.2567324430748172  0.4213517614214055  0.05979385494242001  1.0000
  H   H10       1.0  0.7432677022494758  0.9213507752466299  0.4402061061058689  1.0000
  H   H11       1.0  0.7432677022494758  0.5786483932101234  0.940206106105869  1.0000
  H   H12       1.0  0.2567336332819679  0.0786483158943554  0.5597939985484217  1.0000
  H   H13       1.0  0.0677918188473825  0.23227484183001224  0.1467560634303382  1.0000
  H   H14       1.0  0.9322095166840612  0.7322738556552366  0.3532446060840115  1.0000
  H   H15       1.0  0.9322095166840612  0.7677253128015096  0.8532446060840116  1.0000
  H   H16       1.0  0.0677918188473825  0.2677252354857487  0.6467560634303382  1.0000
  H   H17       1.0  0.27773602865014607  0.2368233908689987  0.16084135842640276  1.0000
  H   H18       1.0  0.7222653068812901  0.7368234681847596  0.3391587462278878  1.0000
  H   H19       1.0  0.7222653068812901  0.7631767637625231  0.8391587462278876  1.0000
  H   H20       1.0  0.27773602865014607  0.26317562295621855  0.6608413584264028  1.0000
  H   H21       1.0  0.0245706364037588  0.44049033717674757  0.3780830817416501  1.0000
  H   H22       1.0  0.9754283187133836  0.940491477983052  0.12191617084057779  1.0000
  H   H23       1.0  0.9754295089205341  0.5595087539642378  0.6219163144465867  1.0000
  H   H24       1.0  0.024571826610909394  0.0595086766484769  0.8780837902077038  1.0000
  H   H25       1.0  0.485026076508511  0.4912071375321929  0.3305704869341782  1.0000
  H   H26       1.0  0.5149752590229326  0.9912061513574104  0.16943074744023082  1.0000
  H   H27       1.0  0.5149752590229326  0.5087940805898725  0.6694307474402308  1.0000
  H   H28       1.0  0.485026076508511  0.0087940032741116  0.8305687923540077  1.0000
  H   H29       1.0  0.0401849640040766  0.5808838503249092  0.22961598838231367  1.0000
  H   H30       1.0  0.9598163715273672  0.0808827095186047  0.27038411627197684  1.0000
  H   H31       1.0  0.9598163715273672  0.4191163043066126  0.7703841162719769  1.0000
  H   H32       1.0  0.0401849640040766  0.9191163816223806  0.7296159883823137  1.0000
  H   H33       1.0  0.9323880477565538  0.4278752123929124  0.18774972367847195  1.0000
  H   H34       1.0  0.0676132877748898  0.927874226218137  0.3122503809758186  1.0000
  H   H35       1.0  0.0676132877748898  0.5721249422386094  0.8122503809758186  1.0000
  H   H36       1.0  0.9323880477565538  0.07212486492284852  0.6877497236784718  1.0000
  H   H37       1.0  0.5605494810020275  0.6679465033706508  0.43721272928235067  1.0000
  H   H38       1.0  0.4394494741151149  0.1679464260548897  0.0627887827400997  1.0000
  H   H39       1.0  0.4394494741151149  0.33205471475141485  0.5627887827400997  1.0000
  H   H40       1.0  0.5605518614163285  0.8320547920671757  0.9372113219141908  1.0000
  H   H41       1.0  0.3028839155216403  0.2716580235021553  0.2870224450547596  1.0000
  H   H42       1.0  0.6971174200098034  0.7716581008179164  0.212977659599531  1.0000
  H   H43       1.0  0.6971174200098034  0.7283421311293667  0.7129776595995309  1.0000
  H   H44       1.0  0.3028839155216403  0.22834205381360562  0.7870224450547594  1.0000
  H   H45       1.0  0.09712566426527758  0.2919111373432699  0.2844699752462247  1.0000
  H   H46       1.0  0.9028756712661661  0.7919112146590379  0.2155301294080658  1.0000
  H   H47       1.0  0.9028768614733165  0.7080890172882521  0.7155302730140676  1.0000
  H   H48       1.0  0.097124474058127  0.208088939972491  0.784469831640223  1.0000
  H   H49       1.0  0.0954855588126335  0.6494619742973242  0.10637393044090257  1.0000
  H   H50       1.0  0.9045157767188099  0.1494618969815562  0.3936261742133879  1.0000
  H   H51       1.0  0.9045145865116595  0.3505381803342047  0.8936260306073791  1.0000
  H   H52       1.0  0.0954855588126335  0.8505382576499656  0.6063739304409097  1.0000
  H   H53       1.0  0.888499159101805  0.6245252481186583  0.0936983565571055  1.0000
  H   H54       1.0  0.1115021764296387  0.1245251708028903  0.4063017480971922  1.0000
  H   H55       1.0  0.1115009862224881  0.3754738430223271  0.9063016044911832  1.0000
  H   H56       1.0  0.888499159101805  0.875473920338095  0.5936983565571055  1.0000
  H   H57       1.0  0.1034575663030637  0.6115155683445295  0.4897087805500817  1.0000
  H   H58       1.0  0.8965390083997844  0.1115165545193122  0.010290184820135594  1.0000
  H   H59       1.0  0.8965390083997844  0.3884835227964558  0.5102901848201354  1.0000
  H   H60       1.0  0.103462327131659  0.8884825366216731  0.989709919834155  1.0000
  C   C1        1.0  0.0033635254057884  0.4619834809873424  0.0389405835820185  1.0000
  C   C2        1.0  0.9966378101256552  0.9619835583031034  0.46105952107227216  1.0000
  C   C3        1.0  0.9966366199185045  0.5380156101536429  0.9610593774662702  1.0000
  C   C4        1.0  0.0033635254057884  0.0380165963284185  0.5389405835820185  1.0000
  C   C5        1.0  0.14797845495444045  0.36261305192378773  0.06264737204182319  1.0000
  C   C6        1.0  0.8520228805770031  0.8626131292395486  0.4373527326124673  1.0000
  C   C7        1.0  0.8520228805770031  0.6373871027077342  0.9373527326124672  1.0000
  C   C8        1.0  0.14797845495444045  0.1373870253919733  0.5626473720418231  1.0000
  C   C9        1.0  0.16955810079034705  0.3017101391775512  0.1442405578588506  1.0000
  C   C10       1.0  0.8304432347410966  0.8017102164933192  0.35575954679544003  1.0000
  C   C11       1.0  0.8304420445339458  0.6982900154539706  0.8557594031894382  1.0000
  C   C12       1.0  0.16955810079034705  0.1982899381382097  0.6442405578588506  1.0000
  C   C13       1.0  0.1427486847375192  0.48899295022820166  0.39256569366498434  1.0000
  C   C14       1.0  0.8572514605867738  0.9889940910344991  0.10743370252324519  1.0000
  C   C15       1.0  0.8572514605867738  0.5110061409127837  0.6074337025232451  1.0000
  C   C16       1.0  0.1427498749446698  0.0110060635970228  0.8925664021310452  1.0000
  C   C17       1.0  0.24944956552421618  0.4550580305917649  0.34715361372004583  1.0000
  C   C18       1.0  0.7505505798000769  0.9550581079075258  0.1528463473282429  1.0000
  C   C19       1.0  0.7505505798000769  0.5449442510208372  0.6528457824681908  1.0000
  C   C20       1.0  0.24944956552421618  0.04494311021453261  0.8471536137200459  1.0000
  C   C21       1.0  0.40002743289416287  0.5195704302302886  0.36436829992554454  1.0000
  C   C22       1.0  0.5999727124301302  0.019570352914527703  0.1356327908428554  1.0000
  C   C23       1.0  0.5999727124301302  0.4804307878917768  0.6356322259828033  1.0000
  C   C24       1.0  0.4000286231013134  0.9804298017170013  0.8643678786714872  1.0000
  C   C25       1.0  0.0319844367408564  0.49920245941086705  0.1845375210704958  1.0000
  C   C26       1.0  0.9680168987905872  0.999202536726628  0.31546258358379475  1.0000
  C   C27       1.0  0.9680168987905872  0.5007976952206548  0.8154625835837948  1.0000
  C   C28       1.0  0.0319832465337058  0.0007976179048939002  0.6845373774644941  1.0000
  C   C29       1.0  0.3363941978287457  0.6504967505926089  0.4698382311935987  1.0000
  C   C30       1.0  0.6636023768741026  0.1504966732768409  0.030162428756789005  1.0000
  C   C31       1.0  0.6636035670812532  0.34950340403892  0.5301625723627907  1.0000
  C   C32       1.0  0.33639776845019037  0.8495034813546811  0.9698375322914997  1.0000
  C   C33       1.0  0.4437211275763246  0.6178337656418478  0.4243113301678747  1.0000
  C   C34       1.0  0.5562778275408248  0.11783262483554321  0.0756890521344644  1.0000
  C   C35       1.0  0.5562778275408248  0.3821674524802177  0.5756890521344643  1.0000
  C   C36       1.0  0.4437235079906188  0.8821675297959786  0.9243110525198263  1.0000
  C   C37       1.0  0.2062343341163455  0.3494757532848851  0.2813468851250605  1.0000
  C   C38       1.0  0.7937658112079475  0.849475830600646  0.21865307592322836  1.0000
  C   C39       1.0  0.7937670014150982  0.6505254648371803  0.7186532195292301  1.0000
  C   C40       1.0  0.2062343341163455  0.1505243240308829  0.7813468851250605  1.0000
  C   C41       1.0  0.0030731148611949  0.5682655350694574  0.1046394381447158  1.0000
  C   C42       1.0  0.9969282206702487  0.068266521244233  0.3953606665095747  1.0000
  C   C43       1.0  0.9969270304630982  0.4317335560715279  0.895360522903573  1.0000
  C   C44       1.0  0.0030731148611949  0.9317336333872889  0.6046388732846637  1.0000
  C   C45       1.0  0.185629467936252  0.5851877965397279  0.4540577729297084  1.0000
  C   C46       1.0  0.8143682969737398  0.085187719223967  0.0459419009065698  1.0000
  C   C47       1.0  0.8143694871808904  0.41481235809179406  0.5459420445125787  1.0000
  C   C48       1.0  0.1856318483505532  0.9148124354075621  0.9540580601417188  1.0000
  C   C49       1.0  0.3833347776159854  0.7473966911320603  0.5327194077467183  1.0000
  C   C50       1.0  0.6166594166725545  0.2473976773068429  0.9672792704114884  1.0000
  C   C51       1.0  0.6166594166725545  0.25260240000892514  0.4672798352715475  1.0000
  C   C52       1.0  0.383341918858889  0.752602477324686  0.0327202693827431  1.0000
  N   N1        1.0  0.1820052871646212  0.41609811815448694  0.2030689068031677  1.0000
  N   N2        1.0  0.8179960483668223  0.9160971319797113  0.2969306329910708  1.0000
  N   N3        1.0  0.8179960483668223  0.5839030999675785  0.7969306329910708  1.0000
  N   N4        1.0  0.1820040969574777  0.083901959161274  0.703069328057218  1.0000
  N   N5        1.0  0.6815197553095871  0.3760502548949347  0.2601328989528469  1.0000
  N   N6        1.0  0.3184815802218566  0.8760503322106956  0.23986720570144368  1.0000
  N   N7        1.0  0.318480390014706  0.6239498997365871  0.739867062095442  1.0000
  N   N8        1.0  0.6815197553095871  0.12394982242082621  0.7601328989528469  1.0000
  N   N9        1.0  0.42353640452016345  0.8266607680490028  0.5846883541658343  1.0000
  N   N10       1.0  0.5764589799755342  0.3266575002616179  0.9153121621785514  1.0000
  N   N11       1.0  0.5764589799755342  0.1733415135636065  0.41531216217855155  1.0000
  N   N12       1.0  0.4235399751416153  0.6733415908793674  0.0846882201237875  1.0000
  O   O1        1.0  0.6757543918751877  0.5098352378283977  0.2482151967388759  1.0000
  O   O2        1.0  0.3242469436562558  0.0098351605126368  0.2517849079154146  1.0000
  O   O3        1.0  0.3242457534491052  0.4901649168031241  0.7517847643094129  1.0000
  O   O4        1.0  0.6757543918751877  0.990164994118885  0.7482151967388758  1.0000
  O   O5        1.0  0.5550269198262112  0.3020302498300538  0.23685142185436087  1.0000
  O   O6        1.0  0.4449732254980815  0.8020303271458147  0.26314910405398  1.0000
  O   O7        1.0  0.4449732254980815  0.6979699048014751  0.7631491040539797  1.0000
  O   O8        1.0  0.5550269198262112  0.1979698274857071  0.7368508569943016  1.0000
  O   O9        1.0  0.8098919278827452  0.3176263385971154  0.2951269943086245  1.0000
  O   O10       1.0  0.1901094076486984  0.8176264159128834  0.20487254548561398  1.0000
  O   O11       1.0  0.1901082174415478  0.6823738160344064  0.7048729667396643  1.0000
  O   O12       1.0  0.8098919278827452  0.18237373871864557  0.7951275591686837  1.0000
