data_image0
_chemical_formula_structural       Fe4H40Au8C72N32
_chemical_formula_sum              "Fe4 H40 Au8 C72 N32"
_cell_length_a       10.001080499306244
_cell_length_b       10.001089962713637
_cell_length_c       30.36420177315206
_cell_angle_alpha    94.06311570592838
_cell_angle_beta     94.06379948938732
_cell_angle_gamma    92.76668150765128

_space_group_name_H-M_alt    "P 1"
_space_group_IT_number       1

loop_
  _space_group_symop_operation_xyz
  'x, y, z'

loop_
  _atom_site_type_symbol
  _atom_site_label
  _atom_site_symmetry_multiplicity
  _atom_site_fract_x
  _atom_site_fract_y
  _atom_site_fract_z
  _atom_site_occupancy
  Fe  Fe1       1.0  0.18372558927032395  0.22350144253171317  0.44948676661098835  1.0000
  Fe  Fe2       1.0  0.7764956298356722  0.8162764508721378  0.050512864399863106  1.0000
  Fe  Fe3       1.0  0.8162740534479554  0.7764930994613407  0.5505131802014205  1.0000
  Fe  Fe4       1.0  0.22350004739877957  0.18372095050632709  0.949486726432788  1.0000
  H   H1        1.0  0.34965379815150743  0.3544834253316934  0.3887274546624866  1.0000
  H   H2        1.0  0.6455200728051838  0.6503525274905397  0.1112744789139199  1.0000
  H   H3        1.0  0.6503459110287507  0.6455161203222628  0.6112742609241765  1.0000
  H   H4        1.0  0.354476685523899  0.34965091398379394  0.8887275887589112  1.0000
  H   H5        1.0  0.3737635520846326  0.34365968631286825  0.3081998189996753  1.0000
  H   H6        1.0  0.6563531202494916  0.6262449937060309  0.1918024607820286  1.0000
  H   H7        1.0  0.6262393226910988  0.6563500024891765  0.6918025464067412  1.0000
  H   H8        1.0  0.34365070882662957  0.3737617214227739  0.8082001853364105  1.0000
  H   H9        1.0  0.027117987663004297  0.0628724343919913  0.29152084025862024  1.0000
  H   H10       1.0  0.9371314182484481  0.9729008630518405  0.2084780493832241  1.0000
  H   H11       1.0  0.9728898560027801  0.9371324579809862  0.7084775772669545  1.0000
  H   H12       1.0  0.0628714694980843  0.027107851342790895  0.7915203408281926  1.0000
  H   H13       1.0  0.0201235001906284  0.08172318162306877  0.3729710908345325  1.0000
  H   H14       1.0  0.9182698723175378  0.9798934697545788  0.1270267840524042  1.0000
  H   H15       1.0  0.9798861314113764  0.9182677431870161  0.6270270334072805  1.0000
  H   H16       1.0  0.08172490481909021  0.020109921852629498  0.8729716120017841  1.0000
  H   H17       1.0  0.4397684474969452  0.21311523631011647  0.2508419841809868  1.0000
  H   H18       1.0  0.7868923631308036  0.5602463123145184  0.249159058993861  1.0000
  H   H19       1.0  0.5602376504973705  0.7869066282154549  0.7491574586710712  1.0000
  H   H20       1.0  0.21312657232299873  0.4397629996494032  0.7508413787546573  1.0000
  H   H21       1.0  0.45362602703163196  0.20391377076501976  0.1683409436290404  1.0000
  H   H22       1.0  0.7960813938196694  0.5463860879570034  0.3316597816671347  1.0000
  H   H23       1.0  0.5463778753475452  0.796095980064571  0.8316581546483022  1.0000
  H   H24       1.0  0.20392842729641808  0.4536178631235541  0.6683406368349054  1.0000
  H   H25       1.0  0.0396625791424157  0.25984805515861337  0.0998920409317208  1.0000
  H   H26       1.0  0.7401485041402296  0.9603410626403175  0.4001095674914978  1.0000
  H   H27       1.0  0.9603360284881364  0.7401444424878177  0.9001078317254142  1.0000
  H   H28       1.0  0.25985629117408143  0.039662690781042884  0.5998917132298089  1.0000
  H   H29       1.0  0.0450486774154299  0.26921749981114107  0.0188158405474255  1.0000
  H   H30       1.0  0.7307738469937064  0.9549436434897487  0.4811850325828573  1.0000
  H   H31       1.0  0.9549458525840109  0.7307708329501493  0.9811838336206478  1.0000
  H   H32       1.0  0.2692298481254767  0.045054050690460194  0.5188164050729185  1.0000
  H   H33       1.0  0.4124072662644167  0.09271885439879667  0.0188093557197178  1.0000
  H   H34       1.0  0.907268946507088  0.5875852766116622  0.4811901996388173  1.0000
  H   H35       1.0  0.587588238490497  0.9072675126009172  0.9811899652497332  1.0000
  H   H36       1.0  0.09271556666925561  0.41240368310185  0.5188085897261487  1.0000
  H   H37       1.0  0.4273679649441037  0.08494110246684979  0.0997868206712127  1.0000
  H   H38       1.0  0.9150521075164377  0.572634718303746  0.4002131537684265  1.0000
  H   H39       1.0  0.5726296280537896  0.9150503587446153  0.9002123439199892  1.0000
  H   H40       1.0  0.08493549763071681  0.427359373717465  0.5997855043075405  1.0000
  Au  Au1       1.0  0.6853513516172853  0.23333128340343728  0.4540389031592582  1.0000
  Au  Au2       1.0  0.7666542063636327  0.3146497355867694  0.0459557926770415  1.0000
  Au  Au3       1.0  0.3146492924412527  0.7666632942924066  0.5459613979642342  1.0000
  Au  Au4       1.0  0.23334451548014806  0.6853478135837746  0.9540392643177  1.0000
  Au  Au5       1.0  0.19863896017048432  0.7237767875707843  0.445956662386358  1.0000
  Au  Au6       1.0  0.2762186136150148  0.8013558277923847  0.0540434476262988  1.0000
  Au  Au7       1.0  0.8013536564530738  0.27621748775067095  0.5540431088013308  1.0000
  Au  Au8       1.0  0.7237740221090404  0.19863846667434606  0.9459536897867409  1.0000
  C   C1        1.0  0.2048165123238803  0.5282136698116418  0.4484832430698376  1.0000
  C   C2        1.0  0.4717815020251593  0.7951834207223668  0.0515177106837896  1.0000
  C   C3        1.0  0.7951810554438126  0.47177677870184426  0.5515172138756697  1.0000
  C   C4        1.0  0.528212219568651  0.2048169186265554  0.9484812451257624  1.0000
  C   C5        1.0  0.8796622433095749  0.23416629928289723  0.4474737866655333  1.0000
  C   C6        1.0  0.7658206728621552  0.12033922170603259  0.0525203457648473  1.0000
  C   C7        1.0  0.12034037310253613  0.7658253571946075  0.5525248449282358  1.0000
  C   C8        1.0  0.23417893578704962  0.8796513365035774  0.9474755522535075  1.0000
  C   C9        1.0  0.18232561639123188  0.9180962710307481  0.4431227804537771  1.0000
  C   C10       1.0  0.0819023983057221  0.8176697843480836  0.056878326877601595  1.0000
  C   C11       1.0  0.8176690366603123  0.08190008434011278  0.5568774192002691  1.0000
  C   C12       1.0  0.9180951704949436  0.18231967779217934  0.9431198009820676  1.0000
  C   C13       1.0  0.4895051194112341  0.22543826167068198  0.4568218055354123  1.0000
  C   C14       1.0  0.774546336152767  0.5105014095627282  0.043177241610088395  1.0000
  C   C15       1.0  0.5104985395729003  0.7745574214725223  0.5431802414979998  1.0000
  C   C16       1.0  0.2254453623054502  0.4894978504689646  0.9568216394879485  1.0000
  C   C17       1.0  0.2818836126781434  0.28968166046776384  0.36610902833812276  1.0000
  C   C18       1.0  0.7103212863965852  0.7181253918912275  0.13389262130725402  1.0000
  C   C19       1.0  0.7181201161885156  0.7103180423562918  0.6338921291618647  1.0000
  C   C20       1.0  0.2896764780478733  0.28187809007221176  0.8661091422329932  1.0000
  C   C21       1.0  0.29462872331250617  0.2819155594868191  0.3209184407693613  1.0000
  C   C22       1.0  0.7180966562217749  0.705381602786076  0.17908416285106196  1.0000
  C   C23       1.0  0.7053731344430219  0.7180930904871018  0.679083545792963  1.0000
  C   C24       1.0  0.2819071619495049  0.29462411400370303  0.8209178002906938  1.0000
  C   C25       1.0  0.2050050972383062  0.19811367707823274  0.2924153483484488  1.0000
  C   C26       1.0  0.8018968675542909  0.7950077316786233  0.2075852878468893  1.0000
  C   C27       1.0  0.7949988003657468  0.8018960689650354  0.7075844083725613  1.0000
  C   C28       1.0  0.1981100027106137  0.20500011522231168  0.7924154827413119  1.0000
  C   C29       1.0  0.10209918506091503  0.12764569336962944  0.3116498766224893  1.0000
  C   C30       1.0  0.8723559224485485  0.897913196581264  0.188349152751627  1.0000
  C   C31       1.0  0.8979046075585586  0.872357035582574  0.6883490499237297  1.0000
  C   C32       1.0  0.12764490602734918  0.10209242745913368  0.8116497721259038  1.0000
  C   C33       1.0  0.0969136315080235  0.13842364977180918  0.3573733299921642  1.0000
  C   C34       1.0  0.8615753717848096  0.9030990724997989  0.14262594266858739  1.0000
  C   C35       1.0  0.9030910659843913  0.8615730937379594  0.6426261328888501  1.0000
  C   C36       1.0  0.13842441921578796  0.09690450480080412  0.8573732372754961  1.0000
  C   C37       1.0  0.22185277470791928  0.18551636387033443  0.2445310308268205  1.0000
  C   C38       1.0  0.8144952878623498  0.778158512184376  0.2554703113744026  1.0000
  C   C39       1.0  0.7781522159285784  0.814499434234605  0.755469556625215  1.0000
  C   C40       1.0  0.18551258374281326  0.2218493704193421  0.7445308135248824  1.0000
  C   C41       1.0  0.3497713305834367  0.19917124023749008  0.2282111321160016  1.0000
  C   C42       1.0  0.8008370394433229  0.650240996679315  0.2717907075769119  1.0000
  C   C43       1.0  0.6502316706649508  0.800845487194067  0.7717891004687161  1.0000
  C   C44       1.0  0.1991728552974337  0.34976796524163223  0.728210492033881  1.0000
  C   C45       1.0  0.35759056348737767  0.19241497337323915  0.18295884030614218  1.0000
  C   C46       1.0  0.8075871161641217  0.6424170493522607  0.3170414480560169  1.0000
  C   C47       1.0  0.6424123147089061  0.8075937314487404  0.8170408667926026  1.0000
  C   C48       1.0  0.19241870572065517  0.3575877524698683  0.682958894622061  1.0000
  C   C49       1.0  0.23700590184070344  0.1727205486698509  0.15599881822480907  1.0000
  C   C50       1.0  0.8272818931999381  0.7630055457731898  0.34400301959351515  1.0000
  C   C51       1.0  0.7629978969084732  0.8272831738350487  0.8440014497417536  1.0000
  C   C52       1.0  0.1727189052706208  0.23699906078289962  0.6559978560819957  1.0000
  C   C53       1.0  0.23426896938780561  0.17348972236590038  0.1075059625211026  1.0000
  C   C54       1.0  0.8265074045910057  0.7657362744142515  0.392494603020495  1.0000
  C   C55       1.0  0.7657306600380805  0.8265038188949703  0.8924936305364568  1.0000
  C   C56       1.0  0.1734923431118602  0.23426528466987406  0.607506173966712  1.0000
  C   C57       1.0  0.12524230378826934  0.22309790561157422  0.0833348841197932  1.0000
  C   C58       1.0  0.7768965392678808  0.8747586380622603  0.4166658605012543  1.0000
  C   C59       1.0  0.8747552711421137  0.7768925500813919  0.9166645851602198  1.0000
  C   C60       1.0  0.22310519782309515  0.1252419916952476  0.5833352713532561  1.0000
  C   C61       1.0  0.1271031985431819  0.2276920647236408  0.0378748525328518  1.0000
  C   C62       1.0  0.7722985997063317  0.8728917458408316  0.4621249925875404  1.0000
  C   C63       1.0  0.8728913181638657  0.772295267305466  0.962124467880372  1.0000
  C   C64       1.0  0.22770109856909926  0.12710680147410613  0.5378760400224465  1.0000
  C   C65       1.0  0.3328356769777089  0.13096167865636937  0.03792067643160381  1.0000
  C   C66       1.0  0.8690305389352488  0.6671606694796423  0.4620798336127834  1.0000
  C   C67       1.0  0.6671608966124153  0.8690287413338136  0.9620784385373328  1.0000
  C   C68       1.0  0.13096308380368532  0.3328336463309113  0.5379196334423212  1.0000
  C   C69       1.0  0.3401419041229943  0.12750423211842588  0.0836591429265923  1.0000
  C   C70       1.0  0.8724892109870126  0.659854502082126  0.4163404311885586  1.0000
  C   C71       1.0  0.6598546537871711  0.8724851847464166  0.9163399475093215  1.0000
  C   C72       1.0  0.12750141386086966  0.3401407001727818  0.5836593143536534  1.0000
  N   N1        1.0  0.19799901810473844  0.41169762314328995  0.4508015026542722  1.0000
  N   N2        1.0  0.5883022527162182  0.8020038445420068  0.0491982035895262  1.0000
  N   N3        1.0  0.8019987088500997  0.5883028590167639  0.5491988703995929  1.0000
  N   N4        1.0  0.4116934848505026  0.1979975669446645  0.9508018145970283  1.0000
  N   N5        1.0  0.9959184945279703  0.22900464057218528  0.4458384982554477  1.0000
  N   N6        1.0  0.7709905944469427  0.004082464515967411  0.0541573766792993  1.0000
  N   N7        1.0  0.004079098469929898  0.7709868206392795  0.5541606663357541  1.0000
  N   N8        1.0  0.22901122310978647  0.9959212081218136  0.9458392196686204  1.0000
  N   N9        1.0  0.17422075190229694  0.0347404483273621  0.445250612951007  1.0000
  N   N10       1.0  0.9652569179577314  0.8257774284877611  0.05474994276245581  1.0000
  N   N11       1.0  0.8257769123327067  0.9652560213313277  0.5547496619707815  1.0000
  N   N12       1.0  0.034734652673257906  0.17421380414804588  0.9452490712932685  1.0000
  N   N13       1.0  0.3720943682621822  0.2213654920106832  0.4552550775474772  1.0000
  N   N14       1.0  0.7786251627064614  0.6279065973054327  0.04474639369743019  1.0000
  N   N15       1.0  0.6279052805858072  0.7786300435350665  0.5447462106852825  1.0000
  N   N16       1.0  0.22136448022326502  0.37209056353157166  0.9552546927088983  1.0000
  N   N17       1.0  0.1862081869055672  0.21701985027421958  0.3846082489228451  1.0000
  N   N18       1.0  0.7829804587402691  0.8138009293925491  0.11539197736260579  1.0000
  N   N19       1.0  0.813796505811723  0.7829768884492407  0.6153918724018368  1.0000
  N   N20       1.0  0.21701728389452776  0.18620055589285298  0.884608420224275  1.0000
  N   N21       1.0  0.11730866038662668  0.1541281851669963  0.1734408182820104  1.0000
  N   N22       1.0  0.8458798633296566  0.8827005964794021  0.32656024465144634  1.0000
  N   N23       1.0  0.8826950937102467  0.8458725303550377  0.8265590468636645  1.0000
  N   N24       1.0  0.15412094604573667  0.11730500841571258  0.6734413140007405  1.0000
  N   N25       1.0  0.1099712696858433  0.15994605037541723  0.2170008518499102  1.0000
  N   N26       1.0  0.8400642163609431  0.8900409817224002  0.2830006401246479  1.0000
  N   N27       1.0  0.890033564151075  0.8400597164761121  0.7829994902719407  1.0000
  N   N28       1.0  0.1599376618496606  0.10996867616318434  0.7170007125270317  1.0000
  N   N29       1.0  0.2285825644521609  0.18128701282475385  0.0149399840376816  1.0000
  N   N30       1.0  0.8187036171127103  0.7714112673376545  0.4850597944324235  1.0000
  N   N31       1.0  0.7714129873426215  0.818702363550983  0.9850594105308232  1.0000
  N   N32       1.0  0.1812920083067411  0.22858311987846483  0.5149403812448341  1.0000
