data_image0
_chemical_formula_structural       Ca4H16C16S4N8O24
_chemical_formula_sum              "Ca4 H16 C16 S4 N8 O24"
_cell_length_a       6.78148488250962
_cell_length_b       9.050767998471613
_cell_length_c       14.605401099189129
_cell_angle_alpha    103.17529614963514
_cell_angle_beta     90.0173978618035
_cell_angle_gamma    112.02251784366652

_space_group_name_H-M_alt    "P 1"
_space_group_IT_number       1

loop_
  _space_group_symop_operation_xyz
  'x, y, z'

loop_
  _atom_site_type_symbol
  _atom_site_label
  _atom_site_symmetry_multiplicity
  _atom_site_fract_x
  _atom_site_fract_y
  _atom_site_fract_z
  _atom_site_occupancy
  Ca  Ca1       1.0  0.09459786564752184  0.768321611464813  0.7714006272503227  1.0000
  Ca  Ca2       1.0  0.3258381324040299  0.23162956697445483  0.7285699046847753  1.0000
  Ca  Ca3       1.0  0.9054057812859001  0.23167926309368883  0.22859930470220038  1.0000
  Ca  Ca4       1.0  0.67416108952046  0.7683713047480933  0.2714307112270404  1.0000
  H   H1        1.0  0.11197448608992039  0.6168870053020116  0.5795802778288034  1.0000
  H   H2        1.0  0.4946480697813059  0.3831411437369284  0.9204699791798061  1.0000
  H   H3        1.0  0.8880323547569943  0.383111410822579  0.4204193047682878  1.0000
  H   H4        1.0  0.5053541032069617  0.6168597325770904  0.07952926823774221  1.0000
  H   H5        1.0  0.9650330911668448  0.4173349600994031  0.7841111326464443  1.0000
  H   H6        1.0  0.5482252462472205  0.5827158266938143  0.7158613734266837  1.0000
  H   H7        1.0  0.03496380039846511  0.58266715083316  0.215886235915832  1.0000
  H   H8        1.0  0.45177372727398785  0.4172874938747668  0.2841430140837033  1.0000
  H   H9        1.0  0.7983755670655199  0.48068131170564504  0.8365498142788822  1.0000
  H   H10       1.0  0.31807042103912403  0.5193114479854088  0.6634202838599919  1.0000
  H   H11       1.0  0.2016213237064264  0.5193207972012955  0.163448238674448  1.0000
  H   H12       1.0  0.6819302740371568  0.4806894199560006  0.33658170097786666  1.0000
  H   H13       1.0  0.9848750985904076  0.44439721757154876  0.6027386025766788  1.0000
  H   H14       1.0  0.5400695006626676  0.5555622507485651  0.8972272317540015  1.0000
  H   H15       1.0  0.015129406343774741  0.555602423583693  0.3972625234082869  1.0000
  H   H16       1.0  0.4599338994541924  0.44444107670722127  0.10277510301497018  1.0000
  C   C1        1.0  0.3687644858439612  0.1631709939834352  0.17187894991453587  1.0000
  C   C2        1.0  0.20603083345990564  0.8367136448150774  0.32816992472205436  1.0000
  C   C3        1.0  0.6312368259700846  0.8368311076313545  0.8281218410348001  1.0000
  C   C4        1.0  0.7939674041857147  0.1632823127403071  0.6718286229771805  1.0000
  C   C5        1.0  0.3068527610404743  0.12232995877791812  0.9437324450750494  1.0000
  C   C6        1.0  0.18445723797466942  0.877600823883313  0.5563011938617279  1.0000
  C   C7        1.0  0.6931467124607664  0.8776684722010871  0.056261661673964625  1.0000
  C   C8        1.0  0.8155512038888801  0.12240374008180772  0.44369926305943597  1.0000
  C   C9        1.0  0.23617665887040568  0.9905224630044386  0.996649561102373  1.0000
  C   C10       1.0  0.24561535972503623  0.009362330211793302  0.5033713798234842  1.0000
  C   C11       1.0  0.7638248981734675  0.0094771816618291  0.0033501958126294  1.0000
  C   C12       1.0  0.7543864441353847  0.9906348615571899  0.4966259742750693  1.0000
  C   C13       1.0  0.2650923291796801  0.0060875644014402016  0.09575991063564969  1.0000
  C   C14       1.0  0.2593900388305671  0.9937509373609361  0.40429112792045874  1.0000
  C   C15       1.0  0.7349089826343588  0.9939145372133495  0.9042408803136865  1.0000
  C   C16       1.0  0.7406085687362562  0.0062487067651062  0.5957086287067028  1.0000
  S   S1        1.0  0.09030837273612484  0.7175493682812613  0.021507769496942313  1.0000
  S   S2        1.0  0.37270306613418563  0.2822584980663549  0.4784345515789354  1.0000
  S   S3        1.0  0.9096887561253624  0.28245026544655616  0.9784954089415904  1.0000
  S   S4        1.0  0.6272951683379802  0.7177374513865472  0.5215667336845371  1.0000
  N   N1        1.0  0.13845670624080955  0.8344339185953656  0.9479842696715365  1.0000
  N   N2        1.0  0.30370053253980694  0.16542654581186156  0.5519817637979969  1.0000
  N   N3        1.0  0.8615368595793383  0.1655644890213424  0.0520173648034401  1.0000
  N   N4        1.0  0.696293277716798  0.8345694028307024  0.4480195210337072  1.0000
  N   N5        1.0  0.19021427008573985  0.8617842288382179  0.11849113737142157  1.0000
  N   N6        1.0  0.3290155709908404  0.1380189332206996  0.3815380678558995  1.0000
  N   N7        1.0  0.809789130824491  0.138219100643191  0.8815105130064892  1.0000
  N   N8        1.0  0.6709782416458623  0.8619770214987313  0.6184611638026283  1.0000
  O   O1        1.0  0.5621127525039924  0.2050721527078423  0.19789570363744247  1.0000
  O   O2        1.0  0.35749586881453876  0.7950236509345814  0.30204970750548193  1.0000
  O   O3        1.0  0.43788523594498235  0.7949262516679526  0.8021073000514177  1.0000
  O   O4        1.0  0.6425021220145266  0.20497475951808036  0.6979512430102017  1.0000
  O   O5        1.0  0.25338796094494137  0.07868509144684309  0.8547419663747178  1.0000
  O   O6        1.0  0.174376598608454  0.9212685838546975  0.6452547780709565  1.0000
  O   O7        1.0  0.7466108894716185  0.921312089653803  0.14525880939128652  1.0000
  O   O8        1.0  0.8256172148216122  0.07872737289035572  0.35474376919651707  1.0000
  O   O9        1.0  0.2528860342585872  0.24232709015794995  0.20412011568156163  1.0000
  O   O10       1.0  0.010833729402527439  0.7573587795981067  0.29601311983356027  1.0000
  O   O11       1.0  0.7471106081100701  0.7576774675950235  0.7958817088703398  1.0000
  O   O12       1.0  0.9891610706864995  0.24264209739096998  0.7039854424733178  1.0000
  O   O13       1.0  0.4173784106925424  0.2670645281701454  0.9913928219952054  1.0000
  O   O14       1.0  0.15060915319030954  0.7329392584543086  0.5086758549794083  1.0000
  O   O15       1.0  0.5826291755503378  0.7329412752751097  0.008604387720332323  1.0000
  O   O16       1.0  0.849399779132888  0.2670603916137679  0.4913225338730882  1.0000
  O   O17       1.0  0.951747962925765  0.5161725338103266  0.8252670092120623  1.0000
  O   O18       1.0  0.4359528201927674  0.48383797190295746  0.6747147495367685  1.0000
  O   O19       1.0  0.048250402584699335  0.4838295753667269  0.1747310438851954  1.0000
  O   O20       1.0  0.5640463985582613  0.5161628917171014  0.32528860393928477  1.0000
  O   O21       1.0  0.08629801100939015  0.556668774545834  0.6319526691541455  1.0000
  O   O22       1.0  0.5291003239011473  0.44328357745217767  0.8680689512203228  1.0000
  O   O23       1.0  0.9137056351306609  0.44333209798705303  0.3680479471894386  1.0000
  O   O24       1.0  0.4709003735552315  0.5567172965661058  0.1319309804443591  1.0000
