data_image0
_chemical_formula_structural       H16Pb2C20Br4N4O2
_chemical_formula_sum              "H16 Pb2 C20 Br4 N4 O2"
_cell_length_a       4.207294229441322
_cell_length_b       8.513846615397487
_cell_length_c       18.298445234940957
_cell_angle_alpha    93.25784535813199
_cell_angle_beta     89.86275897108946
_cell_angle_gamma    104.01975841195105

_space_group_name_H-M_alt    "P 1"
_space_group_IT_number       1

loop_
  _space_group_symop_operation_xyz
  'x, y, z'

loop_
  _atom_site_type_symbol
  _atom_site_label
  _atom_site_symmetry_multiplicity
  _atom_site_fract_x
  _atom_site_fract_y
  _atom_site_fract_z
  _atom_site_occupancy
  H   H1        1.0  0.7698962369795196  0.8217966652831024  0.17310126819493374  1.0000
  H   H2        1.0  0.9649813787812178  0.17528214721711072  0.8280244205158167  1.0000
  H   H3        1.0  0.9096459886411521  0.6991047927715143  0.2855642890657179  1.0000
  H   H4        1.0  0.22435869161120794  0.2973038020853664  0.7152166768463954  1.0000
  H   H5        1.0  0.22938481153985893  0.3439268873614197  0.14236652902879846  1.0000
  H   H6        1.0  0.8776098784601911  0.65996405032206  0.8573366969972935  1.0000
  H   H7        1.0  0.9660932085248959  0.5672045615110405  0.3735779648042835  1.0000
  H   H8        1.0  0.4023104184517976  0.4309792027473592  0.6270634479522241  1.0000
  H   H9        1.0  0.07343026745228093  0.47843523572344543  0.03758929802209819  1.0000
  H   H10       1.0  0.5936449025277143  0.5245247050822714  0.9627481469985423  1.0000
  H   H11       1.0  0.05020437570293272  0.3989512267322226  0.4741700013426209  1.0000
  H   H12       1.0  0.6515552959476026  0.5980232841077752  0.5258439649521661  1.0000
  H   H13       1.0  0.3277393132838213  0.23377844520522473  0.22577969279448948  1.0000
  H   H14       1.0  0.0856619153106521  0.7681293346513627  0.7738400516311541  1.0000
  H   H15       1.0  0.3986239452216865  0.08369610368909969  0.3322629616208487  1.0000
  H   H16       1.0  0.3044941620636196  0.9165128656566639  0.6669699206229608  1.0000
  Pb  Pb1       1.0  0.9972535800437401  0.9998343494465873  0.9983122046680246  1.0000
  Pb  Pb2       1.0  0.21025398351755345  0.9997753589483764  0.5004385903533402  1.0000
  C   C1        1.0  0.8748394812242992  0.7166119624700614  0.17122111663156395  1.0000
  C   C2        1.0  0.17025984441988848  0.28171340678380125  0.8296868052222093  1.0000
  C   C3        1.0  0.9538291589374526  0.6447361412463621  0.23228398666800834  1.0000
  C   C4        1.0  0.3184724974469404  0.3534825320729098  0.768372897031419  1.0000
  C   C5        1.0  0.1291854695760506  0.44916997081567434  0.15364604211980995  1.0000
  C   C6        1.0  0.6781664561080092  0.5529305016212333  0.8465187044534799  1.0000
  C   C7        1.0  0.06489063885606332  0.46187340523982107  0.3609863109839252  1.0000
  C   C8        1.0  0.6034543632106094  0.536805190699397  0.6392573606333511  1.0000
  C   C9        1.0  0.07755168100032253  0.5052390727923282  0.22544665259879074  1.0000
  C   C10       1.0  0.574316876400097  0.4948366271703223  0.7748714584079861  1.0000
  C   C11       1.0  0.04837644885891024  0.5230620738119712  0.09374586200627988  1.0000
  C   C12       1.0  0.5266141922294735  0.47884512413544666  0.9066795662709735  1.0000
  C   C13       1.0  0.13817369675044944  0.41692991824807285  0.2889047676210977  1.0000
  C   C14       1.0  0.7200030777207901  0.5829590218307316  0.7111865420029132  1.0000
  C   C15       1.0  0.11220049330399463  0.36823283320980954  0.4179904153574156  1.0000
  C   C16       1.0  0.7426832422074909  0.6297417931939079  0.5819416275054576  1.0000
  C   C17       1.0  0.26270189066626415  0.2781134446735861  0.2793442124317024  1.0000
  C   C18       1.0  0.9786784905324452  0.7224744499940176  0.7203972289803955  1.0000
  C   C19       1.0  0.3031902002532263  0.1920632616239004  0.33929133235669434  1.0000
  C   C20       1.0  0.10387281118895683  0.807694311722244  0.6601906411888905  1.0000
  Br  Br1       1.0  0.5281020920204683  0.07734515055842911  0.11379920965661935  1.0000
  Br  Br2       1.0  0.45886177890448465  0.9298378193949546  0.8813282257692803  1.0000
  Br  Br3       1.0  0.6499151935577316  0.830245820780867  0.4042844593230867  1.0000
  Br  Br4       1.0  0.8145797485480345  0.16885943334755638  0.5971451381845296  1.0000
  N   N1        1.0  0.9146830060700779  0.6533583354861108  0.10253235349320987  1.0000
  N   N2        1.0  0.26893434881845485  0.34682417081437933  0.8981590882675473  1.0000
  N   N3        1.0  0.22828805955161613  0.23475716501351232  0.407908666778276  1.0000
  N   N4        1.0  0.9886720554424356  0.7636677027956722  0.5916708548511591  1.0000
  O   O1        1.0  0.8149053490045972  0.7127492088630164  0.04427117655458089  1.0000
  O   O2        1.0  0.11135873070806208  0.28762056853715734  0.9567287524946759  1.0000
