data_image0
_chemical_formula_structural       In12H12C96O60F48
_chemical_formula_sum              "In12 H12 C96 O60 F48"
_cell_length_a       13.905858221004317
_cell_length_b       17.167643900068523
_cell_length_c       21.762322799087073
_cell_angle_alpha    89.99968223662721
_cell_angle_beta     90.00006732099959
_cell_angle_gamma    89.99994066076279

_space_group_name_H-M_alt    "P 1"
_space_group_IT_number       1

loop_
  _space_group_symop_operation_xyz
  'x, y, z'

loop_
  _atom_site_type_symbol
  _atom_site_label
  _atom_site_symmetry_multiplicity
  _atom_site_fract_x
  _atom_site_fract_y
  _atom_site_fract_z
  _atom_site_occupancy
  In  In1       1.0  0.7499947698980165  0.25082239337196205  0.2499997026393288  1.0000
  In  In2       1.0  0.749995226008785  0.24917684878447227  0.7499996419367747  1.0000
  In  In3       1.0  0.2500070678166324  0.7491775276418269  0.7500001947989645  1.0000
  In  In4       1.0  0.25000589258452527  0.7508236547191202  0.25000071500973314  1.0000
  In  In5       1.0  0.7513249942153735  0.24910812251588518  0.0837178245190202  1.0000
  In  In6       1.0  0.7513264699308309  0.2508934484825646  0.9162828995904916  1.0000
  In  In7       1.0  0.748676772840234  0.24910229661033872  0.4162848048579662  1.0000
  In  In8       1.0  0.7486776431985548  0.25089345170776073  0.5837140792166409  1.0000
  In  In9       1.0  0.2486782817379947  0.7508987883890441  0.9162825324142645  1.0000
  In  In10      1.0  0.24867536778391042  0.749107637510228  0.08371791686479209  1.0000
  In  In11      1.0  0.2513250648768873  0.7508917994971613  0.5837137140637694  1.0000
  In  In12      1.0  0.2513227562736589  0.7491053043260223  0.4162853587138784  1.0000
  H   H1        1.0  0.8757006774953309  0.29871271999952154  0.1673398109108675  1.0000
  H   H2        1.0  0.8756999069863839  0.20128816405973995  0.8326591694836055  1.0000
  H   H3        1.0  0.6242988688413363  0.2987139928567544  0.3326658176336821  1.0000
  H   H4        1.0  0.6242970782811665  0.20128418988424818  0.6673329721094916  1.0000
  H   H5        1.0  0.12430044109566298  0.7012901134717499  0.8326596270109903  1.0000
  H   H6        1.0  0.1242990542427336  0.7987117569552639  0.1673407279535866  1.0000
  H   H7        1.0  0.3757022497518392  0.701284763178336  0.6673331607873364  1.0000
  H   H8        1.0  0.3757033211915086  0.7987151486374204  0.3326673848392971  1.0000
  H   H9        1.0  0.6057188490070472  0.2499897721216939  0.9999990937837567  1.0000
  H   H10       1.0  0.8942874226300576  0.2500082978553665  0.49999926747314294  1.0000
  H   H11       1.0  0.3942824605953064  0.7499903298154679  0.9999983775321084  1.0000
  H   H12       1.0  0.10571225770640778  0.7500096803935038  0.4999978728661247  1.0000
  C   C1        1.0  0.6143467612603146  0.3563753704336251  0.1679227033613273  1.0000
  C   C2        1.0  0.6143417486093552  0.14362398564105663  0.8320783763794921  1.0000
  C   C3        1.0  0.8856577452781451  0.3563758454098435  0.3320785369012924  1.0000
  C   C4        1.0  0.8856560294311462  0.14362270031980984  0.667921370068683  1.0000
  C   C5        1.0  0.3856565146974803  0.6436239680884485  0.8320771940787849  1.0000
  C   C6        1.0  0.385657212619904  0.8563776828424423  0.1679228995831963  1.0000
  C   C7        1.0  0.1143469689238543  0.6436205806576752  0.667920901035977  1.0000
  C   C8        1.0  0.11434293180034419  0.8563754732170141  0.3320799059016579  1.0000
  C   C9        1.0  0.5447336087247122  0.42327509628315607  0.1651250348806457  1.0000
  C   C10       1.0  0.5447344395771694  0.07672490074882182  0.8348746135388012  1.0000
  C   C11       1.0  0.9552672167649874  0.42327549316243573  0.3348759122030884  1.0000
  C   C12       1.0  0.9552670195102307  0.07672532406549243  0.665125426081886  1.0000
  C   C13       1.0  0.45526679074558973  0.5767259897166924  0.8348739435350012  1.0000
  C   C14       1.0  0.4552688363807604  0.9232761852417541  0.16512666242680038  1.0000
  C   C15       1.0  0.044734620950130505  0.5767250103392456  0.6651249042534673  1.0000
  C   C16       1.0  0.0447340990858294  0.9232728494688093  0.3348763093990499  1.0000
  C   C17       1.0  0.47923175335225915  0.4365773058231853  0.21285747754115647  1.0000
  C   C18       1.0  0.47923467167453276  0.06342216372454601  0.7871430402248122  1.0000
  C   C19       1.0  0.020763174242468103  0.4365807325993886  0.28714211303181963  1.0000
  C   C20       1.0  0.0207652382281864  0.06342203444859962  0.7128566785062063  1.0000
  C   C21       1.0  0.5207643313911418  0.5634202852350257  0.7871405818609603  1.0000
  C   C22       1.0  0.5207700425245818  0.9365800872508744  0.21285731671923003  1.0000
  C   C23       1.0  0.9792343487430484  0.5634191884194453  0.7128568653852838  1.0000
  C   C24       1.0  0.9792344421235696  0.9365778865612602  0.287144597460582  1.0000
  C   C25       1.0  0.4184163356662366  0.501036381394819  0.21257333620032168  1.0000
  C   C26       1.0  0.418420136491342  0.9989634945533158  0.7874254037816257  1.0000
  C   C27       1.0  0.0815770713589288  0.5010403376009621  0.2874241338499459  1.0000
  C   C28       1.0  0.08158073593992302  0.9989621512054403  0.7125734316562315  1.0000
  C   C29       1.0  0.5815797490775336  0.4989606271722738  0.7874247232030739  1.0000
  C   C30       1.0  0.5815824203423716  0.0010387564278530998  0.21257357463228033  1.0000
  C   C31       1.0  0.918421889867311  0.49896016591483067  0.712573006527343  1.0000
  C   C32       1.0  0.9184189444106252  0.0010383522987567001  0.28742692528973635  1.0000
  C   C33       1.0  0.420178823763024  0.5547474737804806  0.1641018308186517  1.0000
  C   C34       1.0  0.42017918580867086  0.9452529831783991  0.8358973700071246  1.0000
  C   C35       1.0  0.0798188293956414  0.5547499262701552  0.33589770140486047  1.0000
  C   C36       1.0  0.0798174404899754  0.9452525640117815  0.6641007817855353  1.0000
  C   C37       1.0  0.5798208565888244  0.44524836980127  0.8358966880984369  1.0000
  C   C38       1.0  0.5798233710247088  0.05475043278338631  0.16410206791400833  1.0000
  C   C39       1.0  0.9201801318314365  0.4452505772424119  0.6641003579919698  1.0000
  C   C40       1.0  0.920180082495584  0.054747939496543614  0.3358986561400741  1.0000
  C   C41       1.0  0.48501836824657835  0.5410666465933432  0.1159994833696913  1.0000
  C   C42       1.0  0.4850188003799333  0.9589325909220892  0.8840016046705514  1.0000
  C   C43       1.0  0.014979302385718499  0.5410682334302096  0.3840005683195926  1.0000
  C   C44       1.0  0.014976370207527599  0.958932563827304  0.6159997037403427  1.0000
  C   C45       1.0  0.5149820312262889  0.4589297794792132  0.8839990355463883  1.0000
  C   C46       1.0  0.514983756456239  0.041069077559903605  0.1159996712935012  1.0000
  C   C47       1.0  0.9850210970846334  0.45893343505913725  0.615998869604546  1.0000
  C   C48       1.0  0.9850204336582775  0.041067357185376414  0.3840011127155805  1.0000
  C   C49       1.0  0.546089793304759  0.47661747262293386  0.1164660501656201  1.0000
  C   C50       1.0  0.5460907808557636  0.02338194077727  0.8835340587934297  1.0000
  C   C51       1.0  0.9539088066937893  0.47661927659177666  0.3835355821690527  1.0000
  C   C52       1.0  0.9539049933879866  0.023382124269630804  0.6164657550830839  1.0000
  C   C53       1.0  0.4539106061665663  0.5233807009245768  0.883532009236859  1.0000
  C   C54       1.0  0.45391177598031607  0.976618562725719  0.1164662981536253  1.0000
  C   C55       1.0  0.0460923119004093  0.523381809398096  0.6164661533055025  1.0000
  C   C56       1.0  0.0460918104781882  0.9766172142519383  0.38353506137411136  1.0000
  C   C57       1.0  0.35529677117155956  0.6246487655560244  0.1638094048350567  1.0000
  C   C58       1.0  0.3552929082954748  0.8753529108772898  0.8361897467815211  1.0000
  C   C59       1.0  0.14469791622632036  0.6246523264843094  0.3361907400728938  1.0000
  C   C60       1.0  0.14470093079224708  0.8753512742868355  0.6638087113389588  1.0000
  C   C61       1.0  0.6447050665429971  0.3753499904787746  0.8361895735862388  1.0000
  C   C62       1.0  0.6447060529297416  0.12465050509084111  0.1638083126089285  1.0000
  C   C63       1.0  0.8552981685154037  0.3753505069874594  0.6638091573568303  1.0000
  C   C64       1.0  0.8552973113146007  0.12464806424219434  0.33618980756993005  1.0000
  C   C65       1.0  0.8704152739807256  0.1339277445847529  0.9942041112135555  1.0000
  C   C66       1.0  0.8704171026555227  0.3660719789187895  0.005798081744536899  1.0000
  C   C67       1.0  0.6295846738086511  0.13392548226283912  0.5057961372396277  1.0000
  C   C68       1.0  0.6295873914978785  0.36607386101766803  0.49420311602111167  1.0000
  C   C69       1.0  0.12958296812784204  0.8660721764273236  0.0057967052429149  1.0000
  C   C70       1.0  0.1295854541821342  0.6339273595987508  0.9942031942246174  1.0000
  C   C71       1.0  0.37041284918081624  0.8660715262923661  0.494205138732724  1.0000
  C   C72       1.0  0.3704137270950624  0.6339272249770433  0.5057972409241245  1.0000
  C   C73       1.0  0.9369139131865722  0.065068519437979  0.9971446903461255  1.0000
  C   C74       1.0  0.9369156485627173  0.43493289569406113  0.0028566340195866  1.0000
  C   C75       1.0  0.5630854034247506  0.06506808107548782  0.5028558598676867  1.0000
  C   C76       1.0  0.5630858811612213  0.43493248302875304  0.4971456405070143  1.0000
  C   C77       1.0  0.0630843289224643  0.9349319840619903  0.0028570451286142997  1.0000
  C   C78       1.0  0.0630854700314316  0.5650676078063129  0.9971446419464698  1.0000
  C   C79       1.0  0.43691427692807144  0.934929509971532  0.49714495659443264  1.0000
  C   C80       1.0  0.43691595655477766  0.565068602959201  0.5028565544775887  1.0000
  C   C81       1.0  0.9370511525879976  0.015085375347794605  0.048014498399410896  1.0000
  C   C82       1.0  0.9370545517727606  0.4849142921981766  0.9519859070552954  1.0000
  C   C83       1.0  0.562945160376117  0.0150852797497762  0.45198685898243696  1.0000
  C   C84       1.0  0.5629463859929089  0.48491411948809593  0.5480151007985157  1.0000
  C   C85       1.0  0.062946370400816  0.9849139631686371  0.9519876965873807  1.0000
  C   C86       1.0  0.0629458476999574  0.5150856288129972  0.0480149094019922  1.0000
  C   C87       1.0  0.43705380085499707  0.9849134762781592  0.5480144169866321  1.0000
  C   C88       1.0  0.4370532943581509  0.5150875489934917  0.4519866346742205  1.0000
  C   C89       1.0  0.9989733803760001  0.9513553424645028  0.05073460624338819  1.0000
  C   C90       1.0  0.9989773317962403  0.5486446283941647  0.9492664120574049  1.0000
  C   C91       1.0  0.501022455944124  0.9513547354698774  0.449267243179392  1.0000
  C   C92       1.0  0.5010242436959872  0.5486456535847566  0.5507343165057179  1.0000
  C   C93       1.0  0.0010219852478314999  0.04864399605605741  0.9492666697230376  1.0000
  C   C94       1.0  0.0010216294338079  0.45135645759661003  0.0507353234163261  1.0000
  C   C95       1.0  0.4989779435301783  0.04864402055584802  0.5507344922999947  1.0000
  C   C96       1.0  0.49897759401876124  0.45135543240803616  0.4492664999495659  1.0000
  O   O1        1.0  0.6544594057428057  0.34602139240896435  0.2196846790999984  1.0000
  O   O2        1.0  0.6544550047683301  0.15397851247488603  0.7803145930211812  1.0000
  O   O3        1.0  0.8455443948954197  0.3460245943411736  0.280315687511532  1.0000
  O   O4        1.0  0.8455413218043546  0.15397689753334734  0.7196841890305166  1.0000
  O   O5        1.0  0.34554315109207323  0.6539796935883616  0.7803147588262362  1.0000
  O   O6        1.0  0.3455439564596218  0.8460225735239535  0.2196848449036892  1.0000
  O   O7        1.0  0.15446319579243814  0.6539706667445275  0.7196832909196047  1.0000
  O   O8        1.0  0.15445692030458957  0.8460224409876178  0.2803166274272328  1.0000
  O   O9        1.0  0.6269579732785288  0.3175140596301845  0.1190314130033201  1.0000
  O   O10       1.0  0.6269544382306549  0.18248761581694592  0.8809696762970062  1.0000
  O   O11       1.0  0.8730501785019626  0.3175107070955789  0.3809704570825048  1.0000
  O   O12       1.0  0.8730468857800702  0.1824866842440542  0.6190285213086  1.0000
  O   O13       1.0  0.37304314531478877  0.6824864438734083  0.8809689439431949  1.0000
  O   O14       1.0  0.3730438038748503  0.8175158001450317  0.11903022113225599  1.0000
  O   O15       1.0  0.1269545357003636  0.68248455399133  0.6190285213475448  1.0000
  O   O16       1.0  0.12695279457192046  0.8175109068061914  0.3809713761339779  1.0000
  O   O17       1.0  0.3466392919301242  0.6606389699198091  0.21443443335527226  1.0000
  O   O18       1.0  0.34663610198898437  0.8393644612606722  0.7855637926725549  1.0000
  O   O19       1.0  0.153357506866584  0.6606411314270774  0.2855646348155148  1.0000
  O   O20       1.0  0.1533620977904917  0.8393636270497495  0.7144357421811591  1.0000
  O   O21       1.0  0.6533618266626319  0.33935978611690143  0.7855640855559756  1.0000
  O   O22       1.0  0.6533664548416096  0.16064070218089913  0.21443380720565838  1.0000
  O   O23       1.0  0.8466392969974094  0.3393622845306652  0.7144366411425266  1.0000
  O   O24       1.0  0.8466411781652498  0.16063629396989404  0.2855623172185844  1.0000
  O   O25       1.0  0.3164447432890256  0.6408567766018862  0.1126553481763111  1.0000
  O   O26       1.0  0.3164424324665376  0.8591460974472584  0.8873423954445058  1.0000
  O   O27       1.0  0.18354560868182548  0.6408605283542316  0.3873465637395768  1.0000
  O   O28       1.0  0.18354783171327682  0.8591401273342856  0.6126533766493125  1.0000
  O   O29       1.0  0.6835599709098616  0.35914256192603494  0.8873427112252515  1.0000
  O   O30       1.0  0.6835543713909473  0.14085964849429194  0.1126533663911573  1.0000
  O   O31       1.0  0.8164475995756177  0.35914230511391315  0.6126547122183794  1.0000
  O   O32       1.0  0.816446814788428  0.14085513376168277  0.3873442232475952  1.0000
  O   O33       1.0  0.8638308254622301  0.17473517226011384  0.0424664593306971  1.0000
  O   O34       1.0  0.8638308430379877  0.3252663042457869  0.9575361881391586  1.0000
  O   O35       1.0  0.6361724748179041  0.17473206377638925  0.4575332794004082  1.0000
  O   O36       1.0  0.6361724559878327  0.3252690214426935  0.5424668978710443  1.0000
  O   O37       1.0  0.13617101224944864  0.8252694086825799  0.9575334380973786  1.0000
  O   O38       1.0  0.1361724329218887  0.6747330342682292  0.0424660068498142  1.0000
  O   O39       1.0  0.3638264864128898  0.8252678572321629  0.5424684560758806  1.0000
  O   O40       1.0  0.36382650524091525  0.6747314820634216  0.45753299956487575  1.0000
  O   O41       1.0  0.8281351979717042  0.14463354604085774  0.9430436321744152  1.0000
  O   O42       1.0  0.8281400099305216  0.35536504798602664  0.056958988232914  1.0000
  O   O43       1.0  0.6718632979037267  0.14463030663701204  0.5569579478931672  1.0000
  O   O44       1.0  0.6718630596532549  0.355368418644801  0.4430417969406264  1.0000
  O   O45       1.0  0.17186160589447036  0.8553657924807113  0.056957184282787  1.0000
  O   O46       1.0  0.17186542339416627  0.6446319605658531  0.9430422877424435  1.0000
  O   O47       1.0  0.3281363824503599  0.8553672844051761  0.4430442470982712  1.0000
  O   O48       1.0  0.32813662069725064  0.6446315023698974  0.5569581004968427  1.0000
  O   O49       1.0  0.8305312525628706  0.255255990861393  0.1669502247172332  1.0000
  O   O50       1.0  0.8305340228681432  0.24474784358212534  0.8330500999460781  1.0000
  O   O51       1.0  0.6694604389373069  0.25525023318603973  0.333047782615985  1.0000
  O   O52       1.0  0.669460030416026  0.24474558166151178  0.6669510413823119  1.0000
  O   O53       1.0  0.1694684277842811  0.7447491725733216  0.8330496727087534  1.0000
  O   O54       1.0  0.16946493836069007  0.7552538249029868  0.1669507165068325  1.0000
  O   O55       1.0  0.3305399605343878  0.7447473578703523  0.6669502767877802  1.0000
  O   O56       1.0  0.3305410881784495  0.7552537568582454  0.3330497750765247  1.0000
  O   O57       1.0  0.6754764996629702  0.2500072175608921  0.9999995797065324  1.0000
  O   O58       1.0  0.8245290528532151  0.2499914349043594  0.4999997005683667  1.0000
  O   O59       1.0  0.3245276864030657  0.7500084163297203  0.9999988105521139  1.0000
  O   O60       1.0  0.1754691892645113  0.7499921763613955  0.4999997373945249  1.0000
  F   F1        1.0  0.4719953102267951  0.3858357599123324  0.260051537172636  1.0000
  F   F2        1.0  0.47199951608132545  0.11416255073652343  0.7399471370693363  1.0000
  F   F3        1.0  0.0279989630527098  0.3858377643767241  0.2399482757701605  1.0000
  F   F4        1.0  0.0280010481360549  0.11416441410325012  0.760050521256609  1.0000
  F   F5        1.0  0.5279993362737017  0.6141600836779804  0.7399451437034515  1.0000
  F   F6        1.0  0.5280073554824014  0.8858402827258803  0.2600541388937998  1.0000
  F   F7        1.0  0.9719978408133727  0.614160409165848  0.7600516216700512  1.0000
  F   F8        1.0  0.9719950366056196  0.8858378368790271  0.23994891666461626  1.0000
  F   F9        1.0  0.35608149322376187  0.5094025629770657  0.259433181819297  1.0000
  F   F10       1.0  0.3560837811956858  0.9905979478091708  0.7405668894168187  1.0000
  F   F11       1.0  0.14391118399412053  0.5094079607085646  0.24056425156403796  1.0000
  F   F12       1.0  0.1439185401624385  0.9905973882044992  0.7594324421903522  1.0000
  F   F13       1.0  0.6439145915211739  0.4905932806061911  0.7405653370964274  1.0000
  F   F14       1.0  0.6439216521220744  0.009406633135242305  0.25943208899307285  1.0000
  F   F15       1.0  0.8560863389900959  0.490591377825602  0.7594328888152545  1.0000
  F   F16       1.0  0.856083297551514  0.009404280281017901  0.240567914753882  1.0000
  F   F17       1.0  0.49288548089383255  0.5918140168715171  0.0688849191552521  1.0000
  F   F18       1.0  0.4928817488683776  0.9081863790288481  0.9311138772982375  1.0000
  F   F19       1.0  0.007114282289286701  0.5918152796370891  0.43111399112353144  1.0000
  F   F20       1.0  0.00710989092331  0.9081831942651563  0.5688853559567661  1.0000
  F   F21       1.0  0.5071141994550388  0.4081864866391315  0.9311135997516259  1.0000
  F   F22       1.0  0.5071157741165351  0.09181645444071052  0.0688864796418045  1.0000
  F   F23       1.0  0.9928868363024961  0.40818697134145776  0.568885906309383  1.0000
  F   F24       1.0  0.992884755576952  0.09181497928477003  0.4311127034435316  1.0000
  F   F25       1.0  0.6095069135173432  0.46866194546943524  0.0699912732466288  1.0000
  F   F26       1.0  0.6095072563844609  0.03133391972262701  0.9300093433236752  1.0000
  F   F27       1.0  0.890493134883961  0.4686652239781779  0.43001085345899537  1.0000
  F   F28       1.0  0.8904849120960563  0.031338560098767204  0.5699931927520296  1.0000
  F   F29       1.0  0.39049492420093657  0.5313309856542364  0.9300077051874283  1.0000
  F   F30       1.0  0.39049386221043386  0.9686654187955172  0.0699919326449319  1.0000
  F   F31       1.0  0.1095115793172496  0.5313370269891848  0.5699918010339147  1.0000
  F   F32       1.0  0.109510453526326  0.9686636908757439  0.43000854271779326  1.0000
  F   F33       1.0  0.875060048446201  0.026037817592765602  0.09479851936931279  1.0000
  F   F34       1.0  0.8750633764600124  0.47396306699796775  0.9052018390702017  1.0000
  F   F35       1.0  0.6249376887727253  0.026036250823395307  0.4052018709993773  1.0000
  F   F36       1.0  0.6249411708981185  0.47396309635628614  0.5947982977570305  1.0000
  F   F37       1.0  0.12493675542071966  0.9739603559465805  0.9052022970904402  1.0000
  F   F38       1.0  0.1249398994966668  0.526038018997447  0.09479805836608078  1.0000
  F   F39       1.0  0.3750641489443893  0.9739630876912245  0.5948003239890483  1.0000
  F   F40       1.0  0.3750606668166299  0.5260379896365139  0.40520251869824625  1.0000
  F   F41       1.0  0.9934462886702703  0.904047572908958  0.10021885570553479  1.0000
  F   F42       1.0  0.9934479322334795  0.5959512376135409  0.8997812393857743  1.0000
  F   F43       1.0  0.5065510463122038  0.9040478910741714  0.3997836605445144  1.0000
  F   F44       1.0  0.5065514254753367  0.5959524933363199  0.6002183628425896  1.0000
  F   F45       1.0  0.006553391682189199  0.09595060062917332  0.8997819607553126  1.0000
  F   F46       1.0  0.006548152510987399  0.40404926588894347  0.10022003657837081  1.0000
  F   F47       1.0  0.4934457575571756  0.095949699965999  0.6002194534653782  1.0000
  F   F48       1.0  0.49344465926676406  0.4040497576443372  0.3997815345884135  1.0000
