data_image0
_chemical_formula_structural       Al2H18C33O18
_chemical_formula_sum              "Al2 H18 C33 O18"
_cell_length_a       3.988612800641151
_cell_length_b       17.220828833006866
_cell_length_c       17.22111782125531
_cell_angle_alpha    120.00254782446632
_cell_angle_beta     90.00157753127367
_cell_angle_gamma    90.00051704289527

_space_group_name_H-M_alt    "P 1"
_space_group_IT_number       1

loop_
  _space_group_symop_operation_xyz
  'x, y, z'

loop_
  _atom_site_type_symbol
  _atom_site_label
  _atom_site_symmetry_multiplicity
  _atom_site_fract_x
  _atom_site_fract_y
  _atom_site_fract_z
  _atom_site_occupancy
  Al  Al1       1.0  0.9592218012052737  0.49999280751613645  0.49999347880012834  1.0000
  Al  Al2       1.0  0.0445652534299938  0.166674814357286  0.8333343836366255  1.0000
  H   H1        1.0  0.6338624688646558  0.4133481592763106  0.8317540337003566  1.0000
  H   H2        1.0  0.15488746849528914  0.12293765904414763  0.5395365205706995  1.0000
  H   H3        1.0  0.5915878025053015  0.10572678077952696  0.5163488816708934  1.0000
  H   H4        1.0  0.5641563260577979  0.19376719206552917  0.4357248946106013  1.0000
  H   H5        1.0  0.129248539254192  0.21171458515058114  0.4594339654409866  1.0000
  H   H6        1.0  0.6339298610397036  0.9184211962852303  0.5866757703995304  1.0000
  H   H7        1.0  0.1548065195906219  0.9166111267301887  0.8770446409732671  1.0000
  H   H8        1.0  0.59149351397744  0.9106330621259107  0.8942790101471021  1.0000
  H   H9        1.0  0.5639881271316654  0.7419575555142617  0.8062441360620413  1.0000
  H   H10       1.0  0.12908376826864298  0.7477324875325664  0.7882654326688794  1.0000
  H   H11       1.0  0.6338896400711889  0.1682433299472237  0.0815708695596271  1.0000
  H   H12       1.0  0.1548417130485547  0.46045415540716317  0.08340024304212074  1.0000
  H   H13       1.0  0.5915539737441333  0.483669880851771  0.08940799571674767  1.0000
  H   H14       1.0  0.5639533686450944  0.5642957198761351  0.25807732323991683  1.0000
  H   H15       1.0  0.12905627228633415  0.5405331885192268  0.2522723659118924  1.0000
  H   H16       1.0  0.9299385256116252  0.5280331750959135  0.6892841488120213  1.0000
  H   H17       1.0  0.9299695338091708  0.6612447076554417  0.47198104642308897  1.0000
  H   H18       1.0  0.9299298145956455  0.31070665557171406  0.33874038734150963  1.0000
  C   C1        1.0  0.46596464998518156  0.42791705472341585  0.36162084767110514  1.0000
  C   C2        1.0  0.4660037506008691  0.4336974362664777  0.5720678239904872  1.0000
  C   C3        1.0  0.4659920758226121  0.6383685705059678  0.5662987502164043  1.0000
  C   C4        1.0  0.5427572898485447  0.23392081621350505  0.7632858600290221  1.0000
  C   C5        1.0  0.542741608140325  0.0293733911827091  0.7660845807406178  1.0000
  C   C6        1.0  0.5427716209088442  0.2367184122110545  0.9706286680998775  1.0000
  C   C7        1.0  0.5300436393731119  0.284692448666327  0.7145464080952807  1.0000
  C   C8        1.0  0.49369479372670355  0.3855747129494986  0.6232690929686484  1.0000
  C   C9        1.0  0.4617344860223014  0.24405208299981515  0.6231075475037147  1.0000
  C   C10       1.0  0.5581452675162877  0.42827807334758483  0.716676174652662  1.0000
  C   C11       1.0  0.4516204748774584  0.29287535783925034  0.5784083241792004  1.0000
  C   C12       1.0  0.5804265498461304  0.3779048998167628  0.7600672875403662  1.0000
  C   C13       1.0  0.389622554315437  0.15567553751427726  0.5385604465504843  1.0000
  C   C14       1.0  0.37449205203614605  0.21113150426784708  0.4880553297029168  1.0000
  C   C15       1.0  0.5300291126611469  0.9298599002800857  0.7153144629471627  1.0000
  C   C16       1.0  0.49367001555962986  0.737698990009747  0.6144350591335481  1.0000
  C   C17       1.0  0.46170016326950486  0.8790589320686806  0.755948302811781  1.0000
  C   C18       1.0  0.5581606960899632  0.788404931319754  0.5717366373738388  1.0000
  C   C19       1.0  0.4515771206449484  0.7855321747708716  0.7071284530474173  1.0000
  C   C20       1.0  0.5804507533531333  0.882170838728861  0.6221080889475913  1.0000
  C   C21       1.0  0.3895304559297727  0.8828917156105973  0.8443172000343111  1.0000
  C   C22       1.0  0.3743688479595803  0.7769278930637926  0.7888674079537311  1.0000
  C   C23       1.0  0.5300272056804685  0.2854572655323367  0.07014128318306226  1.0000
  C   C24       1.0  0.4936245328505746  0.3767186751913628  0.26229365431303364  1.0000
  C   C25       1.0  0.4616993111000055  0.37689175794365337  0.12094519121665565  1.0000
  C   C26       1.0  0.558116544142564  0.2833185868634587  0.21158574229313837  1.0000
  C   C27       1.0  0.45154233890558954  0.4215870265214576  0.21446931564661745  1.0000
  C   C28       1.0  0.5804256000834511  0.23992764331440242  0.1178185810146104  1.0000
  C   C29       1.0  0.38955733433505907  0.46144226365557023  0.11713045133932105  1.0000
  C   C30       1.0  0.37435493056832303  0.5119404827715712  0.22309025779210856  1.0000
  C   C31       1.0  0.5986139177311641  0.5281176940421234  0.7739657326318794  1.0000
  C   C32       1.0  0.5986544595945843  0.7458539147606373  0.47189927718883234  1.0000
  C   C33       1.0  0.5985923414771007  0.22602347730503425  0.25412828617967886  1.0000
  O   O1        1.0  0.688465043421935  0.5964011378815073  0.5836222254233334  1.0000
  O   O2        1.0  0.688433481851291  0.4872124983983  0.40358472155703856  1.0000
  O   O3        1.0  0.6884493718276372  0.4163617732898289  0.5127692918323065  1.0000
  O   O4        1.0  0.21795585171660287  0.6003935790799774  0.5128086393341533  1.0000
  O   O5        1.0  0.21796276018564947  0.4871812399132695  0.5875831962740393  1.0000
  O   O6        1.0  0.21793855032941414  0.4124023396575681  0.39959150517925224  1.0000
  O   O7        1.0  0.7807281582283139  0.18089871152481865  0.9325451991885247  1.0000
  O   O8        1.0  0.7807226207022138  0.25166088060183983  0.8191070345624427  1.0000
  O   O9        1.0  0.780686977821716  0.0674637479129387  0.7483522780422123  1.0000
  O   O10       1.0  0.3114532517361681  0.25416004678783105  0.9303664323884676  1.0000
  O   O11       1.0  0.31142283490561334  0.06963340992339095  0.8237832123316482  1.0000
  O   O12       1.0  0.31142634303763816  0.17622017623407532  0.745844492384329  1.0000
  O   O13       1.0  0.7899702596395313  0.5699015429380482  0.7405368335427627  1.0000
  O   O14       1.0  0.4616300253099153  0.5710643259298038  0.8463971266923451  1.0000
  O   O15       1.0  0.7899889855129059  0.670642251214538  0.4301243797357799  1.0000
  O   O16       1.0  0.46168210842249363  0.7753364650748581  0.4289490042404864  1.0000
  O   O17       1.0  0.7899556915429997  0.2594497184062163  0.32934128811054825  1.0000
  O   O18       1.0  0.46155607147501587  0.1535947260694499  0.22463893411381972  1.0000
