data_image0
_chemical_formula_structural       Na2H18C8O14
_chemical_formula_sum              "Na2 H18 C8 O14"
_cell_length_a       6.007288424438189
_cell_length_b       6.299311738751641
_cell_length_c       11.075823511251816
_cell_angle_alpha    104.68775033876999
_cell_angle_beta     89.06896798035682
_cell_angle_gamma    103.72882292373518

_space_group_name_H-M_alt    "P 1"
_space_group_IT_number       1

loop_
  _space_group_symop_operation_xyz
  'x, y, z'

loop_
  _atom_site_type_symbol
  _atom_site_label
  _atom_site_symmetry_multiplicity
  _atom_site_fract_x
  _atom_site_fract_y
  _atom_site_fract_z
  _atom_site_occupancy
  Na  Na1       1.0  0.2618035757654198  0.0374255239203691  0.4324737567853846  1.0000
  Na  Na2       1.0  0.7382022905915308  0.9625732580767375  0.5675139240269971  1.0000
  H   H1        1.0  0.5585391313396215  0.7368093392961724  0.9783952637780331  1.0000
  H   H2        1.0  0.44147708581265027  0.2631762579131589  0.02159238440617631  1.0000
  H   H3        1.0  0.08816113095914353  0.8304536127331518  0.16029547200446365  1.0000
  H   H4        1.0  0.9118474960191848  0.1695469557659308  0.8397177535823275  1.0000
  H   H5        1.0  0.9633279968154369  0.7537937914390368  0.9521507858353928  1.0000
  H   H6        1.0  0.036656720029199605  0.24620280113845178  0.0478545961973111  1.0000
  H   H7        1.0  0.2630763880244943  0.16045134832783253  0.6813154215867101  1.0000
  H   H8        1.0  0.7369491778650428  0.8395546629068845  0.31867874640816046  1.0000
  H   H9        1.0  0.13581314053045193  0.34175023614267264  0.6659253887048067  1.0000
  H   H10       1.0  0.8641878004817798  0.6582501128145565  0.33406972628615966  1.0000
  H   H11       1.0  0.10839939374836399  0.33973363715197274  0.30049478108897193  1.0000
  H   H12       1.0  0.891567385462203  0.6602624847627753  0.699497848719183  1.0000
  H   H13       1.0  0.3677524191982187  0.34251511887256214  0.27796034420706667  1.0000
  H   H14       1.0  0.6322133762122206  0.6574776249876919  0.7220381272307465  1.0000
  H   H15       1.0  0.2792778719149922  0.7121107558087374  0.5962568719395165  1.0000
  H   H16       1.0  0.7207199604271824  0.2878895057427258  0.40373190184933355  1.0000
  H   H17       1.0  0.31184198894465  0.5965974050703479  0.45531308559712613  1.0000
  H   H18       1.0  0.6881451374638063  0.4033925035977077  0.5446769085572782  1.0000
  C   C1        1.0  0.43930499316000043  0.8063668416594254  0.14600217719798544  1.0000
  C   C2        1.0  0.5607211276115649  0.19362070576700322  0.8539993161872346  1.0000
  C   C3        1.0  0.21264795213463125  0.7953050733469456  0.08949591075180766  1.0000
  C   C4        1.0  0.7873534874945635  0.2047003544049133  0.9105161783266312  1.0000
  C   C5        1.0  0.14050625682030932  0.7503793698554091  0.9689643222034832  1.0000
  C   C6        1.0  0.8594890973907995  0.24962757642744293  0.031041645536078022  1.0000
  C   C7        1.0  0.2640867732814769  0.6923600054888722  0.851815334580813  1.0000
  C   C8        1.0  0.7359197031219511  0.3076539611751699  0.14820248868684874  1.0000
  O   O1        1.0  0.4636870660182666  0.8513343377779136  0.2619481060573463  1.0000
  O   O2        1.0  0.536340457046613  0.1486818195386732  0.738054725098614  1.0000
  O   O3        1.0  0.6114334827297087  0.7714185706190263  0.07505397672822771  1.0000
  O   O4        1.0  0.38857905672203685  0.22857535828998005  0.9249483861356396  1.0000
  O   O5        1.0  0.151126057132089  0.6415833068921942  0.7484349748896122  1.0000
  O   O6        1.0  0.8488489841647537  0.3584298522263795  0.25157272546749004  1.0000
  O   O7        1.0  0.4776704672309933  0.6939371437466592  0.8573673329389777  1.0000
  O   O8        1.0  0.5223066355809892  0.30607103055869794  0.142644183112111  1.0000
  O   O9        1.0  0.127974866710133  0.1787648947594533  0.6378879194264115  1.0000
  O   O10       1.0  0.8720381322198136  0.8212374409256353  0.36210840823297025  1.0000
  O   O11       1.0  0.2531433753527779  0.3420214981247581  0.34339831940080506  1.0000
  O   O12       1.0  0.7468605438964174  0.6579621152335519  0.6565944373684474  1.0000
  O   O13       1.0  0.3359874369918003  0.7462762919135884  0.5180285918792863  1.0000
  O   O14       1.0  0.6640118311816607  0.2537088851170211  0.4819643747788831  1.0000
