data_image0
_chemical_formula_structural       CdH18C10S2N4O2
_chemical_formula_sum              "Cd1 H18 C10 S2 N4 O2"
_cell_length_a       5.9071378738916
_cell_length_b       6.601422696040118
_cell_length_c       9.995763452348667
_cell_angle_alpha    84.76316311289094
_cell_angle_beta     82.49484192198373
_cell_angle_gamma    70.59202268868064

_space_group_name_H-M_alt    "P 1"
_space_group_IT_number       1

loop_
  _space_group_symop_operation_xyz
  'x, y, z'

loop_
  _atom_site_type_symbol
  _atom_site_label
  _atom_site_symmetry_multiplicity
  _atom_site_fract_x
  _atom_site_fract_y
  _atom_site_fract_z
  _atom_site_occupancy
  Cd  Cd1       1.0  0.4999949993840432  9.201961930198317e-06  0.49999256625206817  1.0000
  H   H1        1.0  0.16947159120810087  0.30097315479562065  0.6733458334476978  1.0000
  H   H2        1.0  0.8305173970089046  0.6990219239767727  0.3266621726472749  1.0000
  H   H3        1.0  0.4481008626554087  0.9327802851762641  0.8395062451520515  1.0000
  H   H4        1.0  0.551920868117783  0.0672280228383926  0.1604916933328724  1.0000
  H   H5        1.0  0.14968828798772174  0.9839654833848571  0.798134836632407  1.0000
  H   H6        1.0  0.8503248707608719  0.016033155639711104  0.2018752910981263  1.0000
  H   H7        1.0  0.0004830861177111738  0.3111043621705464  0.9320282080058677  1.0000
  H   H8        1.0  0.9995302852931475  0.6888845994139744  0.06798349996760318  1.0000
  H   H9        1.0  0.1677323269070854  0.08816912790484821  0.03522104163242551  1.0000
  H   H10       1.0  0.8322936010919333  0.9118231449166672  0.9647835963203236  1.0000
  H   H11       1.0  0.4972136886456865  0.5245267372287615  0.8828220628508775  1.0000
  H   H12       1.0  0.5027868772032704  0.4754699812236042  0.11717504098796641  1.0000
  H   H13       1.0  0.2010523852607237  0.5655185294959112  0.8376825312602634  1.0000
  H   H14       1.0  0.7989393673756098  0.4344782082749674  0.16232618342542082  1.0000
  H   H15       1.0  0.5060871044657489  0.42187790886337234  0.6436331821263721  1.0000
  H   H16       1.0  0.493887715416335  0.5781329978711797  0.35636081842063316  1.0000
  H   H17       1.0  0.6624329967664552  0.19939294917485034  0.7466785291068021  1.0000
  H   H18       1.0  0.3375642989576095  0.8006132762007996  0.253305208583491  1.0000
  C   C1        1.0  0.06213316091886878  0.7575408615050847  0.5934887474035122  1.0000
  C   C2        1.0  0.9378465214068823  0.24242154596376517  0.4064988923154189  1.0000
  C   C3        1.0  0.2787291846242184  0.060462188985383095  0.8204747610797795  1.0000
  C   C4        1.0  0.7212801321895984  0.9395427534495437  0.1795252382050307  1.0000
  C   C5        1.0  0.18122666022520656  0.1933772343313152  0.944849425365618  1.0000
  C   C6        1.0  0.8187839688010923  0.8066148580662827  0.05515627559692151  1.0000
  C   C7        1.0  0.3760879243306406  0.44296945188506953  0.8561400712933677  1.0000
  C   C8        1.0  0.6239094582654235  0.5570401617688034  0.14385746004494848  1.0000
  C   C9        1.0  0.4833452369410978  0.3152619857354679  0.7311931055192815  1.0000
  C   C10       1.0  0.5166465312390329  0.6847443425270825  0.2688060141701243  1.0000
  S   S1        1.0  0.825332385873871  0.6873905397964182  0.6491647672296565  1.0000
  S   S2        1.0  0.17466028737241865  0.3126044703847128  0.3508329841992364  1.0000
  N   N1        1.0  0.7617771682159289  0.19716650780090825  0.444344948937534  1.0000
  N   N2        1.0  0.2382204308989627  0.8028560411486725  0.5556527736758596  1.0000
  N   N3        1.0  0.3297635990794206  0.1922210003294326  0.6995589831640104  1.0000
  N   N4        1.0  0.6702351242548873  0.8077757524185714  0.3004432480078663  1.0000
  O   O1        1.0  0.3402931712975175  0.3050420719955369  0.9709978608497637  1.0000
  O   O2        1.0  0.6597262657451493  0.6949582226475359  0.029008731870412387  1.0000
