data_image0
_chemical_formula_structural       Al2H21C30N3O12
_chemical_formula_sum              "Al2 H21 C30 N3 O12"
_cell_length_a       3.960626366006425
_cell_length_b       17.222938394923442
_cell_length_c       17.222927631925007
_cell_angle_alpha    120.00013683075377
_cell_angle_beta     90.00009091314166
_cell_angle_gamma    89.99979221914354

_space_group_name_H-M_alt    "P 1"
_space_group_IT_number       1

loop_
  _space_group_symop_operation_xyz
  'x, y, z'

loop_
  _atom_site_type_symbol
  _atom_site_label
  _atom_site_symmetry_multiplicity
  _atom_site_fract_x
  _atom_site_fract_y
  _atom_site_fract_z
  _atom_site_occupancy
  Al  Al1       1.0  0.9891315891677552  0.4999998890818846  0.4999998282213627  1.0000
  Al  Al2       1.0  0.009333217801319902  0.16666607911584239  0.8333321622826448  1.0000
  H   H1        1.0  0.5082422103330799  0.41836408599344593  0.8354458946973512  1.0000
  H   H2        1.0  0.2702711896767624  0.11207838260565249  0.5271707619316858  1.0000
  H   H3        1.0  0.7205232162146091  0.11092010540930645  0.5280501440638761  1.0000
  H   H4        1.0  0.7305939060672558  0.1971038895085756  0.4457877739612501  1.0000
  H   H5        1.0  0.28005404762686237  0.19821926963182804  0.44522418178009826  1.0000
  H   H6        1.0  0.5082500564322743  0.9170825879766372  0.5816369340206011  1.0000
  H   H7        1.0  0.27027102405066467  0.9150953938303064  0.8879228182769271  1.0000
  H   H8        1.0  0.7205230261165668  0.9171316355810223  0.8890809628300362  1.0000
  H   H9        1.0  0.7305932006783282  0.7486841097439911  0.8028954213814717  1.0000
  H   H10       1.0  0.280053362649717  0.7470062276437945  0.8017818690529029  1.0000
  H   H11       1.0  0.5082443269920417  0.16455460811593534  0.08291567419218641  1.0000
  H   H12       1.0  0.2702719499171452  0.47282689126702593  0.08490468913372957  1.0000
  H   H13       1.0  0.720523964842812  0.4719482665224889  0.08286839112635393  1.0000
  H   H14       1.0  0.7305929684996713  0.5542117501029228  0.2513153863325216  1.0000
  H   H15       1.0  0.2800505968005211  0.5547763192811958  0.2529933792680268  1.0000
  H   H16       1.0  0.4745769108651104  0.5568528080260935  0.7322344921052066  1.0000
  H   H17       1.0  0.5805655243329826  0.5534782421891936  0.8255834800508741  1.0000
  H   H18       1.0  0.47457756326228673  0.6753815506791839  0.44314650380638926  1.0000
  H   H19       1.0  0.5805650919806737  0.772105357733146  0.4465218934728342  1.0000
  H   H20       1.0  0.47456779436544144  0.26776663081364677  0.3246178438945933  1.0000
  H   H21       1.0  0.5805640847237755  0.17441808135286868  0.22789495747905875  1.0000
  C   C1        1.0  0.49038483484536505  0.4295843782835221  0.36203826543111733  1.0000
  C   C2        1.0  0.49038800808286  0.43245397062852947  0.5704154876513174  1.0000
  C   C3        1.0  0.4903863667688669  0.6379610342898022  0.5675455109803452  1.0000
  C   C4        1.0  0.5091978170906303  0.23787231846073126  0.7667880153594739  1.0000
  C   C5        1.0  0.5092045112568755  0.02891529316182351  0.7621283815535664  1.0000
  C   C6        1.0  0.5091985121238736  0.23321280579491366  0.9710842192583589  1.0000
  C   C7        1.0  0.5057053882799707  0.2878410740346667  0.7170967365448677  1.0000
  C   C8        1.0  0.49183529323729414  0.3846932135902607  0.6216402991446375  1.0000
  C   C9        1.0  0.49727495322837006  0.24371901944892488  0.6237238962628313  1.0000
  C   C10       1.0  0.482447829330532  0.430915263005126  0.7170239589449994  1.0000
  C   C11       1.0  0.5038920678102343  0.2915145475873474  0.5784029196938933  1.0000
  C   C12       1.0  0.5042933955285704  0.3816962066034863  0.7622797363048692  1.0000
  C   C13       1.0  0.4974622380838555  0.1530166449407348  0.5384674948665593  1.0000
  C   C14       1.0  0.5040742300662444  0.20735232905808956  0.4866411915124404  1.0000
  C   C15       1.0  0.5057129027388002  0.9292554190539807  0.7121591000097001  1.0000
  C   C16       1.0  0.49183752505831546  0.7369468592861638  0.6153061584284318  1.0000
  C   C17       1.0  0.4972779015734688  0.8800051152169035  0.7562814088722053  1.0000
  C   C18       1.0  0.4824521065556199  0.7861088525492052  0.5690855427498961  1.0000
  C   C19       1.0  0.5038910775593095  0.7868885378754202  0.7084867616500008  1.0000
  C   C20       1.0  0.5043041189146109  0.8805830667124755  0.6183048832361566  1.0000
  C   C21       1.0  0.4974624647467324  0.885451724146549  0.8469835999048744  1.0000
  C   C22       1.0  0.5040731984154974  0.7792894731668202  0.7926479143830395  1.0000
  C   C23       1.0  0.5057083953251081  0.282903205924356  0.07074309152453401  1.0000
  C   C24       1.0  0.49183418854111244  0.37835964371089403  0.2630524711958628  1.0000
  C   C25       1.0  0.49727985257164425  0.37627615565008193  0.11999420398581152  1.0000
  C   C26       1.0  0.48244485878645804  0.2829767741693061  0.2138905887858442  1.0000
  C   C27       1.0  0.5038873332887803  0.42159802249964445  0.21311132391497992  1.0000
  C   C28       1.0  0.5042924682984166  0.23772091828786304  0.11941614029689872  1.0000
  C   C29       1.0  0.4974659970877582  0.46153225621437605  0.11454807911839276  1.0000
  C   C30       1.0  0.5040709433105306  0.5133588147043256  0.22071006766571355  1.0000
  N   N1        1.0  0.4505078600391315  0.5238066057220722  0.766980809720643  1.0000
  N   N2        1.0  0.45051275583848144  0.7431744854217898  0.47619373365883183  1.0000
  N   N3        1.0  0.45050095162486764  0.23301959364113875  0.2568246328451879  1.0000
  O   O1        1.0  0.7229888375329168  0.5986766347656459  0.5865823805831101  1.0000
  O   O2        1.0  0.7229916453841341  0.48790501918858115  0.40132245829529734  1.0000
  O   O3        1.0  0.7229900688775218  0.41341718918916126  0.5120934977741529  1.0000
  O   O4        1.0  0.2565270293284172  0.5972868509998722  0.5097601622900216  1.0000
  O   O5        1.0  0.25652560509136896  0.49023967417423364  0.5875266670352135  1.0000
  O   O6        1.0  0.2565306771129131  0.41247373489718353  0.4027130269883586  1.0000
  O   O7        1.0  0.7441616706449852  0.17629711893826566  0.9311415462754485  1.0000
  O   O8        1.0  0.7441556510766961  0.2548458213862263  0.82370327952372  1.0000
  O   O9        1.0  0.7441593999816547  0.06885818511644728  0.7451547730238918  1.0000
  O   O10       1.0  0.2750938520849715  0.25210046800446434  0.9322928879033728  1.0000
  O   O11       1.0  0.2751025287147827  0.06770831776152889  0.8198070443067781  1.0000
  O   O12       1.0  0.2750938292288795  0.18019293387297364  0.7478996899363823  1.0000
