data_image0
_chemical_formula_structural       U2H28C46N6Cl2O12
_chemical_formula_sum              "U2 H28 C46 N6 Cl2 O12"
_cell_length_a       9.63349294846012
_cell_length_b       9.633510503808225
_cell_length_c       12.186871492015321
_cell_angle_alpha    104.25687870513458
_cell_angle_beta     104.25659301149358
_cell_angle_gamma    100.08556497671387

_space_group_name_H-M_alt    "P 1"
_space_group_IT_number       1

loop_
  _space_group_symop_operation_xyz
  'x, y, z'

loop_
  _atom_site_type_symbol
  _atom_site_label
  _atom_site_symmetry_multiplicity
  _atom_site_fract_x
  _atom_site_fract_y
  _atom_site_fract_z
  _atom_site_occupancy
  U   U1        1.0  0.07801505682504478  0.9219755127987882  0.7500031755201493  1.0000
  U   U2        1.0  0.9219823809233887  0.0780202038333684  0.2499990513327361  1.0000
  H   H1        1.0  0.16950452806787553  0.09544277923151163  0.044793401879616106  1.0000
  H   H2        1.0  0.9045609029427696  0.8304993392850692  0.45521005422293126  1.0000
  H   H3        1.0  0.8304978155892541  0.9045596209958403  0.9552070257660149  1.0000
  H   H4        1.0  0.0954384634698471  0.1694997295120615  0.5447899399910554  1.0000
  H   H5        1.0  0.3335264502078489  0.1265346069881303  0.24367461160762363  1.0000
  H   H6        1.0  0.8734710224502679  0.6664760449358483  0.2563270417171709  1.0000
  H   H7        1.0  0.6664731993445586  0.8734655758905491  0.7563248397557275  1.0000
  H   H8        1.0  0.1265272800497712  0.3335230292684913  0.7436719215050405  1.0000
  H   H9        1.0  0.7612271790077969  0.1487566732265506  0.5852795751059859  1.0000
  H   H10       1.0  0.8512423470990244  0.23877470190318914  0.9147202959256261  1.0000
  H   H11       1.0  0.23877218740481962  0.8512423955705799  0.41472041910800084  1.0000
  H   H12       1.0  0.14875786873293614  0.7612277091385737  0.08527806973646083  1.0000
  H   H13       1.0  0.5172065802688193  0.9666672275182504  0.2637064052357871  1.0000
  H   H14       1.0  0.033336550995201684  0.4827962111288712  0.23629630158618656  1.0000
  H   H15       1.0  0.4827941331961654  0.033332949953219816  0.7362940771193394  1.0000
  H   H16       1.0  0.9666633663647134  0.5172050705037846  0.7637042420053036  1.0000
  H   H17       1.0  0.5265452008256518  0.7912089423916697  0.08263688927812757  1.0000
  H   H18       1.0  0.20879173052819772  0.47345341854035905  0.41736562853029824  1.0000
  H   H19       1.0  0.4734544410606106  0.2087912328232235  0.9173633796246109  1.0000
  H   H20       1.0  0.7912079190242027  0.5265467643383206  0.5826338228330599  1.0000
  H   H21       1.0  0.5193678796870458  0.649186623108328  0.9395698300708235  1.0000
  H   H22       1.0  0.3508118150758364  0.48062882038364313  0.5604320772719049  1.0000
  H   H23       1.0  0.4806309584280157  0.350814648603972  0.06043131760766579  1.0000
  H   H24       1.0  0.6491881099502095  0.5193724689127991  0.43956764878019783  1.0000
  H   H25       1.0  0.44334587167298173  0.7329023308189095  0.4834204214015046  1.0000
  H   H26       1.0  0.2670986340929035  0.5566542252313058  0.016580038056893922  1.0000
  H   H27       1.0  0.556653494739642  0.2670967379782283  0.516579572812482  1.0000
  H   H28       1.0  0.7329023625118651  0.44334706632171367  0.9834199014475971  1.0000
  C   C1        1.0  0.2505671425042166  0.0305809957931444  0.05505587340832818  1.0000
  C   C2        1.0  0.9694215508290969  0.7494335482143556  0.44494642265019013  1.0000
  C   C3        1.0  0.7494317109431209  0.9694202912467206  0.9449436391913865  1.0000
  C   C4        1.0  0.03057701947845712  0.25056662474396063  0.5550536328001671  1.0000
  C   C5        1.0  0.3416613869025015  0.04522699221330841  0.16746486875199912  1.0000
  C   C6        1.0  0.9547791383696237  0.6583405530839173  0.3325365881889937  1.0000
  C   C7        1.0  0.6583388135971973  0.9547754035008892  0.8325351319888626  1.0000
  C   C8        1.0  0.045220235709130925  0.3416585233769994  0.6674625884856056  1.0000
  C   C9        1.0  0.6466452755346026  0.0845972725918713  0.5473325627361803  1.0000
  C   C10       1.0  0.9154045070219325  0.35335586072014996  0.9526678134103364  1.0000
  C   C11       1.0  0.3533546264930436  0.9154039937132268  0.4526696159340774  1.0000
  C   C12       1.0  0.08459651258122851  0.6466454538242061  0.04732967347599982  1.0000
  C   C13       1.0  0.4418444168018567  0.9576749778473114  0.17789379903430094  1.0000
  C   C14       1.0  0.04232848410611475  0.5581570973972064  0.3221079081547345  1.0000
  C   C15       1.0  0.5581565798029047  0.0423263137057006  0.8221061404701899  1.0000
  C   C16       1.0  0.9576698183939172  0.4418419768071331  0.6778910550674838  1.0000
  C   C17       1.0  0.4460626259989766  0.85761981847876  0.07532176519060844  1.0000
  C   C18       1.0  0.1423814816623903  0.5539367966539288  0.4246805212739915  1.0000
  C   C19       1.0  0.5539372913609385  0.14238146315389597  0.9246787784008818  1.0000
  C   C20       1.0  0.8576178924163642  0.4460622798069879  0.5753186554006079  1.0000
  C   C21       1.0  0.3509049990473869  0.8487010396817282  0.9647194216234141  1.0000
  C   C22       1.0  0.1512985696150793  0.6490932502623892  0.5352821490598245  1.0000
  C   C23       1.0  0.6490946581711513  0.15129915086072998  0.03527921220055672  1.0000
  C   C24       1.0  0.8487010799373209  0.3509069326162901  0.46471730230352654  1.0000
  C   C25       1.0  0.3493169839104411  0.7433264973420819  0.8533170245104033  1.0000
  C   C26       1.0  0.2566719810568685  0.6506801049895544  0.6466838752956435  1.0000
  C   C27       1.0  0.6506805224845279  0.2566736810234432  0.1466819999481785  1.0000
  C   C28       1.0  0.7433279363030466  0.3493211766431017  0.3533166682958467  1.0000
  C   C29       1.0  0.4434755812206178  0.648104723889368  0.8567341272869414  1.0000
  C   C30       1.0  0.3518926356911295  0.5565212383378935  0.6432669240963308  1.0000
  C   C31       1.0  0.5565216497007057  0.3518943480584014  0.1432646224828815  1.0000
  C   C32       1.0  0.6481051385113545  0.44348003878160835  0.35673319259039  1.0000
  C   C33       1.0  0.4445579934870241  0.5554412280065365  0.7500016727663593  1.0000
  C   C34       1.0  0.5554411124355524  0.4445611424597474  0.25000056714026897  1.0000
  C   C35       1.0  0.7330760677941798  0.8592657676287419  0.5770823638199616  1.0000
  C   C36       1.0  0.1407274938364651  0.2669257668812364  0.9229162452832611  1.0000
  C   C37       1.0  0.26692409472351397  0.14073219700721035  0.4229175691576544  1.0000
  C   C38       1.0  0.8592732196285198  0.7330744105902341  0.07708423707185831  1.0000
  C   C39       1.0  0.6139334081900927  0.933677330387482  0.5375003023330436  1.0000
  C   C40       1.0  0.06632403617514632  0.38606502232273954  0.9624996429343683  1.0000
  C   C41       1.0  0.3860670144689707  0.06632172533866759  0.46250154041209873  1.0000
  C   C42       1.0  0.9336767002882383  0.6139351781400748  0.03749838680260352  1.0000
  C   C43       1.0  0.46653042955676227  0.8498845402983691  0.49029098776473035  1.0000
  C   C44       1.0  0.15011735431786385  0.5334684761458066  0.00971043498413596  1.0000
  C   C45       1.0  0.5334681254185227  0.1501156173323892  0.5097107027643943  1.0000
  C   C46       1.0  0.8498836422869048  0.46653281540720565  0.990289504520355  1.0000
  N   N1        1.0  0.25593436977335676  0.9368255061651496  0.9550421082507159  1.0000
  N   N2        1.0  0.06317633980512477  0.7440671206079799  0.5449609313126232  1.0000
  N   N3        1.0  0.7440666268314118  0.06317578538786961  0.044957831253775324  1.0000
  N   N4        1.0  0.9368222305024221  0.2559330523503434  0.4550391241377272  1.0000
  N   N5        1.0  0.25585747997887864  0.7441410108881004  0.7499994574394081  1.0000
  N   N6        1.0  0.744143508959752  0.25586027300113295  0.2500012996044703  1.0000
  Cl  Cl1       1.0  0.5607693364041495  0.43923463343219993  0.7499999136643041  1.0000
  Cl  Cl2       1.0  0.4392322188140411  0.5607688786201164  0.24999975767830307  1.0000
  O   O1        1.0  0.957874227043163  0.7926453741897961  0.7928393668052325  1.0000
  O   O2        1.0  0.20736745790662073  0.04213693262947521  0.7071619194408214  1.0000
  O   O3        1.0  0.0421307574044221  0.2073547969804181  0.20716360443820753  1.0000
  O   O4        1.0  0.7926335007161427  0.9578599278452913  0.2928379523004239  1.0000
  O   O5        1.0  0.8684184298802008  0.9447198773411286  0.6236146278542519  1.0000
  O   O6        1.0  0.055281043652286116  0.13158290782028811  0.8763861220285847  1.0000
  O   O7        1.0  0.131581449497709  0.055276973213281594  0.37638584797399943  1.0000
  O   O8        1.0  0.9447223715835591  0.8684194946636341  0.12361451906943441  1.0000
  O   O9        1.0  0.7010201202609211  0.7242360823743113  0.564658258305549  1.0000
  O   O10       1.0  0.2757672492129757  0.29897887482962915  0.9353407537289442  1.0000
  O   O11       1.0  0.29897817457298  0.2757629841662493  0.4353415224560493  1.0000
  O   O12       1.0  0.7242350867780162  0.7010235177339439  0.06466049145606698  1.0000
