data_image0
_chemical_formula_structural       U4H20C24N4O16F8
_chemical_formula_sum              "U4 H20 C24 N4 O16 F8"
_cell_length_a       7.353175069031619
_cell_length_b       8.717579721062352
_cell_length_c       13.040033542042496
_cell_angle_alpha    89.99971026015395
_cell_angle_beta     90.00004763509392
_cell_angle_gamma    89.99967300409003

_space_group_name_H-M_alt    "P 1"
_space_group_IT_number       1

loop_
  _space_group_symop_operation_xyz
  'x, y, z'

loop_
  _atom_site_type_symbol
  _atom_site_label
  _atom_site_symmetry_multiplicity
  _atom_site_fract_x
  _atom_site_fract_y
  _atom_site_fract_z
  _atom_site_occupancy
  U   U1        1.0  0.2500008306701602  0.9281404767061973  0.48883541934257135  1.0000
  U   U2        1.0  0.2499996544552374  0.5718642469145224  0.9888485409274924  1.0000
  U   U3        1.0  0.7499999504613727  0.0718648085271951  0.5111505844423265  1.0000
  U   U4        1.0  0.7500011266993951  0.42814103819741683  0.011169671363511203  1.0000
  H   H1        1.0  0.249996319913663  0.16370257335165667  0.13485603085484857  1.0000
  H   H2        1.0  0.2500056240433254  0.3362956109068521  0.6348598201986139  1.0000
  H   H3        1.0  0.7499976614494984  0.8363004176431376  0.8651407091009988  1.0000
  H   H4        1.0  0.7499978770377781  0.6637027916062266  0.36514458845924497  1.0000
  H   H5        1.0  0.9548626338882541  0.39994102936839243  0.3596404979226122  1.0000
  H   H6        1.0  0.5451443829224872  0.10005645379978033  0.8596419222006022  1.0000
  H   H7        1.0  0.454852314493678  0.600065547358888  0.6403594081634837  1.0000
  H   H8        1.0  0.04513815114803779  0.8999360687631682  0.14036008720009366  1.0000
  H   H9        1.0  0.04512998753126849  0.6000585202989298  0.6403585426463254  1.0000
  H   H10       1.0  0.454865917949924  0.8999385073947721  0.14035711838037204  1.0000
  H   H11       1.0  0.5451375869954447  0.39993859075326554  0.35963733178944324  1.0000
  H   H12       1.0  0.9548667098963436  0.10006003953760971  0.8596427877235941  1.0000
  H   H13       1.0  0.9674535693835794  0.22949977970076674  0.20488735363971958  1.0000
  H   H14       1.0  0.5325505055613604  0.2704988705158656  0.7048889607640734  1.0000
  H   H15       1.0  0.46745185769240294  0.7705101767072904  0.7951110247680478  1.0000
  H   H16       1.0  0.0325429097576873  0.7294948607867087  0.295116110045882  1.0000
  H   H17       1.0  0.032539052027758  0.7705020641841999  0.7951109200561391  1.0000
  H   H18       1.0  0.4674557154348519  0.7294983848947467  0.2951123804196102  1.0000
  H   H19       1.0  0.532540763700922  0.2294962556216404  0.2048834145740629  1.0000
  H   H20       1.0  0.9674619512888895  0.2705012475025086  0.7048898323545745  1.0000
  C   C1        1.0  0.2500021328894988  0.5298511496329397  0.45721961153891044  1.0000
  C   C2        1.0  0.2500023867715058  0.9701492240013396  0.9572252476019192  1.0000
  C   C3        1.0  0.7499932084385816  0.4701495471408845  0.5427778952903497  1.0000
  C   C4        1.0  0.750003834219818  0.029850325609565707  0.04277992792383862  1.0000
  C   C5        1.0  0.2500010859021771  0.4168900809328664  0.36965867859579776  1.0000
  C   C6        1.0  0.2500052746846677  0.08310747969574808  0.869664093352782  1.0000
  C   C7        1.0  0.7499928954697167  0.5831106158413918  0.6303395951023278  1.0000
  C   C8        1.0  0.7500023062797254  0.9168863343894104  0.13033724783706196  1.0000
  C   C9        1.0  0.08552669550547172  0.3663731808800463  0.32744410930052237  1.0000
  C   C10       1.0  0.4144796045356784  0.13362469810235217  0.827449431966919  1.0000
  C   C11       1.0  0.5855223093854961  0.6336329093309488  0.6725540851795203  1.0000
  C   C12       1.0  0.91447567281714  0.8663660167454811  0.1725542890453512  1.0000
  C   C13       1.0  0.914467285865875  0.6336275158971034  0.672553397528411  1.0000
  C   C14       1.0  0.5855279764325303  0.8663679688754229  0.17255190922487176  1.0000
  C   C15       1.0  0.41447167196621854  0.366373522985974  0.3274426547705006  1.0000
  C   C16       1.0  0.08553190814890141  0.13362779733099472  0.8274493527520763  1.0000
  C   C17       1.0  0.089557859731876  0.2721179733454306  0.24225660576566815  1.0000
  C   C18       1.0  0.4104442382511523  0.2278828422946617  0.7422600731323431  1.0000
  C   C19       1.0  0.589552968706066  0.7278915384584794  0.7577415906498361  1.0000
  C   C20       1.0  0.9104383358729606  0.7721124807443048  0.2577421121898454  1.0000
  C   C21       1.0  0.9104320417643238  0.7278838705548623  0.7577393673219536  1.0000
  C   C22       1.0  0.589560622787765  0.7721144131221749  0.2577405011818145  1.0000
  C   C23       1.0  0.41043693276724724  0.27211718808607094  0.24225438242611838  1.0000
  C   C24       1.0  0.08956652516705789  0.22788477466674104  0.7422599958627035  1.0000
  N   N1        1.0  0.2499975044205129  0.2307128954043948  0.20103442799570106  1.0000
  N   N2        1.0  0.2500058944104424  0.2692847897689887  0.7010407451757958  1.0000
  N   N3        1.0  0.7499964769421013  0.7692900955932915  0.7989615450909543  1.0000
  N   N4        1.0  0.7499989666432255  0.7307090243083608  0.2989644303593551  1.0000
  O   O1        1.0  0.2500010967640236  0.8771223693466083  0.6232431355739083  1.0000
  O   O2        1.0  0.2500002239857579  0.6228782287254404  0.12324255214603144  1.0000
  O   O3        1.0  0.7499996843730373  0.12288406294499772  0.3767559049853305  1.0000
  O   O4        1.0  0.7500019171472727  0.3771155853961616  0.8767526540889607  1.0000
  O   O5        1.0  0.25000056544938326  0.9789085144409101  0.35448521872471167  1.0000
  O   O6        1.0  0.24999972693760952  0.521105252223883  0.8544678376781365  1.0000
  O   O7        1.0  0.7500015756679373  0.021093329374487303  0.6455253248805309  1.0000
  O   O8        1.0  0.7500010541682798  0.47890691566821914  0.14551433174912637  1.0000
  O   O9        1.0  0.2500030028588114  0.670783726132001  0.4276818718824132  1.0000
  O   O10       1.0  0.25000011448821613  0.829213428961154  0.9276810840216075  1.0000
  O   O11       1.0  0.7499991382644564  0.329214676390187  0.5723210030367272  1.0000
  O   O12       1.0  0.750000666685395  0.17078267935249872  0.07232102403190772  1.0000
  O   O13       1.0  0.2500009871417106  0.4850528224991778  0.5481258953781778  1.0000
  O   O14       1.0  0.2500008324253429  0.014944868723603101  0.04812644481052791  1.0000
  O   O15       1.0  0.7499943542054839  0.5149432858248988  0.45187697954321504  1.0000
  O   O16       1.0  0.7500053885468745  0.9850592693370503  0.9518733626230972  1.0000
  F   F1        1.0  0.44354301321246237  0.13576972583736344  0.5210905607801097  1.0000
  F   F2        1.0  0.05646284744940289  0.3642281692593771  0.021090599474838708  1.0000
  F   F3        1.0  0.9435422550365404  0.8642277294082704  0.4789101067414877  1.0000
  F   F4        1.0  0.5564602464221265  0.6357688863348657  0.9789091147623741  1.0000
  F   F5        1.0  0.5564618478139067  0.8642309709073785  0.478908479789837  1.0000
  F   F6        1.0  0.9435392936754781  0.6357690861670022  0.97890920796948  1.0000
  F   F7        1.0  0.0564598860981746  0.1357672317917888  0.5210927681834863  1.0000
  F   F8        1.0  0.44353917479308796  0.36422722199078816  0.02109069268323081  1.0000
