data_image0
_chemical_formula_structural       Sr2H32C28N4O12
_chemical_formula_sum              "Sr2 H32 C28 N4 O12"
_cell_length_a       6.781385281526684
_cell_length_b       7.45361776257255
_cell_length_c       16.265204617885768
_cell_angle_alpha    103.23326790577212
_cell_angle_beta     98.29090039615575
_cell_angle_gamma    90.02635948568754

_space_group_name_H-M_alt    "P 1"
_space_group_IT_number       1

loop_
  _space_group_symop_operation_xyz
  'x, y, z'

loop_
  _atom_site_type_symbol
  _atom_site_label
  _atom_site_symmetry_multiplicity
  _atom_site_fract_x
  _atom_site_fract_y
  _atom_site_fract_z
  _atom_site_occupancy
  Sr  Sr1       1.0  0.7289719751985758  0.426042953737685  0.9415101300336418  1.0000
  Sr  Sr2       1.0  0.2705854469070914  0.48385214311161917  0.0585488592502301  1.0000
  H   H1        1.0  0.9672229555031818  0.5764871129581904  0.6621813054420329  1.0000
  H   H2        1.0  0.032056528083188617  0.9145136913168483  0.3378448351576111  1.0000
  H   H3        1.0  0.8871318066819996  0.6097743235271479  0.7617117360005496  1.0000
  H   H4        1.0  0.1118266322522743  0.8483278590617828  0.2382755837640858  1.0000
  H   H5        1.0  0.319873240898545  0.3211365807566792  0.2575623972758905  1.0000
  H   H6        1.0  0.6801205804573057  0.0637151869201702  0.7421116182832251  1.0000
  H   H7        1.0  0.1424304233566716  0.27765983374027314  0.1701881154540033  1.0000
  H   H8        1.0  0.8568594095241835  0.107999189699612  0.8297271306204268  1.0000
  H   H9        1.0  0.7628233171566094  0.6568449953039703  0.5437740740268212  1.0000
  H   H10       1.0  0.23711702817520575  0.11300159231140577  0.4562345551163319  1.0000
  H   H11       1.0  0.46926759268342266  0.7424680884436867  0.9487081830148512  1.0000
  H   H12       1.0  0.5294923050384241  0.7937118256717286  0.05110951552001813  1.0000
  H   H13       1.0  0.45068277163181136  0.787887434629603  0.4880349614147051  1.0000
  H   H14       1.0  0.5497273400448179  0.2993140581089905  0.5118574612993358  1.0000
  H   H15       1.0  0.2003689459770044  0.9069570121378164  0.5851272940821985  1.0000
  H   H16       1.0  0.7997522414633805  0.32136685964795925  0.4146019962913527  1.0000
  H   H17       1.0  0.2627768352987232  0.876357288511123  0.7355828219979941  1.0000
  H   H18       1.0  0.7367504239674574  0.1404134025019701  0.2641425217219577  1.0000
  H   H19       1.0  0.615368620199874  0.9977902355176835  0.9312934589743522  1.0000
  H   H20       1.0  0.3844196051787351  0.0661063746543036  0.06855947305493973  1.0000
  H   H21       1.0  0.7469351144241472  0.08789560554107108  0.019957654496153113  1.0000
  H   H22       1.0  0.25446663498507155  0.0677252678059048  0.9796261682235753  1.0000
  H   H23       1.0  0.27218568241014657  0.4978614485479298  0.38986008078368434  1.0000
  H   H24       1.0  0.7286896063023536  0.10860328451617816  0.6099249985414305  1.0000
  H   H25       1.0  0.051535392522446  0.688742839711935  0.47925699544166633  1.0000
  H   H26       1.0  0.9498938783161394  0.21056169457975218  0.5208555150680425  1.0000
  H   H27       1.0  0.7153869403006751  0.7718794451349706  0.4134017405557415  1.0000
  H   H28       1.0  0.286324260790991  0.3590883477773446  0.5870515703153532  1.0000
  H   H29       1.0  0.6046429329461205  0.646289157097307  0.25792976655947814  1.0000
  H   H30       1.0  0.39618947106080776  0.38827000680743845  0.74255167344775  1.0000
  H   H31       1.0  0.06512855438735701  0.824052186609471  0.046320994546888976  1.0000
  H   H32       1.0  0.9356781386957991  0.7795104046138589  0.9543985546004664  1.0000
  C   C1        1.0  0.5751062927678492  0.7454911019589688  0.8172767224918333  1.0000
  C   C2        1.0  0.42428073809286093  0.9278971705356295  0.18262899447937997  1.0000
  C   C3        1.0  0.5473278962969987  0.7553873690490748  0.7263124969635228  1.0000
  C   C4        1.0  0.45220035666296354  0.028719062923208603  0.2735931084574332  1.0000
  C   C5        1.0  0.695429189240116  0.695514514960948  0.6724008130020993  1.0000
  C   C6        1.0  0.3041639869870423  0.022908662104008194  0.32756536744884823  1.0000
  C   C7        1.0  0.6524965166343151  0.7053638678153714  0.58568019040991  1.0000
  C   C8        1.0  0.347434332817393  0.11933977710727108  0.4142795912594509  1.0000
  C   C9        1.0  0.47705153690272795  0.7785225447019639  0.5546753540792865  1.0000
  C   C10       1.0  0.5230603982315785  0.22337952257918658  0.44522550935044347  1.0000
  C   C11       1.0  0.3350559074125813  0.8434982069644618  0.6083225344827241  1.0000
  C   C12       1.0  0.6649305787217231  0.23471001926989735  0.3915118893750177  1.0000
  C   C13       1.0  0.37108661060585757  0.8293910544672444  0.6927190334815452  1.0000
  C   C14       1.0  0.6285923055858904  0.13628503919336046  0.307104343169776  1.0000
  C   C15       1.0  0.8033954832905366  0.45142470947385493  0.1417466074197762  1.0000
  C   C16       1.0  0.19624678975346652  0.30970258867922934  0.8584461924216954  1.0000
  C   C17       1.0  0.8766935940380949  0.51093221039973  0.23505717676989243  1.0000
  C   C18       1.0  0.12352872023027567  0.2760177398828317  0.7650781960022999  1.0000
  C   C19       1.0  0.06968502234839491  0.46919283286107577  0.2717901242091116  1.0000
  C   C20       1.0  0.9305115703422403  0.1977083603565077  0.7281516143816021  1.0000
  C   C21       1.0  0.1265838295303254  0.5332921105523241  0.36072622132390114  1.0000
  C   C22       1.0  0.8741956562548412  0.1730940479498244  0.6392197452231728  1.0000
  C   C23       1.0  0.0011276504342702994  0.6403509773335044  0.4109251600580563  1.0000
  C   C24       1.0  5.345208673189477e-05  0.23019010906162407  0.5892059659156887  1.0000
  C   C25       1.0  0.8129076895728174  0.6855433865915829  0.37457627299542656  1.0000
  C   C26       1.0  0.18834288122050677  0.3115311228461053  0.6257426241805605  1.0000
  C   C27       1.0  0.7518366309309883  0.6170251621551511  0.2876310992297704  1.0000
  C   C28       1.0  0.24894885379166712  0.329607885674946  0.7127043067358587  1.0000
  N   N1        1.0  0.8764283012730871  0.6404396769730313  0.7033456482975069  1.0000
  N   N2        1.0  0.12297232437696695  0.9371463129859237  0.2966851104264805  1.0000
  N   N3        1.0  0.20453883529799552  0.3722289508932518  0.22334122536060622  1.0000
  N   N4        1.0  0.7953091507138127  0.14909816317653218  0.7764188331871581  1.0000
  O   O1        1.0  0.6178785725534156  0.44593992324164583  0.11486589774156641  1.0000
  O   O2        1.0  0.3817386312494619  0.3305341097448888  0.8855574245416166  1.0000
  O   O3        1.0  0.9308721989829396  0.40949033534017326  0.08961068624107332  1.0000
  O   O4        1.0  0.06830937996630844  0.3203129186063621  0.9104167898313946  1.0000
  O   O5        1.0  0.7198481208067449  0.6541373364425593  0.8457102543931044  1.0000
  O   O6        1.0  0.2793556688679573  0.8081925069680979  0.1542040321628946  1.0000
  O   O7        1.0  0.4536585823317267  0.8314655330644954  0.8654130043655215  1.0000
  O   O8        1.0  0.5457144123245571  0.9658156233132827  0.1344815613929953  1.0000
  O   O9        1.0  0.4993033927924487  0.6865837463867095  0.9999245798455407  1.0000
  O   O10       1.0  0.7289352147626432  0.08609538071422658  0.9593084499432437  1.0000
  O   O11       1.0  0.2708012453081707  0.12591702541694616  0.040326121183675  1.0000
  O   O12       1.0  0.9993724927120128  0.7243660393154128  0.00027212668491928587  1.0000
