data_image0
_chemical_formula_structural       H28Pb2C16O8
_chemical_formula_sum              "H28 Pb2 C16 O8"
_cell_length_a       4.631638783220685
_cell_length_b       7.2014545784210355
_cell_length_c       15.705536769645002
_cell_angle_alpha    88.58795526616778
_cell_angle_beta     82.18478892652156
_cell_angle_gamma    92.58288703690943

_space_group_name_H-M_alt    "P 1"
_space_group_IT_number       1

loop_
  _space_group_symop_operation_xyz
  'x, y, z'

loop_
  _atom_site_type_symbol
  _atom_site_label
  _atom_site_symmetry_multiplicity
  _atom_site_fract_x
  _atom_site_fract_y
  _atom_site_fract_z
  _atom_site_occupancy
  H   H1        1.0  0.8251384235179628  0.6487966802924066  0.1816354349960321  1.0000
  H   H2        1.0  0.17484624762469278  0.35123338105231755  0.8183724799475272  1.0000
  H   H3        1.0  0.9192825465538944  0.8895433640364349  0.18920567793369256  1.0000
  H   H4        1.0  0.0807605856519586  0.11046936892286403  0.8107927167957454  1.0000
  H   H5        1.0  0.22502950817285952  0.5629021256999565  0.2618142367766296  1.0000
  H   H6        1.0  0.7749912449206918  0.43708780622755233  0.7381770952726112  1.0000
  H   H7        1.0  0.3533354241021556  0.7973212326456007  0.26286652582062686  1.0000
  H   H8        1.0  0.646687888203438  0.20268274921549792  0.7371289317673159  1.0000
  H   H9        1.0  0.0563946362957068  0.6944172129921782  0.4048748736294953  1.0000
  H   H10       1.0  0.9436237992446762  0.30556849746881204  0.5951159788930198  1.0000
  H   H11       1.0  0.74626549435731  0.6545868152194887  0.35144883295726703  1.0000
  H   H12       1.0  0.25375536540965976  0.34541734274723984  0.6485549910610118  1.0000
  H   H13       1.0  0.9025715123198171  0.8822915725604477  0.3546783192922191  1.0000
  H   H14       1.0  0.09745994954896989  0.11770584080223054  0.6453264983659749  1.0000
  H   H15       1.0  0.7929474000064475  0.39415926366798004  0.2923816147580283  1.0000
  H   H16       1.0  0.20703854876617814  0.6058343313312166  0.7076128583548353  1.0000
  H   H17       1.0  0.8932962870747403  0.16578195892679304  0.2918392390276523  1.0000
  H   H18       1.0  0.10671339357279662  0.8342107904140124  0.7081607350026287  1.0000
  H   H19       1.0  0.3913727922496264  0.06739035688237752  0.3747239361061574  1.0000
  H   H20       1.0  0.6086216609346169  0.9325963938775818  0.6252690630484636  1.0000
  H   H21       1.0  0.30211878555429916  0.3018168855300659  0.37688043321852394  1.0000
  H   H22       1.0  0.6978799362980012  0.6981714384440423  0.6231168384419306  1.0000
  H   H23       1.0  0.4770909314650354  0.20521734678722944  0.5151272187867164  1.0000
  H   H24       1.0  0.5228723051427906  0.7947594295567272  0.4848766597578376  1.0000
  H   H25       1.0  0.7226742044749345  0.37772448619914206  0.459765125202459  1.0000
  H   H26       1.0  0.27729563830506265  0.6222523457496582  0.540236596699657  1.0000
  H   H27       1.0  0.8125583864232837  0.14107675677696113  0.45778380091588383  1.0000
  H   H28       1.0  0.18742704933578122  0.8589072206157911  0.5422153110303185  1.0000
  Pb  Pb1       1.0  0.2762362798042801  0.23883951923008342  0.05877273122656849  1.0000
  Pb  Pb2       1.0  0.7237879664744824  0.7612578770332377  0.9412332151226721  1.0000
  C   C1        1.0  0.21530958004677098  0.7412336646211632  0.10264510826127089  1.0000
  C   C2        1.0  0.7846723106371415  0.2587696406749629  0.8973512621462162  1.0000
  C   C3        1.0  0.007647466461513399  0.7507597073650417  0.1854103279798949  1.0000
  C   C4        1.0  0.9923475859975214  0.24925376468851113  0.8145942972958125  1.0000
  C   C5        1.0  0.15464886649314016  0.7068027014293747  0.2648763918907163  1.0000
  C   C6        1.0  0.8453635394314462  0.29319824522885096  0.7351163379327161  1.0000
  C   C7        1.0  0.9545817852411888  0.735481636307391  0.3485317541608167  1.0000
  C   C8        1.0  0.0454323830148695  0.2645110852231198  0.6514642329246669  1.0000
  C   C9        1.0  0.5787362298503993  0.2253538946566566  0.2104696268167885  1.0000
  C   C10       1.0  0.42126235747768703  0.7746416883174946  0.7895396264903239  1.0000
  C   C11       1.0  0.7006728495691662  0.25058187247057623  0.2940227117168916  1.0000
  C   C12       1.0  0.29933448244567273  0.7494081104477247  0.7059793065751592  1.0000
  C   C13       1.0  0.48633063227693196  0.21001328517363763  0.3756840182418414  1.0000
  C   C14       1.0  0.5136766890705643  0.7899752751407405  0.6243167508532963  1.0000
  C   C15       1.0  0.6319191335613752  0.23467913947418856  0.4565050063134207  1.0000
  C   C16       1.0  0.36805297435757467  0.7653005237773058  0.5434972205101118  1.0000
  O   O1        1.0  0.2450003895160791  0.880383281724832  0.04849899549464709  1.0000
  O   O2        1.0  0.7549662644209433  0.11962118667020151  0.9514985579090762  1.0000
  O   O3        1.0  0.35694793626416305  0.5958999738202237  0.08735300183337807  1.0000
  O   O4        1.0  0.6430141971398131  0.4040945317175614  0.9126385195452329  1.0000
  O   O5        1.0  0.32001949679619196  0.15666802619301026  0.2115621373361307  1.0000
  O   O6        1.0  0.679979278392821  0.8433274108007115  0.7884413803088391  1.0000
  O   O7        1.0  0.7349738481152243  0.2769399285487353  0.13908846890898727  1.0000
  O   O8        1.0  0.2650276017816111  0.7230737613101468  0.8609203726822229  1.0000
