data_image0
_chemical_formula_structural       H28Pb2C38S2N4O12
_chemical_formula_sum              "H28 Pb2 C38 S2 N4 O12"
_cell_length_a       6.801436106541748
_cell_length_b       11.25921731722918
_cell_length_c       12.669064412068595
_cell_angle_alpha    99.8974266890865
_cell_angle_beta     97.90617801359458
_cell_angle_gamma    103.29504080149914

_space_group_name_H-M_alt    "P 1"
_space_group_IT_number       1

loop_
  _space_group_symop_operation_xyz
  'x, y, z'

loop_
  _atom_site_type_symbol
  _atom_site_label
  _atom_site_symmetry_multiplicity
  _atom_site_fract_x
  _atom_site_fract_y
  _atom_site_fract_z
  _atom_site_occupancy
  H   H1        1.0  0.6295824302236994  0.37480880873312816  0.27897500511146944  1.0000
  H   H2        1.0  0.3704291085713933  0.6251909253501751  0.721025214768453  1.0000
  H   H3        1.0  0.8585498616892621  0.47274833734428506  0.4572278784044742  1.0000
  H   H4        1.0  0.14145572006574975  0.5272513808500461  0.5427758403409088  1.0000
  H   H5        1.0  0.7329967041897163  0.43141030361882554  0.6300645222190583  1.0000
  H   H6        1.0  0.26700034869070066  0.5685903024897525  0.369936324488009  1.0000
  H   H7        1.0  0.45069901556441033  0.3312566071654003  0.7157883372228186  1.0000
  H   H8        1.0  0.5492965501525119  0.6687439923645399  0.28421239730588616  1.0000
  H   H9        1.0  0.0928837720470668  0.2042722620113651  0.6975324920251043  1.0000
  H   H10       1.0  0.9071183889113571  0.7957227668011484  0.3024647400355321  1.0000
  H   H11       1.0  0.760232822381866  0.08463826721313687  0.5809448151760535  1.0000
  H   H12       1.0  0.2397642355302096  0.9153623326400789  0.4190536629836716  1.0000
  H   H13       1.0  0.5431732569519595  0.005584449681492701  0.38984819317746416  1.0000
  H   H14       1.0  0.4568267769643197  0.99441616124389  0.6101497198232054  1.0000
  H   H15       1.0  0.7006519648559717  0.05193888436374997  0.23221819058164786  1.0000
  H   H16       1.0  0.2993461911448704  0.9480607884266374  0.7677802301772518  1.0000
  H   H17       1.0  0.28689775575703175  0.6558936939656022  0.1535090317150605  1.0000
  H   H18       1.0  0.7130981298992154  0.3441041112185771  0.846491306254457  1.0000
  H   H19       1.0  0.8158527013932824  0.8463413133391026  0.08727991739655741  1.0000
  H   H20       1.0  0.1841450655328458  0.1536574258098256  0.9127183337831613  1.0000
  H   H21       1.0  0.5492566683936743  0.6509522111646291  0.0754174935047303  1.0000
  H   H22       1.0  0.45074148592996016  0.34904746371088885  0.9245817167699502  1.0000
  H   H23       1.0  0.6489418542506584  0.4606476926595917  0.11257674635322702  1.0000
  H   H24       1.0  0.35105480955503765  0.5393519798075275  0.8874239307746595  1.0000
  H   H25       1.0  0.662136861651831  0.26384414465692874  0.12743801686384873  1.0000
  H   H26       1.0  0.3378631638783673  0.736156476694056  0.8725638437157175  1.0000
  H   H27       1.0  0.5166760392563815  0.16912516208341088  0.02531556703338109  1.0000
  H   H28       1.0  0.48332359719908885  0.8308745256261076  0.974686123966997  1.0000
  Pb  Pb1       1.0  0.16002590061007277  0.1896194425959691  0.15654433879713994  1.0000
  Pb  Pb2       1.0  0.8399760045127778  0.8103821148048875  0.8434562245084154  1.0000
  C   C1        1.0  0.5772709763551801  0.359016749966301  0.3540996230318215  1.0000
  C   C2        1.0  0.42273202517922204  0.6409838824568438  0.6459016723886821  1.0000
  C   C3        1.0  0.7072608268298026  0.41293925613614135  0.45548346572555704  1.0000
  C   C4        1.0  0.2927421780590365  0.5870613721167643  0.5445162506633852  1.0000
  C   C5        1.0  0.6383215827273644  0.39039837808045497  0.549471771686328  1.0000
  C   C6        1.0  0.36167695899377605  0.6096022325216451  0.45052839768331426  1.0000
  C   C7        1.0  0.43704696831245116  0.3154768320175733  0.5416434964534249  1.0000
  C   C8        1.0  0.562944142622861  0.6845237394359528  0.45835374347708335  1.0000
  C   C9        1.0  0.3537448047020035  0.2915054279859888  0.6358005815050306  1.0000
  C   C10       1.0  0.6462675072108791  0.7084961796356025  0.36420234608060303  1.0000
  C   C11       1.0  0.15605862281837798  0.22281035240805372  0.6257676316534672  1.0000
  C   C12       1.0  0.8439390732951179  0.7771846608387772  0.3742308429036497  1.0000
  C   C13       1.0  0.026705836596555295  0.17342030625662364  0.521087082788988  1.0000
  C   C14       1.0  0.9732996844091488  0.8265756735248855  0.478912122239116  1.0000
  C   C15       1.0  0.8205511150821465  0.1033117767369447  0.508238477794464  1.0000
  C   C16       1.0  0.17945259211186482  0.896686999152152  0.4917641696775946  1.0000
  C   C17       1.0  0.7027151244333325  0.059477585129989984  0.40492427711562595  1.0000
  C   C18       1.0  0.29728264584722547  0.940521149848692  0.5950723950325313  1.0000
  C   C19       1.0  0.7914475220337138  0.0853897442208122  0.3145435982604924  1.0000
  C   C20       1.0  0.2085502415379707  0.9146089990983555  0.685456231950788  1.0000
  C   C21       1.0  0.3139569867286127  0.2663550673771057  0.43576740075481996  1.0000
  C   C22       1.0  0.6860427222166976  0.733648344149394  0.5642332773523792  1.0000
  C   C23       1.0  0.104127995624097  0.1943295064734372  0.42532787893264873  1.0000
  C   C24       1.0  0.8958735221012474  0.8056711152008234  0.5746717252779379  1.0000
  C   C25       1.0  0.04229749123386745  0.43481352017041536  0.16146881016604916  1.0000
  C   C26       1.0  0.9577006597353233  0.5651861588753418  0.838531979140193  1.0000
  C   C27       1.0  0.9753478059095501  0.5473034352525588  0.13836180190374858  1.0000
  C   C28       1.0  0.02464886460502666  0.4526962288740676  0.8616357171610078  1.0000
  C   C29       1.0  0.06837481974083202  0.761989647855458  0.11934318676082974  1.0000
  C   C30       1.0  0.9316233345827953  0.23801002702005292  0.8806560235138509  1.0000
  C   C31       1.0  0.12566273586894278  0.6557117444654351  0.13865156992757482  1.0000
  C   C32       1.0  0.87433393129119  0.34428792383143747  0.8613475281687432  1.0000
  C   C33       1.0  0.8604081540908055  0.7616116331492861  0.09862309326813092  1.0000
  C   C34       1.0  0.13959109999881744  0.23838711257828743  0.9013752700899433  1.0000
  C   C35       1.0  0.7106801432676662  0.6519767425243188  0.09436720590699821  1.0000
  C   C36       1.0  0.289318012733183  0.34802293026607595  0.9056312148519015  1.0000
  C   C37       1.0  0.7670606728980475  0.5454350006097356  0.1150425103979984  1.0000
  C   C38       1.0  0.23293560351014253  0.45456373613079376  0.8849572076349264  1.0000
  S   S1        1.0  0.26047389223172973  0.9009518177781289  0.12260316035682452  1.0000
  S   S2        1.0  0.7395272347416721  0.09904787233979559  0.8773970637903548  1.0000
  N   N1        1.0  0.3876050421628321  0.2881083530262103  0.34465609560130167  1.0000
  N   N2        1.0  0.6124010045111845  0.7118960184563221  0.6553452007985215  1.0000
  N   N3        1.0  0.9855144193249856  0.15003421017846819  0.3246317875944273  1.0000
  N   N4        1.0  0.014480374951361237  0.8499645137280536  0.6753654497127928  1.0000
  O   O1        1.0  0.9061201978906936  0.3407571546891858  0.17363710513269842  1.0000
  O   O2        1.0  0.09387795140127503  0.6592425264416872  0.8263644736893243  1.0000
  O   O3        1.0  0.2313843473018764  0.43688510727916  0.16936864552407377  1.0000
  O   O4        1.0  0.7686123148266047  0.5631145672730752  0.8306328211195936  1.0000
  O   O5        1.0  0.18736136780247387  0.9482974699778309  0.027044491936642594  1.0000
  O   O6        1.0  0.8126397574937058  0.05170222222520949  0.9729565217263175  1.0000
  O   O7        1.0  0.26477583692407336  0.9858877957766339  0.22653819338026446  1.0000
  O   O8        1.0  0.7352200470549523  0.014110011492661601  0.7734629341050268  1.0000
  O   O9        1.0  0.45393188609453716  0.8649771879273587  0.11794796382142185  1.0000
  O   O10       1.0  0.5460673612862124  0.13502156614070063  0.8820535575997754  1.0000
  O   O11       1.0  0.5194358969024434  0.20969931885068155  0.10127361622912903  1.0000
  O   O12       1.0  0.48056412862774767  0.7903013025003032  0.8987282443504444  1.0000
