data_image0
_chemical_formula_structural       Na4H28C24N24O32
_chemical_formula_sum              "Na4 H28 C24 N24 O32"
_cell_length_a       6.553255501922548
_cell_length_b       12.933095975
_cell_length_c       13.087
_cell_angle_alpha    90.0
_cell_angle_beta     90.53895896811292
_cell_angle_gamma    90.0

_space_group_name_H-M_alt    "P 1"
_space_group_IT_number       1

loop_
  _space_group_symop_operation_xyz
  'x, y, z'

loop_
  _atom_site_type_symbol
  _atom_site_label
  _atom_site_symmetry_multiplicity
  _atom_site_fract_x
  _atom_site_fract_y
  _atom_site_fract_z
  _atom_site_occupancy
  Na  Na1       1.0  0.7316977246186269  0.8718940941749267  0.06189302688459009  1.0000
  Na  Na2       1.0  0.7683055775504071  0.3718923921462647  0.9381073325221153  1.0000
  Na  Na3       1.0  0.2683105809339352  0.1281139491427936  0.9381049491205432  1.0000
  Na  Na4       1.0  0.23169509786897885  0.628112558331182  0.06189442812851809  1.0000
  H   H1        1.0  0.8638607873144294  0.04765216319366059  0.9401200405373586  1.0000
  H   H2        1.0  0.6361501449877736  0.547654638432391  0.05987882657503721  1.0000
  H   H3        1.0  0.136145992211496  0.9523496944435195  0.0598756359286199  1.0000
  H   H4        1.0  0.3638459523517099  0.4523518584651995  0.9401190919263982  1.0000
  H   H5        1.0  0.502049028466331  0.9377499419662385  0.9251576226989968  1.0000
  H   H6        1.0  0.9979603778092425  0.4377505595677746  0.0748442936936868  1.0000
  H   H7        1.0  0.49795469900632827  0.06225191567094869  0.07484262409344211  1.0000
  H   H8        1.0  0.0020494537699490994  0.5622512980694125  0.9251582742017846  1.0000
  H   H9        1.0  0.3677892051749083  0.8388254460471529  0.9405991923263245  1.0000
  H   H10       1.0  0.1322195256812719  0.3388245172285593  0.0593986710645353  1.0000
  H   H11       1.0  0.6322191003776536  0.1611740919598361  0.0593987836788088  1.0000
  H   H12       1.0  0.8677872538446536  0.661175793988491  0.9406015901038245  1.0000
  H   H13       1.0  0.7910021716833169  0.7295445744962095  0.6205218726116827  1.0000
  H   H14       1.0  0.7089965524058143  0.2295397796272809  0.3794769369970155  1.0000
  H   H15       1.0  0.2089923996295369  0.2704503242503762  0.3794706898823534  1.0000
  H   H16       1.0  0.2910087010934745  0.7704582119595713  0.6205271375686935  1.0000
  H   H17       1.0  0.7404479613400736  0.8048444100408076  0.5083574106885393  1.0000
  H   H18       1.0  0.7595477106957842  0.3048396151718791  0.4916398563101083  1.0000
  H   H19       1.0  0.2595511880526757  0.1951466226554501  0.4916420504229464  1.0000
  H   H20       1.0  0.24045296472360175  0.6951568299948363  0.5083550272869601  1.0000
  H   H21       1.0  0.6851661204835722  0.9497138213265258  0.2899438905146283  1.0000
  H   H22       1.0  0.8148356556588252  0.4497105728777342  0.7100579899382425  1.0000
  H   H23       1.0  0.3148376069890801  0.050289582730790997  0.7100555921607424  1.0000
  H   H24       1.0  0.18516044168065796  0.5502897383393162  0.2899429850314448  1.0000
  H   H25       1.0  0.6966876215730267  0.0460531647759623  0.2199767643506263  1.0000
  H   H26       1.0  0.8033141545693708  0.546050227544221  0.7800243519851833  1.0000
  H   H27       1.0  0.30331610589962565  0.9539525589115598  0.780025010675935  1.0000
  H   H28       1.0  0.19668499482338578  0.4539500836728294  0.2199766373604248  1.0000
  C   C1        1.0  0.8363007462978018  0.971987683714687  0.8143602114238604  1.0000
  C   C2        1.0  0.6637010298445956  0.4719875281061618  0.18564014079488803  1.0000
  C   C3        1.0  0.16369992912158435  0.0280149471325615  0.18563696452439873  1.0000
  C   C4        1.0  0.336304223654693  0.5280135563209569  0.8143570567172561  1.0000
  C   C5        1.0  0.8140299135958813  0.8795558327247335  0.7506074154476822  1.0000
  C   C6        1.0  0.6859688104932502  0.37955490390613983  0.2493959788633973  1.0000
  C   C7        1.0  0.18596770977023877  0.1204437052822556  0.2493935667099691  1.0000
  C   C8        1.0  0.31401813068642775  0.6204446341008492  0.7506041888614591  1.0000
  C   C9        1.0  0.7869002120901455  0.884530666293152  0.6396390990887041  1.0000
  C   C10       1.0  0.7130893558391804  0.3845258714242235  0.3603650162116594  1.0000
  C   C11       1.0  0.21309588524934495  0.1154665520836389  0.3603595835297924  1.0000
  C   C12       1.0  0.2868945332872244  0.6154674809022254  0.6396381936055207  1.0000
  C   C13       1.0  0.7722747728263926  0.983640732628217  0.5885126716452477  1.0000
  C   C14       1.0  0.727705638943128  0.4836382573894866  0.4114906364102851  1.0000
  C   C15       1.0  0.22771522040655864  0.0163533929083073  0.41148903868965897  1.0000
  C   C16       1.0  0.2722660419702052  0.5163558681470306  0.588511751786136  1.0000
  C   C17       1.0  0.8053681864192226  0.0758658253133362  0.6468675258741854  1.0000
  C   C18       1.0  0.6946213815100961  0.5758636612916632  0.3531404100114912  1.0000
  C   C19       1.0  0.19462180681372124  0.9241368055339123  0.3531288356412787  1.0000
  C   C20       1.0  0.3053731898027506  0.4241358767153186  0.6468659065896674  1.0000
  C   C21       1.0  0.8412557547795814  0.0669615381865256  0.7539472398939324  1.0000
  C   C22       1.0  0.6587536514959851  0.5669601473749211  0.2460569688499419  1.0000
  C   C23       1.0  0.1587464466664414  0.9330403194506544  0.24604994324229076  1.0000
  C   C24       1.0  0.3412546540565699  0.4330417102622661  0.7539455918575727  1.0000
  N   N1        1.0  0.8141291053271118  0.1743650556958016  0.617279388739945  1.0000
  N   N2        1.0  0.6858604626022069  0.67436366488419  0.3827201418580444  1.0000
  N   N3        1.0  0.18587309611891095  0.8256368019413856  0.38271626616214866  1.0000
  N   N4        1.0  0.3141295306307369  0.3256343267026622  0.6172808043597938  1.0000
  N   N5        1.0  0.8523438643048776  0.9732433768628255  0.9134294362976476  1.0000
  N   N6        1.0  0.6476670679973253  0.4732455408844984  0.0865679025806187  1.0000
  N   N7        1.0  0.1476720713808533  0.0267561611441636  0.0865655191790395  1.0000
  N   N8        1.0  0.3523442896085028  0.5267601828030166  0.913428559566313  1.0000
  N   N9        1.0  0.8767312959486657  0.1611230600954414  0.7900828568255635  1.0000
  N   N10       1.0  0.6232720062203683  0.6611232157039666  0.2099159743470196  1.0000
  N   N11       1.0  0.12327395755063009  0.8388811171719439  0.20991434068658074  1.0000
  N   N12       1.0  0.3767332472789207  0.3388832811936169  0.7900819872821927  1.0000
  N   N13       1.0  0.8132852125983092  0.7834581928090856  0.7993866692412441  1.0000
  N   N14       1.0  0.6867150375174516  0.2834564907804307  0.2006106193212887  1.0000
  N   N15       1.0  0.1867230929542529  0.21654211840796475  0.20061130676388927  1.0000
  N   N16       1.0  0.3132810598220317  0.7165415008064215  0.7993857709460244  1.0000
  N   N17       1.0  0.7705457846496555  0.799041468491076  0.5850384926876444  1.0000
  N   N18       1.0  0.7294636216259178  0.2990366736221475  0.4149611313538557  1.0000
  N   N19       1.0  0.22945336474310096  0.2009572963058446  0.4149609684238484  1.0000
  N   N20       1.0  0.27054773597991033  0.7009589983345066  0.5850368590272055  1.0000
  N   N21       1.0  0.7399993095095709  0.9935038002375903  0.4837790003389699  1.0000
  N   N22       1.0  0.7599856803398521  0.4934997785787303  0.5162250933975088  1.0000
  N   N23       1.0  0.2599998398831787  0.0064903252989268  0.516221224889577  1.0000
  N   N24       1.0  0.23998905262675405  0.5064958933779167  0.48377654505777207  1.0000
  O   O1        1.0  0.7851834321264803  0.777786696970679  0.8948346498285744  1.0000
  O   O2        1.0  0.7148244481224564  0.277790407412482  0.105158854088458  1.0000
  O   O3        1.0  0.21481876931954247  0.2222097481960432  0.10516100507351923  1.0000
  O   O4        1.0  0.2851869094833717  0.7222160894851015  0.8948376080584738  1.0000
  O   O5        1.0  0.4229993227795958  0.9006745192734087  0.9762905896885528  1.0000
  O   O6        1.0  0.0770063560233183  0.4006751368749518  0.023708787560508402  1.0000
  O   O7        1.0  0.5770059307196929  0.0993250187335732  0.023708136057720697  1.0000
  O   O8        1.0  0.9229988974759704  0.5993259475521668  0.9762922305369559  1.0000
  O   O9        1.0  0.68408111554654  0.9705649771921685  0.21713523437041723  1.0000
  O   O10       1.0  0.8159282907290333  0.4705625019534452  0.7828674461393277  1.0000
  O   O11       1.0  0.31592261192611903  0.0294399732852852  0.7828650124220218  1.0000
  O   O12       1.0  0.1840739107169895  0.5294385824736736  0.21713432169926963  1.0000
  O   O13       1.0  0.8412191301403593  0.6997265014883638  0.7498460511071485  1.0000
  O   O14       1.0  0.6587826460020378  0.1997232530395721  0.2501558293457222  1.0000
  O   O15       1.0  0.1587815452790267  0.3002738097286866  0.2501518889581718  1.0000
  O   O16       1.0  0.3412226074972508  0.8002762849674099  0.749845952868796  1.0000
  O   O17       1.0  0.7075971859821022  0.9143564714016605  0.42679670003327896  1.0000
  O   O18       1.0  0.7924030641336584  0.4143601818434632  0.5732097579340092  1.0000
  O   O19       1.0  0.29240196341064717  0.08563533450465849  0.5732050534293975  1.0000
  O   O20       1.0  0.207596085259091  0.5856447686339834  0.4267996366992932  1.0000
  O   O21       1.0  0.7430559408582054  0.0823507381417983  0.4451122638773057  1.0000
  O   O22       1.0  0.756916840778139  0.5823431616496606  0.5548955929407882  1.0000
  O   O23       1.0  0.2569432085345511  0.9176464802349855  0.5548963666389284  1.0000
  O   O24       1.0  0.2430502620552915  0.4176455514163919  0.4451136507453128  1.0000
  O   O25       1.0  0.8591743595202954  0.2317295105358568  0.703189583941615  1.0000
  O   O26       1.0  0.6408319947020047  0.7317250268839857  0.2968146104263312  1.0000
  O   O27       1.0  0.1408324200056299  0.7682731203113988  0.2968083848755541  1.0000
  O   O28       1.0  0.35917173277064757  0.2682721914928052  0.7031932775367269  1.0000
  O   O29       1.0  0.9246180117350348  0.19827503058485257  0.8752843453883514  1.0000
  O   O30       1.0  0.575382238380733  0.698273639773248  0.124715999642433  1.0000
  O   O31       1.0  0.07538266368435838  0.8017245074221293  0.12470900997459472  1.0000
  O   O32       1.0  0.42461691101202337  0.3017328571243354  0.8752918667567471  1.0000
