data_image0
_chemical_formula_structural       C44F2H42N16Zn4
_chemical_formula_sum              "C44 F2 H42 N16 Zn4"
_cell_length_a       13.024310031286387
_cell_length_b       13.006028047597885
_cell_length_c       14.856083952996801
_cell_angle_alpha    100.73295699233037
_cell_angle_beta     118.72379478139413
_cell_angle_gamma    103.5612931588056

_space_group_name_H-M_alt    "P 1"
_space_group_IT_number       1

loop_
  _space_group_symop_operation_xyz
  'x, y, z'

loop_
  _atom_site_type_symbol
  _atom_site_label
  _atom_site_symmetry_multiplicity
  _atom_site_fract_x
  _atom_site_fract_y
  _atom_site_fract_z
  _atom_site_occupancy
  C   C1        1.0  0.5809644022804931  0.8404463309910285  0.9107197593601554  1.0000
  C   C2        1.0  0.5444401303019715  0.18023440139867122  0.9190088977758676  1.0000
  C   C3        1.0  0.009032815735658053  0.6179127892196662  0.14626555266914906  1.0000
  C   C4        1.0  0.042706452383668866  0.2076851392259585  0.6780920144332113  1.0000
  C   C5        1.0  0.5188793589370917  0.4148271939376259  0.7041711557218093  1.0000
  C   C6        1.0  0.7868382425943705  0.9066240876113625  0.4978296188423385  1.0000
  C   C7        1.0  0.5347528841510965  0.48729722663219377  0.47293765820558054  1.0000
  C   C8        1.0  0.31182651401919514  0.5422444649937647  0.10900626394691668  1.0000
  C   C9        1.0  0.8612700688110804  0.019772551491349964  0.5942109247833969  1.0000
  C   C10       1.0  0.513307352135989  0.49335452949791403  0.5657114851209997  1.0000
  C   C11       1.0  0.9322026314052819  0.9505345670016679  0.4333646747454836  1.0000
  C   C12       1.0  0.6404251589346401  0.3487566174487285  0.5138479951982902  1.0000
  C   C13       1.0  0.7568911581412721  0.02332714257964605  0.38242128313276436  1.0000
  C   C14       1.0  0.4051700280219776  0.2844204450096086  0.3994763281095998  1.0000
  C   C15       1.0  0.7929712830253807  0.9201253146644108  0.39979069801825057  1.0000
  C   C16       1.0  0.5291377135720765  0.36874280273312376  0.4245119831975686  1.0000
  C   C17       1.0  0.9483860083933848  0.10519489514612697  0.5771675504601746  1.0000
  C   C18       1.0  0.5232577347862133  0.3904985481531398  0.603159113163869  1.0000
  C   C19       1.0  0.022624809084675172  0.04532408015936091  0.5458611698872176  1.0000
  C   C20       1.0  0.6470595498594989  0.3788131353435419  0.6230963260495841  1.0000
  C   C21       1.0  0.4269042802484079  0.32407621918566326  0.21470803726217716  1.0000
  C   C22       1.0  0.6752759944327312  0.809315394723129  0.19101481079241006  1.0000
  C   C23       1.0  0.8620219089334356  0.13368209467001438  0.4779841157206805  1.0000
  C   C24       1.0  0.6441123076352112  0.2845253959488546  0.9938396442297516  1.0000
  C   C25       1.0  0.4129832914654939  0.2840497482478527  0.5067942003996463  1.0000
  C   C26       1.0  0.11971614080424327  0.6089105350501427  0.15051703684058276  1.0000
  C   C27       1.0  0.555254162567138  0.07151012162476175  0.896472651821604  1.0000
  C   C28       1.0  0.1742693980916031  0.6581691138121857  0.10348266966324353  1.0000
  C   C29       1.0  0.4586916525862249  0.970493194875843  0.8493936076943454  1.0000
  C   C30       1.0  0.9452143218371205  0.5606656969391183  0.1872811094200061  1.0000
  C   C31       1.0  0.29163820965393233  0.6501522593664008  0.007545524542408096  1.0000
  C   C32       1.0  0.3731947583682425  0.7592392962233064  0.8129848357867928  1.0000
  C   C33       1.0  0.6943648474796047  0.7025483720819778  0.2932302356698244  1.0000
  C   C34       1.0  0.6335227545758569  0.41247826549282957  0.3167909468527128  1.0000
  C   C35       1.0  0.47129422652631775  0.8636182573629229  0.8532596945991882  1.0000
  C   C36       1.0  0.26075748745185473  0.6245104460988459  0.08167646202067394  1.0000
  C   C37       1.0  0.5306431401245959  0.3625199931816924  0.32331471652242527  1.0000
  C   C38       1.0  0.7144314545022824  0.81514661051002  0.29857163004635373  1.0000
  C   C39       1.0  0.9285384854675768  0.6701054729212075  0.08824508934274183  1.0000
  C   C40       1.0  0.43544717908195446  0.20472091809575232  0.8915537237498938  1.0000
  C   C41       1.0  0.11468295646795923  0.21169211790579118  0.7863839408614979  1.0000
  C   C42       1.0  0.6195575680634063  0.48339216608913926  0.8116776743651214  1.0000
  C   C43       1.0  0.41154155454257335  0.4017953930689657  0.7088051250496504  1.0000
  C   C44       1.0  0.09645403293735891  0.3179939114630842  0.6847787133909192  1.0000
  F   F1        1.0  0.8413456210954067  0.8268951414613072  0.533818649173334  1.0000
  F   F2        1.0  0.6558572706126711  0.5692106143646641  0.5140421475427743  1.0000
  H   H1        1.0  0.6880849097022972  0.8700796493313377  0.47332225528413824  1.0000
  H   H2        1.0  0.7294116633875375  0.3991340419982096  0.5259997253935041  1.0000
  H   H3        1.0  0.9547623801687805  0.8743875302109103  0.4332814743109594  1.0000
  H   H4        1.0  0.07196230108762341  0.011392364337410836  0.6097652904941668  1.0000
  H   H5        1.0  0.7268789369927118  0.45885160406665193  0.6822070259360657  1.0000
  H   H6        1.0  0.7408131059804505  0.02848955958511109  0.30406083537766904  1.0000
  H   H7        1.0  0.38721115539826184  0.2000125097211196  0.3503371693077638  1.0000
  H   H8        1.0  0.46663503610355406  0.5095098274753981  0.407446486448002  1.0000
  H   H9        1.0  0.6663447620047195  0.010550199445141576  0.3754693185006631  1.0000
  H   H10       1.0  0.3258440713562222  0.3075936079861635  0.34801652584607007  1.0000
  H   H11       1.0  0.8209567208547809  0.1897287582560238  0.5018189783953703  1.0000
  H   H12       1.0  0.32334263430627175  0.2807272084247218  0.4978958918981888  1.0000
  H   H13       1.0  0.9193962487667378  0.18066785701596905  0.4527750164794926  1.0000
  H   H14       1.0  0.42817474932754623  0.2087534612964817  0.5251032722774767  1.0000
  H   H15       1.0  0.9384023899399028  0.9755949583117104  0.36880342800203886  1.0000
  H   H16       1.0  0.6263625955224157  0.25945164681535  0.48324248728055613  1.0000
  H   H17       1.0  0.32727610947530655  0.27943453048711586  0.18033257908765424  1.0000
  H   H18       1.0  0.6726637135997748  0.8755628249676165  0.15584889879903585  1.0000
  H   H19       1.0  0.09602226902793362  0.10828096167914945  0.54624710442026  1.0000
  H   H20       1.0  0.6632849856865876  0.313692705314125  0.6600372937430095  1.0000
  H   H21       1.0  0.1528598102479393  0.5476655160195564  0.1860166460869692  1.0000
  H   H22       1.0  0.651639581210148  0.07344362414144717  0.9320058760932213  1.0000
  H   H23       1.0  0.141166893191297  0.7191640205160256  0.06748058114620643  1.0000
  H   H24       1.0  0.7965652965993613  0.05504871546340703  0.6037306484227899  1.0000
  H   H25       1.0  0.362529204131249  0.9689112795834517  0.8145042396099097  1.0000
  H   H26       1.0  0.2711608407274823  0.7096046645911616  0.9652274187139155  1.0000
  H   H27       1.0  0.2716245682580761  0.7374804141691345  0.7637810801654793  1.0000
  H   H28       1.0  0.7114156211020842  0.667309136365553  0.3575742929717407  1.0000
  H   H29       1.0  0.7330561014810114  0.4549483468255247  0.38169448880019274  1.0000
  H   H30       1.0  0.41995635126401254  0.49669235597308176  0.5401758402899759  1.0000
  H   H31       1.0  0.9383315529285384  0.722424578551646  0.04155656293563237  1.0000
  H   H32       1.0  0.33620115447608606  0.15054134249992757  0.8355476101334246  1.0000
  H   H33       1.0  0.10685011833778191  0.14549395973469367  0.8205737798180762  1.0000
  H   H34       1.0  0.7206767677028552  0.5150015283356029  0.8469886041147561  1.0000
  H   H35       1.0  0.31213311419399753  0.35461097180833434  0.6452878386553067  1.0000
  H   H36       1.0  0.07084904600663577  0.3545170245862296  0.6207000307099618  1.0000
  H   H37       1.0  0.6796769266674189  0.8962845992066947  0.9565003878118571  1.0000
  H   H38       1.0  0.31215537625239165  0.4979507061157947  0.16428072092113402  1.0000
  H   H39       1.0  0.9160054000844937  0.002529137712102223  0.6693124929826981  1.0000
  H   H40       1.0  0.5836832481840303  0.572121981684809  0.6348787439513828  1.0000
  H   H41       1.0  0.7454926413781138  0.30572122914503563  0.03605630816324641  1.0000
  H   H42       1.0  0.9727111333375049  0.5085717260227939  0.23714164827652712  1.0000
  N   N1        1.0  0.5501421580423055  0.7322690704513378  0.9052893705814923  1.0000
  N   N2        1.0  0.420524285260768  0.6813416371512845  0.844254406715599  1.0000
  N   N3        1.0  0.352291526024018  0.5856726844721435  0.9903099850347556  1.0000
  N   N4        1.0  0.6487581048820417  0.6361400850154767  0.19046447774987738  1.0000
  N   N5        1.0  0.5940363155939182  0.404441996847588  0.21270088030776446  1.0000
  N   N6        1.0  0.8262415729338886  0.6452679499772246  0.09419467113410465  1.0000
  N   N7        1.0  0.4691000644510906  0.3134149230571453  0.9482261492856878  1.0000
  N   N8        1.0  0.3647965434238146  0.519655417688533  0.052996665954601965  1.0000
  N   N9        1.0  0.20424079720829244  0.3158966022020167  0.852032754552354  1.0000
  N   N10       1.0  0.5743660522719123  0.5102208950662259  0.8740601813176594  1.0000
  N   N11       1.0  0.4465803610607961  0.4601023286338233  0.8108752066601139  1.0000
  N   N12       1.0  0.1929761845178177  0.3822747993207188  0.7887166236344426  1.0000
  N   N13       1.0  0.5973303296781438  0.3626961659952456  0.011410703725715652  1.0000
  N   N14       1.0  0.8364537055005314  0.577076418782994  0.15605413148969663  1.0000
  N   N15       1.0  0.4650580529609627  0.3494312577901226  0.14886744855726167  1.0000
  N   N16       1.0  0.6370199874843648  0.7016512524424243  0.12759877287142274  1.0000
  Zn  Zn1       1.0  0.6521117942864761  0.6528892152951683  0.0004834742981927022  1.0000
  Zn  Zn2       1.0  0.370226185974957  0.3691015680609909  0.0009331224774698241  1.0000
  Zn  Zn3       1.0  0.3453075674295007  0.5284145409069368  0.8517617665091349  1.0000
  Zn  Zn4       1.0  0.6764409567518257  0.4943944988517117  0.1492461417026193  1.0000
