data_image0
_chemical_formula_structural       Cd4H32C48S8N8O12
_chemical_formula_sum              "Cd4 H32 C48 S8 N8 O12"
_cell_length_a       6.515541272000142
_cell_length_b       10.081001988030973
_cell_length_c       18.883694164055985
_cell_angle_alpha    90.00028115602936
_cell_angle_beta     90.0000081803654
_cell_angle_gamma    90.00002084483037

_space_group_name_H-M_alt    "P 1"
_space_group_IT_number       1

loop_
  _space_group_symop_operation_xyz
  'x, y, z'

loop_
  _atom_site_type_symbol
  _atom_site_label
  _atom_site_symmetry_multiplicity
  _atom_site_fract_x
  _atom_site_fract_y
  _atom_site_fract_z
  _atom_site_occupancy
  Cd  Cd1       1.0  0.6913886489172257  0.35004769470083374  0.44835501602246786  1.0000
  Cd  Cd2       1.0  0.8086116458977416  0.6499537094726194  0.9483608645660265  1.0000
  Cd  Cd3       1.0  0.30861771865099286  0.8500487139941555  0.05164144835611487  1.0000
  Cd  Cd4       1.0  0.191385651003479  0.14995291168132494  0.5516406760049148  1.0000
  H   H1        1.0  0.675793716487064  0.6786421066870149  0.4688270795938789  1.0000
  H   H2        1.0  0.824201983754925  0.3213614680481101  0.968828883657373  1.0000
  H   H3        1.0  0.32421102947530756  0.17863818076152427  0.03117369812925829  1.0000
  H   H4        1.0  0.17579233037808  0.8213622663431293  0.5311741687016391  1.0000
  H   H5        1.0  0.7037162197272337  0.8821592466043879  0.3960550413253116  1.0000
  H   H6        1.0  0.7962763760837676  0.11784366464713972  0.8960578954318235  1.0000
  H   H7        1.0  0.29629476848080566  0.3821559769488729  0.10394680342519536  1.0000
  H   H8        1.0  0.20371016101052666  0.6178421577372718  0.603942501223649  1.0000
  H   H9        1.0  0.7486733066738792  0.8593900775761439  0.2633876443441564  1.0000
  H   H10       1.0  0.7513315039436108  0.14061162410244774  0.763390556713993  1.0000
  H   H11       1.0  0.2513269264598392  0.35939098176022094  0.2366146698378769  1.0000
  H   H12       1.0  0.24867192739186814  0.6406043946449316  0.7366104296196451  1.0000
  H   H13       1.0  0.7880606091294454  0.712815881449103  0.15863729082705894  1.0000
  H   H14       1.0  0.7119502904941373  0.28718188928473853  0.6586389999725736  1.0000
  H   H15       1.0  0.21193648018250852  0.21281277066712076  0.3413656953762113  1.0000
  H   H16       1.0  0.28805628466386674  0.7871865366972628  0.8413644916842311  1.0000
  H   H17       1.0  0.8127829675691062  0.485206338355546  0.10883635370186785  1.0000
  H   H18       1.0  0.6872202342469222  0.5147899863554457  0.6088370742413713  1.0000
  H   H19       1.0  0.18721119011767942  0.9851995101468344  0.3911620562791355  1.0000
  H   H20       1.0  0.3127846681564961  0.014794299442144198  0.8911614615952241  1.0000
  H   H21       1.0  0.7941843010029502  0.238794401041531  0.12612078150466025  1.0000
  H   H22       1.0  0.7058204438831767  0.7612060491251426  0.626123212686579  1.0000
  H   H23       1.0  0.20581740583961758  0.7387874200445949  0.3738748594967303  1.0000
  H   H24       1.0  0.2941830485339665  0.2612092078461217  0.8738786216963272  1.0000
  H   H25       1.0  0.7610542544578821  0.0490874361838181  0.2077931091369293  1.0000
  H   H26       1.0  0.7389459251624261  0.9509147505868684  0.7077965722515669  1.0000
  H   H27       1.0  0.23895349546983619  0.5490856708985133  0.2921993830868173  1.0000
  H   H28       1.0  0.2610453850032002  0.45091715609201094  0.7922052335749252  1.0000
  H   H29       1.0  0.7224266547266042  0.09388814275754953  0.3397106820614438  1.0000
  H   H30       1.0  0.7775674488947503  0.9061122708507054  0.8397129693482125  1.0000
  H   H31       1.0  0.2775657699742737  0.5938901445596443  0.16028404671087765  1.0000
  H   H32       1.0  0.2224284429536283  0.40610949577713734  0.6602887181525429  1.0000
  C   C1        1.0  0.6970045249807271  0.6708390536314752  0.411793737658712  1.0000
  C   C2        1.0  0.8029911479500527  0.32916300914362745  0.9117950318892977  1.0000
  C   C3        1.0  0.3029971474477477  0.17084060204747686  0.08820966725149047  1.0000
  C   C4        1.0  0.19700470492507094  0.8291603650593589  0.5882069819535116  1.0000
  C   C5        1.0  0.7120409004445136  0.7859692861920777  0.3700954811367153  1.0000
  C   C6        1.0  0.7879578221029888  0.2140333883742399  0.870097529810955  1.0000
  C   C7        1.0  0.2879577607104977  0.2859682349946979  0.12990663914553113  1.0000
  C   C8        1.0  0.21203797245977538  0.714026168521542  0.629903650422271  1.0000
  C   C9        1.0  0.7368308387096718  0.7730039789578524  0.2978453005458163  1.0000
  C   C10       1.0  0.7631647796566198  0.22699803688060877  0.797847911987432  1.0000
  C   C11       1.0  0.263158607127508  0.2730035800782957  0.20215731505438575  1.0000
  C   C12       1.0  0.2368371606410449  0.726994458062478  0.7021533024891153  1.0000
  C   C13       1.0  0.7478183743348977  0.6456008299955514  0.26711385745791455  1.0000
  C   C14       1.0  0.7521802988990558  0.35439991369069895  0.7671168049010644  1.0000
  C   C15       1.0  0.25216333301467125  0.14559872452557704  0.2328873625657478  1.0000
  C   C16       1.0  0.24783398426117736  0.8543976098733382  0.7328858051481927  1.0000
  C   C17       1.0  0.7766586261740188  0.6256907675090487  0.19275761799768523  1.0000
  C   C18       1.0  0.7233430810378464  0.374309298248562  0.6927611463805757  1.0000
  C   C19       1.0  0.22333074505002773  0.12568635660850452  0.3072419607703479  1.0000
  C   C20       1.0  0.2766681426222419  0.8743076798129223  0.8072404571334669  1.0000
  C   C21       1.0  0.7886744737317245  0.500536418058438  0.16531208157284985  1.0000
  C   C22       1.0  0.7113241507537822  0.4994643894274162  0.6653143513060582  1.0000
  C   C23       1.0  0.2113132993110511  0.0005302703387001999  0.334685048442786  1.0000
  C   C24       1.0  0.28868406671121954  0.9994650082619218  0.8346849349462954  1.0000
  C   C25       1.0  0.769980690148529  0.38662433087950626  0.20985618109961718  1.0000
  C   C26       1.0  0.7300133512912339  0.6133758907638766  0.7098582228814079  1.0000
  C   C27       1.0  0.2300026740653109  0.8866215525208289  0.29013932075401516  1.0000
  C   C28       1.0  0.2699946706269927  0.11337530388173887  0.7901416324193701  1.0000
  C   C29       1.0  0.7752495912106738  0.25605782182136483  0.18278132756882562  1.0000
  C   C30       1.0  0.724749041639761  0.7439431449309737  0.682782125274201  1.0000
  C   C31       1.0  0.2247413808338052  0.756056280921996  0.3172154181453377  1.0000
  C   C32       1.0  0.2752605812003921  0.2439418143146526  0.8172191339558521  1.0000
  C   C33       1.0  0.7572203747744267  0.14989100210327413  0.2285397124567864  1.0000
  C   C34       1.0  0.7427798147798443  0.8501093898880112  0.7285423799584121  1.0000
  C   C35       1.0  0.24277361308305248  0.6498930165292832  0.27145622332848507  1.0000
  C   C36       1.0  0.2572252574563977  0.35010962132777473  0.7714596892057413  1.0000
  C   C37       1.0  0.7358530255283  0.17441766327105063  0.3013888378053052  1.0000
  C   C38       1.0  0.7641456641171375  0.8255784330861148  0.801391441415809  1.0000
  C   C39       1.0  0.2641363703761073  0.6744219949236196  0.19860610364065673  1.0000
  C   C40       1.0  0.2358578609019162  0.325577002835594  0.6986089742900387  1.0000
  C   C41       1.0  0.7441348162617841  0.4025010639014963  0.2840763190441605  1.0000
  C   C42       1.0  0.7558577259270507  0.597498842474664  0.7840799086418568  1.0000
  C   C43       1.0  0.25584702120251995  0.9024995994827092  0.21592240208448024  1.0000
  C   C44       1.0  0.24415182274373848  0.09750253204531133  0.7159241411940653  1.0000
  C   C45       1.0  0.7326653568662708  0.5347539226556819  0.31338643646198233  1.0000
  C   C46       1.0  0.7673287341501266  0.4652482348769809  0.8133891477145165  1.0000
  C   C47       1.0  0.267314759549329  0.0347523911811862  0.18661343171169875  1.0000
  C   C48       1.0  0.2326871399445736  0.9652464972212159  0.6866126959603489  1.0000
  S   S1        1.0  0.004646035907938999  0.37237313248959236  0.5283933959260734  1.0000
  S   S2        1.0  0.49535271824157684  0.6276352250074666  0.02839888422282399  1.0000
  S   S3        1.0  0.9953590476026831  0.8723682387494943  0.9716066137980871  1.0000
  S   S4        1.0  0.50465046709472  0.1276313934370705  0.4716012292387928  1.0000
  S   S5        1.0  0.2252785227131682  0.47525154280177156  0.466838313634234  1.0000
  S   S6        1.0  0.2747250457616488  0.5247459326919568  0.9668470074588738  1.0000
  S   S7        1.0  0.774735582228942  0.9752554900607892  0.03315901095696459  1.0000
  S   S8        1.0  0.7252767921004235  0.024747088406165598  0.5331547320105796  1.0000
  N   N1        1.0  0.7066138197798323  0.549573205532205  0.38419569378704904  1.0000
  N   N2        1.0  0.793381839936373  0.4504305895603977  0.8841988965444895  1.0000
  N   N3        1.0  0.29338165206123534  0.04957301914392791  0.11580580219721526  1.0000
  N   N4        1.0  0.20662174831818447  0.9504272076080652  0.6158044966681968  1.0000
  N   N5        1.0  0.7293823801724956  0.29651675822350393  0.3280966968515456  1.0000
  N   N6        1.0  0.7706086483039839  0.7034835495028275  0.8281005669564647  1.0000
  N   N7        1.0  0.27059940361319684  0.7965198560832291  0.1718990966018693  1.0000
  N   N8        1.0  0.22939481487615151  0.20348088210238302  0.6719005854218376  1.0000
  O   O1        1.0  0.2442669347403026  0.4082747546711404  0.39809743849883  1.0000
  O   O2        1.0  0.2557273920656725  0.591721102120438  0.8981057788545779  1.0000
  O   O3        1.0  0.7557409971144509  0.9082872594817888  0.10190235701136166  1.0000
  O   O4        1.0  0.7442744797178947  0.0917218975206211  0.6018956079319151  1.0000
  O   O5        1.0  0.1503377372757129  0.6113967150056041  0.4635605315403593  1.0000
  O   O6        1.0  0.34966429483878164  0.3886027145458756  0.9635720462771357  1.0000
  O   O7        1.0  0.8496792529628437  0.11139793282627862  0.03643265479766459  1.0000
  O   O8        1.0  0.6503361925183598  0.8886036835359337  0.5364311836598216  1.0000
  O   O9        1.0  0.41486216495901823  0.4615249565050519  0.5105548515571028  1.0000
  O   O10       1.0  0.0851457893995118  0.5384772865866482  0.010565382947611097  1.0000
  O   O11       1.0  0.585146033290343  0.9615270630240502  0.9894427458306576  1.0000
  O   O12       1.0  0.9148573507806007  0.03847471570389159  0.4894360837304175  1.0000
