data_image0
_chemical_formula_structural       K2Ca2Er2H12C32N4O26
_chemical_formula_sum              "K2 Ca2 Er2 H12 C32 N4 O26"
_cell_length_a       7.847235655897255
_cell_length_b       10.99105685012088
_cell_length_c       11.85083884014971
_cell_angle_alpha    75.74980761205882
_cell_angle_beta     72.23604952367569
_cell_angle_gamma    76.19597336367174

_space_group_name_H-M_alt    "P 1"
_space_group_IT_number       1

loop_
  _space_group_symop_operation_xyz
  'x, y, z'

loop_
  _atom_site_type_symbol
  _atom_site_label
  _atom_site_symmetry_multiplicity
  _atom_site_fract_x
  _atom_site_fract_y
  _atom_site_fract_z
  _atom_site_occupancy
  K   K1        1.0  0.7820183869238092  0.09271221077201373  0.39577719660529453  1.0000
  K   K2        1.0  0.21797440271137683  0.9072766778007592  0.6042428193569265  1.0000
  Ca  Ca1       1.0  0.5495865665568118  0.4220158228151263  0.15955987307162903  1.0000
  Ca  Ca2       1.0  0.45043813957658313  0.5779895754665463  0.840432383876511  1.0000
  Er  Er1       1.0  0.6780768799657935  0.745390692249906  0.2844935925142735  1.0000
  Er  Er2       1.0  0.3219263272553974  0.25460979893192365  0.7155099615433897  1.0000
  H   H1        1.0  0.8792107511845016  0.27919475955479817  0.07282705654484538  1.0000
  H   H2        1.0  0.1207942443849176  0.7208143688481956  0.9271700135661052  1.0000
  H   H3        1.0  0.6647029870355677  0.8326983247409319  0.8086549601315057  1.0000
  H   H4        1.0  0.33531657568105533  0.16729083269920153  0.19134106806690457  1.0000
  H   H5        1.0  0.795552336025878  0.14697783245561172  0.909021980578494  1.0000
  H   H6        1.0  0.20441039205015699  0.8530293067416537  0.09097555783901606  1.0000
  H   H7        1.0  0.33227162746984357  0.5474896020029689  0.3933240954314457  1.0000
  H   H8        1.0  0.6677346676831631  0.45250429496420713  0.6066718569462639  1.0000
  H   H9        1.0  0.9170665717857814  0.6863479497651357  0.6907531409088182  1.0000
  H   H10       1.0  0.08294906668083257  0.3136459125494896  0.3092485419731332  1.0000
  H   H11       1.0  0.914397802182691  0.3898917546305329  0.9633601089248105  1.0000
  H   H12       1.0  0.08561988551423379  0.6101098528310445  0.03662848382300874  1.0000
  C   C1        1.0  0.620910329639791  0.6837334961768847  0.04062946937994381  1.0000
  C   C2        1.0  0.3790967904030111  0.3162622361608244  0.9593743511649038  1.0000
  C   C3        1.0  0.6808356034266719  0.8107863866018266  0.9915864665604843  1.0000
  C   C4        1.0  0.3191654322507631  0.1892122179873539  0.008414563537741107  1.0000
  C   C5        1.0  0.6930547052751874  0.8756878227784103  0.8733443894566264  1.0000
  C   C6        1.0  0.30694549081880496  0.12430887705070152  0.1266563854082534  1.0000
  C   C7        1.0  0.7354219696992458  0.9986296742123031  0.8412566149421039  1.0000
  C   C8        1.0  0.2645742288812372  0.0013670724091170003  0.1587381996260433  1.0000
  C   C9        1.0  0.765978414001566  0.05080206942974291  0.928649212475051  1.0000
  C   C10       1.0  0.23399198801693893  0.9492012718545199  0.0713484706908147  1.0000
  C   C11       1.0  0.7572038213220437  0.9769157322783859  0.04376378372778334  1.0000
  C   C12       1.0  0.24277944547302607  0.02308952758799171  0.9562351179309944  1.0000
  C   C13       1.0  0.78443749745869  0.020786341668447502  0.14766913518747055  1.0000
  C   C14       1.0  0.21554327806484946  0.9792283940562928  0.8523349248751799  1.0000
  C   C15       1.0  0.7397283452657532  0.0725679792232725  0.7149020313997596  1.0000
  C   C16       1.0  0.2602770190813856  0.9274192700922227  0.2850913554611696  1.0000
  C   C17       1.0  0.10703171708793491  0.6079904502344036  0.23946874100838758  1.0000
  C   C18       1.0  0.8929638325170614  0.3920139159599075  0.7605262094856116  1.0000
  C   C19       1.0  0.068572833777786  0.6360047711235522  0.36355472434696884  1.0000
  C   C20       1.0  0.9314172592131627  0.3639947475200175  0.6364482962344696  1.0000
  C   C21       1.0  0.19509890415238118  0.5946506951520049  0.4311442173271729  1.0000
  C   C22       1.0  0.8049039721884909  0.4053460454417532  0.5688526361745616  1.0000
  C   C23       1.0  0.1425534057573257  0.6141250896661746  0.549753601819596  1.0000
  C   C24       1.0  0.8574509002967615  0.3858764064915619  0.4502444471655381  1.0000
  C   C25       1.0  0.9647358439847051  0.6733613459242066  0.5972270205943462  1.0000
  C   C26       1.0  0.03526920553253628  0.3266372889721438  0.40277151098529634  1.0000
  C   C27       1.0  0.8454434226755437  0.7096540120073558  0.5234331389527825  1.0000
  C   C28       1.0  0.1545525068597157  0.29034358813853345  0.476572511210435  1.0000
  C   C29       1.0  0.645066072448877  0.7600754533464736  0.5672459051410074  1.0000
  C   C30       1.0  0.3549500388030324  0.2399163935212912  0.4327679418120596  1.0000
  C   C31       1.0  0.27622473557197214  0.5633773017228166  0.6246244448055834  1.0000
  C   C32       1.0  0.7237878476153908  0.4366233090054195  0.3753679221256905  1.0000
  N   N1        1.0  0.7151359655361629  0.8598118330403042  0.07377477633805549  1.0000
  N   N2        1.0  0.28485897761277806  0.1401896052506046  0.9262276927212129  1.0000
  N   N3        1.0  0.898278913148097  0.6935277158960602  0.40842566923417684  1.0000
  N   N4        1.0  0.10171696407196856  0.30648038546642914  0.5915776735788043  1.0000
  O   O1        1.0  0.6255208673703905  0.6333941638506317  0.14935255092900232  1.0000
  O   O2        1.0  0.37447580399538777  0.3666005673239283  0.8506544277102607  1.0000
  O   O3        1.0  0.5667204668629682  0.6326123871006075  0.9766735110468618  1.0000
  O   O4        1.0  0.43329273917782263  0.3673804806955801  0.023332254063063752  1.0000
  O   O5        1.0  0.7642625967649507  0.9396742675780771  0.24790285818485824  1.0000
  O   O6        1.0  0.23573444303160326  0.06032439151335472  0.7520913657351047  1.0000
  O   O7        1.0  0.8218254268117703  0.12879698734784742  0.1336521120130315  1.0000
  O   O8        1.0  0.17812313527149118  0.8712234569931852  0.8663461715263239  1.0000
  O   O9        1.0  0.6119872651073452  0.1692301424730331  0.7075289665349375  1.0000
  O   O10       1.0  0.3880100780907156  0.8307570770679077  0.29246603383703024  1.0000
  O   O11       1.0  0.862147543406138  0.0343709877460725  0.6285898618006557  1.0000
  O   O12       1.0  0.13784252537124778  0.9656133561788212  0.37140554291380584  1.0000
  O   O13       1.0  0.9756644100622436  0.6485980045821834  0.18855136897330743  1.0000
  O   O14       1.0  0.024318211022602985  0.35141489027697054  0.8114459768482619  1.0000
  O   O15       1.0  0.2584034204333321  0.5447143016574644  0.19591728641614028  1.0000
  O   O16       1.0  0.7415911588357672  0.4553090388507997  0.8040863282485519  1.0000
  O   O17       1.0  0.5602645813099727  0.8016449548472834  0.4848272908598546  1.0000
  O   O18       1.0  0.4397471786913058  0.1983430802854471  0.5151857375819945  1.0000
  O   O19       1.0  0.5763430023420282  0.7548933863688064  0.6793971990437698  1.0000
  O   O20       1.0  0.4236656272080096  0.24511179045486398  0.32061604843860886  1.0000
  O   O21       1.0  0.366297933744498  0.45136708153784627  0.6145189152996976  1.0000
  O   O22       1.0  0.6337119691959926  0.5486334884257432  0.38547737299471413  1.0000
  O   O23       1.0  0.29094870825792185  0.6330670680768266  0.6893987261342506  1.0000
  O   O24       1.0  0.7090807666068315  0.3669355532202729  0.3105855937191109  1.0000
  O   O25       1.0  0.8602369273410346  0.37309635214886333  0.051441643715030204  1.0000
  O   O26       1.0  0.1397634838503591  0.6269099876624153  0.9485468340860805  1.0000
