data_image0
_chemical_formula_structural       Na4P4H68C32S4N4Cl4O4
_chemical_formula_sum              "Na4 P4 H68 C32 S4 N4 Cl4 O4"
_cell_length_a       9.789995423
_cell_length_b       11.202923258558533
_cell_length_c       12.0474
_cell_angle_alpha    100.73288168314242
_cell_angle_beta     90.0
_cell_angle_gamma    90.0

_space_group_name_H-M_alt    "P 1"
_space_group_IT_number       1

loop_
  _space_group_symop_operation_xyz
  'x, y, z'

loop_
  _atom_site_type_symbol
  _atom_site_label
  _atom_site_symmetry_multiplicity
  _atom_site_fract_x
  _atom_site_fract_y
  _atom_site_fract_z
  _atom_site_occupancy
  Na  Na1       1.0  0.7597766575585041  0.3472745302548431  0.1422844664913967  1.0000
  Na  Na2       1.0  0.2069071447409598  0.1723421731496018  0.8667763962961742  1.0000
  Na  Na3       1.0  0.2931298612518276  0.6724093927387071  0.8666239353482864  1.0000
  Na  Na4       1.0  0.7403936045742086  0.8478278068121269  0.14175881907092955  1.0000
  P   P1        1.0  0.5695150772901414  0.6074312984940633  0.03654977100967471  1.0000
  P   P2        1.0  0.0622921639541616  0.909792347854079  0.9628744318217243  1.0000
  P   P3        1.0  0.4378051076439178  0.409827790764794  0.9628570791536077  1.0000
  P   P4        1.0  0.9306459917841394  0.10741495589601158  0.03659649511718038  1.0000
  H   H1        1.0  0.5288991236742859  0.5082093551943245  0.2675515373595232  1.0000
  H   H2        1.0  0.0091542432991787  0.9904460064518119  0.70548444102932  1.0000
  H   H3        1.0  0.4908674409295486  0.49052233265891937  0.7054276853268673  1.0000
  H   H4        1.0  0.9713814551596442  0.008099435273429397  0.2677073943254342  1.0000
  H   H5        1.0  0.43121470619711033  0.3742793102960603  0.21843457147041787  1.0000
  H   H6        1.0  0.912836994694068  0.12225014137889188  0.7639643116740941  1.0000
  H   H7        1.0  0.5872168220318059  0.6222982820963522  0.7639064931597659  1.0000
  H   H8        1.0  0.0690470190018573  0.874223879996002  0.21844763273872297  1.0000
  H   H9        1.0  0.3731217270457776  0.48294983765004657  0.3358791774976381  1.0000
  H   H10       1.0  0.8421617828983159  0.010849518343839298  0.6535439706665542  1.0000
  H   H11       1.0  0.6578399398297634  0.5109267316276203  0.653457154596822  1.0000
  H   H12       1.0  0.12723397163942  0.9828589751597858  0.3358786322533688  1.0000
  H   H13       1.0  0.2799909378466339  0.6853366910567829  0.30679364487821187  1.0000
  H   H14       1.0  0.7726959690122044  0.8064657215969289  0.6939422948583454  1.0000
  H   H15       1.0  0.7272924748536909  0.3064266660564456  0.6939186812496345  1.0000
  H   H16       1.0  0.22026159429390188  0.18532216549412786  0.3067800896663754  1.0000
  H   H17       1.0  0.2756977795575821  0.722773979818676  0.16959278734159963  1.0000
  H   H18       1.0  0.7848011840689466  0.773766352627625  0.8323446436087635  1.0000
  H   H19       1.0  0.7151555948178938  0.2738263255161755  0.8323556105391106  1.0000
  H   H20       1.0  0.2244137923536158  0.22275036907904414  0.16954611671557265  1.0000
  H   H21       1.0  0.4351135844243998  0.7170366905588066  0.23989510520666354  1.0000
  H   H22       1.0  0.93561943639736  0.7809336487433993  0.7507380991457282  1.0000
  H   H23       1.0  0.5643261065291725  0.2809563724063437  0.7506977924379541  1.0000
  H   H24       1.0  0.0650623388958422  0.21701853092536538  0.2399805272134543  1.0000
  H   H25       1.0  0.1456711610558656  0.4914980806660551  0.2325784173052838  1.0000
  H   H26       1.0  0.6353067321551507  0.9964649361979168  0.7761492690935867  1.0000
  H   H27       1.0  0.8647858997063409  0.49632594371070127  0.7761232897420314  1.0000
  H   H28       1.0  0.3545926070449781  0.9914898932862712  0.2324660211415193  1.0000
  H   H29       1.0  0.2034270613979245  0.390822509050281  0.11024147633654019  1.0000
  H   H30       1.0  0.7044957328372803  0.1049873966082302  0.8886305705144719  1.0000
  H   H31       1.0  0.7956306069051351  0.6049474111090305  0.888545869849878  1.0000
  H   H32       1.0  0.2967059609829619  0.8908079620466083  0.11012963894490466  1.0000
  H   H33       1.0  0.139953078709425  0.5371574545905418  0.10084628746501778  1.0000
  H   H34       1.0  0.6530636352474204  0.9605221590484516  0.913808153958442  1.0000
  H   H35       1.0  0.8468625001113068  0.4604413116938844  0.9137872636470162  1.0000
  H   H36       1.0  0.3601012919492987  0.0371810867711915  0.10071732224704281  1.0000
  H   H37       1.0  0.620963518094996  0.2301447946191999  0.35234383093270333  1.0000
  H   H38       1.0  0.1178100652928151  0.2747575561561391  0.6459562920717303  1.0000
  H   H39       1.0  0.3822259192490307  0.7747230217631225  0.6459281490697534  1.0000
  H   H40       1.0  0.8788768153850056  0.7302519889869998  0.3521011762849469  1.0000
  H   H41       1.0  0.6241330803531255  0.3487236159823937  0.47770482816525117  1.0000
  H   H42       1.0  0.1219316198244158  0.14951475748159737  0.5292541565746589  1.0000
  H   H43       1.0  0.3780583994252567  0.6494902167832564  0.5292493256653329  1.0000
  H   H44       1.0  0.8755233919581754  0.8490606653276627  0.4773542292652663  1.0000
  H   H45       1.0  0.8466868105501034  0.1643354066813174  0.3858772209505617  1.0000
  H   H46       1.0  0.3499684986522809  0.3341228280654746  0.6085636023861197  1.0000
  H   H47       1.0  0.1500766789480039  0.8341655176767515  0.6085986360403481  1.0000
  H   H48       1.0  0.6531739519486379  0.664402626270423  0.3855869709361599  1.0000
  H   H49       1.0  0.7916826990328616  0.2029310555075483  0.5288220144855202  1.0000
  H   H50       1.0  0.2902851203917294  0.28804371896473663  0.467414803195112  1.0000
  H   H51       1.0  0.209736563837005  0.7880500678681059  0.46739872054509846  1.0000
  H   H52       1.0  0.7080881757834092  0.7031863382600463  0.528540260998781  1.0000
  H   H53       1.0  0.9240096250451515  0.3853268854979531  0.5608826385538278  1.0000
  H   H54       1.0  0.4067049909590139  0.09727953246243  0.445711673709198  1.0000
  H   H55       1.0  0.0933228219753346  0.5972931495073865  0.4457856655742418  1.0000
  H   H56       1.0  0.5757316276939406  0.8855694490026877  0.5603919987931008  1.0000
  H   H57       1.0  0.0168049108188058  0.3151202719040569  0.43992675734187253  1.0000
  H   H58       1.0  0.515584510707896  0.1788716898417064  0.5500792417601019  1.0000
  H   H59       1.0  0.9844560271557937  0.6788953005813312  0.5500503774159284  1.0000
  H   H60       1.0  0.4828756087969026  0.8150730182632768  0.43957103025558547  1.0000
  H   H61       1.0  0.8145519640658136  0.5185255736497111  0.4626835156108625  1.0000
  H   H62       1.0  0.32939545532615  0.9793339264933962  0.5740026755586456  1.0000
  H   H63       1.0  0.1704719898110625  0.47934574794397367  0.5741306420410197  1.0000
  H   H64       1.0  0.6847521076721534  0.0187063793920288  0.46180234786687896  1.0000
  H   H65       1.0  0.9224202473868744  0.4693048103509269  0.3440321420190458  1.0000
  H   H66       1.0  0.4316355439832336  0.0637906616139787  0.6842279758190557  1.0000
  H   H67       1.0  0.0683136172289522  0.5639614522206102  0.684355748191777  1.0000
  H   H68       1.0  0.5770002697579386  0.9689114114673953  0.3432230248386502  1.0000
  C   C1        1.0  0.3443413254392524  0.5391180357818044  0.17434184762857538  1.0000
  C   C2        1.0  0.8434059101398218  0.9577984229912743  0.8183607876094141  1.0000
  C   C3        1.0  0.6565896838826362  0.4578211466542186  0.8182690175153553  1.0000
  C   C4        1.0  0.155863198507241  0.039090790971386  0.17434850121720297  1.0000
  C   C5        1.0  0.4247009135705894  0.47195586499230296  0.2534027086330609  1.0000
  C   C6        1.0  0.9061679415250907  0.0244809178774972  0.7298740952796196  1.0000
  C   C7        1.0  0.593846038614231  0.5245399608073241  0.7297965833516997  1.0000
  C   C8        1.0  0.0755802191961834  0.9718958921037596  0.253441544979772  1.0000
  C   C9        1.0  0.3337396861620547  0.6746325355445463  0.22549623979883648  1.0000
  C   C10       1.0  0.8343272542099954  0.8213009070798023  0.7714819327211015  1.0000
  C   C11       1.0  0.6656376962843424  0.3213109114949829  0.7714377632298834  1.0000
  C   C12       1.0  0.1664352157072528  0.17461346739341368  0.22550347933770346  1.0000
  C   C13       1.0  0.2009071419358506  0.4863131701662837  0.1525348051081821  1.0000
  C   C14       1.0  0.7004814306540865  0.007850501424307798  0.8517371968420235  1.0000
  C   C15       1.0  0.7995437854455503  0.5077977966773446  0.8516760251963618  1.0000
  C   C16       1.0  0.2992800173446994  0.9862840868794578  0.1524652733239407  1.0000
  C   C17       1.0  0.6851617094979687  0.29588604372976585  0.40801125106417396  1.0000
  C   C18       1.0  0.1839694424952114  0.2061444826036904  0.5957280901947826  1.0000
  C   C19       1.0  0.3160430486750769  0.7060999545160058  0.5957446995787947  1.0000
  C   C20       1.0  0.8145999722598631  0.7960604684071766  0.40766403147650715  1.0000
  C   C21       1.0  0.811295578478024  0.2393217318818941  0.4517392260230579  1.0000
  C   C22       1.0  0.3102371215480417  0.25710051470474576  0.5471193359929883  1.0000
  C   C23       1.0  0.1897794554260059  0.7571132232320037  0.5471417071378681  1.0000
  C   C24       1.0  0.6884538458685654  0.739487071382335  0.45141533473519496  1.0000
  C   C25       1.0  0.9147797943766207  0.3452076524929736  0.4707667796200851  1.0000
  C   C26       1.0  0.40993175446962477  0.1490168897833541  0.5324947965199271  1.0000
  C   C27       1.0  0.0900684792894211  0.6490541282884479  0.5325197555701279  1.0000
  C   C28       1.0  0.5849011927571794  0.8452648783874039  0.4703038076818657  1.0000
  C   C29       1.0  0.8537062213905386  0.4379645838571236  0.40459575496624467  1.0000
  C   C30       1.0  0.3580716689370789  0.0713686077290347  0.616976126125877  1.0000
  C   C31       1.0  0.1418580847073017  0.5714403699066324  0.6170361157748373  1.0000
  C   C32       1.0  0.6458338055139237  0.937885532096935  0.4038958589104453  1.0000
  S   S1        1.0  0.5256263948715016  0.7599832306384826  0.9759361168090237  1.0000
  S   S2        1.0  0.05240656178394689  0.7439088270161847  0.9890114321292032  1.0000
  S   S3        1.0  0.4476876454613219  0.24397879359940325  0.9890423909337329  1.0000
  S   S4        1.0  0.9743804351112643  0.2599587113811594  0.9759316216346292  1.0000
  N   N1        1.0  0.41476321740258015  0.5288881265076739  0.06364635103211204  1.0000
  N   N2        1.0  0.9283957353694844  0.9781410427565476  0.9218736896898959  1.0000
  N   N3        1.0  0.5716386737885841  0.4781919304681139  0.9217967576012923  1.0000
  N   N4        1.0  0.0853667406254957  0.0288445283787055  0.06367756441341749  1.0000
  Cl  Cl1       1.0  0.8591495334348737  0.5806727267488724  0.17046438296288355  1.0000
  Cl  Cl2       1.0  0.2335986791809148  0.9186258654271098  0.8403492062447597  1.0000
  Cl  Cl3       1.0  0.2666191236277555  0.4185413840017489  0.8403268565432214  1.0000
  Cl  Cl4       1.0  0.641369043467428  0.0814576967600402  0.1700655170950256  1.0000
  O   O1        1.0  0.7410391615665191  0.3773882578569853  0.3403194825822808  1.0000
  O   O2        1.0  0.23825649545454297  0.1320557728882719  0.6711366263614451  1.0000
  O   O3        1.0  0.2617988966551152  0.6320966454641521  0.6711331628355166  1.0000
  O   O4        1.0  0.7586459113710262  0.8773373701454188  0.3398029256193027  1.0000
