data_image0
_chemical_formula_structural       Zn2H8C8N16
_chemical_formula_sum              "Zn2 H8 C8 N16"
_cell_length_a       7.469849969452345
_cell_length_b       8.206826517719191
_cell_length_c       8.207107376209274
_cell_angle_alpha    94.6607772610269
_cell_angle_beta     115.86272371394122
_cell_angle_gamma    115.86246917355408

_space_group_name_H-M_alt    "P 1"
_space_group_IT_number       1

loop_
  _space_group_symop_operation_xyz
  'x, y, z'

loop_
  _atom_site_type_symbol
  _atom_site_label
  _atom_site_symmetry_multiplicity
  _atom_site_fract_x
  _atom_site_fract_y
  _atom_site_fract_z
  _atom_site_occupancy
  Zn  Zn1       1.0  0.500001373544798  0.5000008064877051  1.4172888782618436e-06  1.0000
  Zn  Zn2       1.0  0.5000026309662361  1.8493851427995575e-06  0.5000019910223872  1.0000
  H   H1        1.0  0.9210542131697752  0.5834976314559273  0.9409838339214791  1.0000
  H   H2        1.0  0.0789616741595296  0.059036398842224  0.4165129228905401  1.0000
  H   H3        1.0  0.07894625008951553  0.41650268589886263  0.05901662058987263  1.0000
  H   H4        1.0  0.9210373044963943  0.9409639233603783  0.5834869384963  1.0000
  H   H5        1.0  0.10661432799761171  0.7715756157961025  0.7715886653206496  1.0000
  H   H6        1.0  0.8933837359316001  0.22842326932205745  0.2284082791007408  1.0000
  H   H7        1.0  0.431209085196997  0.7457397864043003  0.7457342453469096  1.0000
  H   H8        1.0  0.5687889685868158  0.25425909845247935  0.2542651319236882  1.0000
  C   C1        1.0  0.8552606477863095  0.6634700132493307  0.860136182543535  1.0000
  C   C2        1.0  0.14474028828310992  0.1398759745387892  0.3365271983100087  1.0000
  C   C3        1.0  0.14473684119353442  0.3365303136704014  0.13986430214339413  1.0000
  C   C4        1.0  0.8552629495925217  0.8601286548534689  0.6634747085500836  1.0000
  C   C5        1.0  0.9558646574186441  0.7659864467269698  0.765994134567592  1.0000
  C   C6        1.0  0.04413580076794692  0.23401387049712954  0.23400753636835966  1.0000
  C   C7        1.0  0.5821518053102183  0.7513002277808811  0.7513067010267209  1.0000
  C   C8        1.0  0.41784567859693317  0.24870009900815399  0.24869500008481546  1.0000
  N   N1        1.0  0.6685785244430493  0.6568536678469672  0.8533464406849521  1.0000
  N   N2        1.0  0.33142599094779973  0.1466608535931186  0.3431453569653798  1.0000
  N   N3        1.0  0.3314195344134633  0.34314521714050983  0.14665172016103883  1.0000
  N   N4        1.0  0.6685726276399676  0.8533365892007153  0.6568529128888728  1.0000
  N   N5        1.0  0.8178591671797053  0.6648748062255336  0.2790406459899445  1.0000
  N   N6        1.0  0.18215764657963274  0.7209518787859965  0.3351092712045657  1.0000
  N   N7        1.0  0.18214223109710315  0.3351269487364591  0.7209578597884488  1.0000
  N   N8        1.0  0.8178457960318043  0.2790484291345479  0.6648899367065939  1.0000
  N   N9        1.0  5.19546790667574e-06  0.6932263243977773  0.30675959132751984  1.0000
  N   N10       1.0  0.999993788260717  0.3067739979355153  0.6932390536347203  1.0000
  N   N11       1.0  0.6091996986971895  0.30091638652293556  0.974007216606765  1.0000
  N   N12       1.0  0.3907682649098022  0.025976613696293803  0.699054452569385  1.0000
  N   N13       1.0  0.3908031689648795  0.699085363199174  0.025995531569940115  1.0000
  N   N14       1.0  0.6092364575692033  0.9740280108481585  0.3009480474152114  1.0000
  N   N15       1.0  0.49998154851804344  0.1649353208063573  0.8350381326881549  1.0000
  N   N16       1.0  0.5000180000145421  0.8350635594639898  0.16495940485774704  1.0000
