data_image0
_chemical_formula_structural       Zn8H18C54O32F18
_chemical_formula_sum              "Zn8 H18 C54 O32 F18"
_cell_length_a       18.301873529867926
_cell_length_b       18.373723433279725
_cell_length_c       18.454908934686213
_cell_angle_alpha    90.06429438776486
_cell_angle_beta     120.11346666414724
_cell_angle_gamma    119.38566875197803

_space_group_name_H-M_alt    "P 1"
_space_group_IT_number       1

loop_
  _space_group_symop_operation_xyz
  'x, y, z'

loop_
  _atom_site_type_symbol
  _atom_site_label
  _atom_site_symmetry_multiplicity
  _atom_site_fract_x
  _atom_site_fract_y
  _atom_site_fract_z
  _atom_site_occupancy
  Zn  Zn1       1.0  0.889067000025655  0.8527317881099565  0.9314619464521956  1.0000
  Zn  Zn2       1.0  0.06279817261083312  0.02379683237515451  0.9309781810689444  1.0000
  Zn  Zn3       1.0  0.0623787875801014  0.0242755264698644  0.1042738473665352  1.0000
  Zn  Zn4       1.0  0.8878569919510185  0.02669797627594761  0.930676304818839  1.0000
  Zn  Zn5       1.0  0.06110461869714364  0.6125451392890825  0.5167276714219824  1.0000
  Zn  Zn6       1.0  0.886040499415323  0.4342078130785083  0.5154390497088884  1.0000
  Zn  Zn7       1.0  0.0634950780840598  0.4380921293844935  0.5157742892577346  1.0000
  Zn  Zn8       1.0  0.8892809507595416  0.43951627332855747  0.3459421930280158  1.0000
  H   H1        1.0  0.09286358384508735  0.8910893565464022  0.7731619422870184  1.0000
  H   H2        1.0  0.0863477904107413  0.7910133847885844  0.674224330047295  1.0000
  H   H3        1.0  0.8504865468698455  0.6631965770023455  0.7673781757773244  1.0000
  H   H4        1.0  0.09870544554899421  0.8935736177792181  0.2924062305149989  1.0000
  H   H5        1.0  0.09507977133488786  0.7943098970733758  0.38569377191682014  1.0000
  H   H6        1.0  0.8455575576684281  0.6653799866695778  0.05856385797217466  1.0000
  H   H7        1.0  0.564798615661509  0.8958669851292029  0.7774192690285633  1.0000
  H   H8        1.0  0.3726821151414371  0.7952463009101722  0.6806971423130508  1.0000
  H   H9        1.0  0.5778271053092398  0.6692652512757606  0.760920691959541  1.0000
  H   H10       1.0  0.3804234563990506  0.18679326737538557  0.2926925947999096  1.0000
  H   H11       1.0  0.57276098127506  0.28240844632062323  0.3864206398553024  1.0000
  H   H12       1.0  0.3784246010711031  0.16847948655641432  0.05915790294807271  1.0000
  H   H13       1.0  0.8618004580021436  0.1896029330620124  0.7721139725934666  1.0000
  H   H14       1.0  0.8653975911861879  0.28446831221972263  0.6748186387648902  1.0000
  H   H15       1.0  0.09629204848896929  0.18323095686429264  0.777327221752792  1.0000
  H   H16       1.0  0.08721590695000711  0.1781687437621358  0.294143339600879  1.0000
  H   H17       1.0  0.08727053571132615  0.2774799527418068  0.3876903394529095  1.0000
  H   H18       1.0  0.8730030497877976  0.1971627638262987  0.06001037547390816  1.0000
  C   C1        1.0  0.9750676351233737  0.8420164019514758  0.8356509627583791  1.0000
  C   C2        1.0  0.9725989669924078  0.7834478457316367  0.7767924813316328  1.0000
  C   C3        1.0  0.0389553563276411  0.8196197137039081  0.7502603682539333  1.0000
  C   C4        1.0  0.03520650606173358  0.7641525248597958  0.6953591378285325  1.0000
  C   C5        1.0  0.9658185274059294  0.6717885697473421  0.6650486203860311  1.0000
  C   C6        1.0  0.9672260972399017  0.6165518126995124  0.6062692156207277  1.0000
  C   C7        1.0  0.8997017584845323  0.6370509364745658  0.6924870587897447  1.0000
  C   C8        1.0  0.9027252213186615  0.691721147370636  0.7475027296016564  1.0000
  C   C9        1.0  0.8441806882724096  0.4960842557327539  0.7109444780225334  1.0000
  C   C10       1.0  0.9745634667415788  0.8432261001515686  0.11296062384116838  1.0000
  C   C11       1.0  0.9727623400425076  0.7855631610629673  0.16990373945472467  1.0000
  C   C12       1.0  0.04293953890243081  0.8222413667392275  0.26228998379282603  1.0000
  C   C13       1.0  0.040773764133575675  0.7672516148398499  0.31382806434448446  1.0000
  C   C14       1.0  0.9690908549502739  0.6750976949121467  0.27548459942457987  1.0000
  C   C15       1.0  0.973426956168851  0.6198183005998248  0.33522759595664575  1.0000
  C   C16       1.0  0.8980064348216319  0.6399748168383043  0.18257133075049856  1.0000
  C   C17       1.0  0.9002590551161376  0.6941746579461708  0.13025894577204863  1.0000
  C   C18       1.0  0.7289032054072138  0.5147073746773785  0.11522183516944308  1.0000
  C   C19       1.0  0.6980223785921282  0.8468517851747847  0.8342995483324459  1.0000
  C   C20       1.0  0.5832821760501334  0.7888893293933067  0.7755852011742946  1.0000
  C   C21       1.0  0.5254783383302811  0.8246107695295636  0.7525361340009198  1.0000
  C   C22       1.0  0.4189604517975383  0.7687856726369375  0.6988551569720798  1.0000
  C   C23       1.0  0.36710130107082517  0.6766836497717605  0.6662056684088073  1.0000
  C   C24       1.0  0.25190055414461915  0.6203826666414257  0.6109161394408389  1.0000
  C   C25       1.0  0.42702936701871147  0.6425956168279399  0.6887281635406381  1.0000
  C   C26       1.0  0.5334361419944144  0.6974841451497653  0.7433837092373353  1.0000
  C   C27       1.0  0.36829546369070704  0.5176288765460058  0.5856103782121951  1.0000
  C   C28       1.0  0.25293006176212884  0.11639505307101672  0.11303257511482913  1.0000
  C   C29       1.0  0.3675854443260533  0.1720735414475811  0.17027140449832956  1.0000
  C   C30       1.0  0.4223459267131133  0.20372744414503788  0.2626774074656808  1.0000
  C   C31       1.0  0.5289104598848413  0.25663803400426843  0.31452642050049934  1.0000
  C   C32       1.0  0.5836731682573844  0.2792599268649525  0.27631790092594605  1.0000
  C   C33       1.0  0.6984802880705985  0.3395584579022569  0.33602469468831947  1.0000
  C   C34       1.0  0.5269228876843287  0.2451361280491824  0.18338734804983398  1.0000
  C   C35       1.0  0.42040680566636013  0.19291126705538628  0.13085235694959615  1.0000
  C   C36       1.0  0.590171993179503  0.2065988417946372  0.11689165902001969  1.0000
  C   C37       1.0  0.9768984284869192  0.12233101456315862  0.8374698637972319  1.0000
  C   C38       1.0  0.9786653886679062  0.1804106022948417  0.7806944780451277  1.0000
  C   C39       1.0  0.9136145251704946  0.2091726940128638  0.7519893710373824  1.0000
  C   C40       1.0  0.9155960964982554  0.2616747946493305  0.6979527360846377  1.0000
  C   C41       1.0  0.981681571309416  0.2870732851895782  0.670991624628826  1.0000
  C   C42       1.0  0.9773658328251854  0.34227100199022686  0.6109556069898048  1.0000
  C   C43       1.0  0.04723894760742551  0.2582065840107717  0.7016172518848265  1.0000
  C   C44       1.0  0.045595884813934645  0.20534654020322313  0.7553090715844633  1.0000
  C   C45       1.0  0.2119457968439562  0.3464438683526154  0.7300783265940609  1.0000
  C   C46       1.0  0.9770064842992525  0.12104721951640579  0.11419691982366934  1.0000
  C   C47       1.0  0.979338347362443  0.18084388611715954  0.17144457154838486  1.0000
  C   C48       1.0  0.04059544531912712  0.20400984257607044  0.26396580290798255  1.0000
  C   C49       1.0  0.04066494979021941  0.2590496608389756  0.3156992847912434  1.0000
  C   C50       1.0  0.9805596574472375  0.29254023474584306  0.2771424494470978  1.0000
  C   C51       1.0  0.9799419636189911  0.3475332190880209  0.3365589825985326  1.0000
  C   C52       1.0  0.9219831718642623  0.27039571685430275  0.18419028274708185  1.0000
  C   C53       1.0  0.9201789982048966  0.21447720060562864  0.1317730395854896  1.0000
  C   C54       1.0  0.8992153802476891  0.3741937783929217  0.11848171688290406  1.0000
  O   O1        1.0  0.975405304324376  0.982417057107135  0.9741332920974416  1.0000
  O   O2        1.0  0.03693249988972978  0.9252485234650862  0.8569741880005141  1.0000
  O   O3        1.0  0.9148625896147494  0.8035341989554112  0.8594127573843908  1.0000
  O   O4        1.0  0.8987614810522191  0.533800077926145  0.5730667687512396  1.0000
  O   O5        1.0  0.0383428877179456  0.6585434375448643  0.5945595724813302  1.0000
  O   O6        1.0  0.8235577964616142  0.546084843161772  0.6605046699624069  1.0000
  O   O7        1.0  0.03937376315084867  0.9263957897487031  0.15280771263796575  1.0000
  O   O8        1.0  0.9111326332471493  0.8043114841692472  0.029266188701939307  1.0000
  O   O9        1.0  0.9244871711162614  0.537203907908541  0.29930188612174646  1.0000
  O   O10       1.0  0.02786160895351492  0.6611321875206001  0.41810177200448356  1.0000
  O   O11       1.0  0.8255148330217569  0.5486896573640296  0.13896565380423467  1.0000
  O   O12       1.0  0.7407592773229654  0.9302485753783074  0.8575918248372293  1.0000
  O   O13       1.0  0.7432949355428066  0.8074731157350145  0.8559633052165128  1.0000
  O   O14       1.0  0.20713089103459484  0.5378798964691142  0.5984568209157431  1.0000
  O   O15       1.0  0.20856669078882117  0.6611955269526105  0.5822320652778075  1.0000
  O   O16       1.0  0.38152849352459145  0.5513117266623199  0.6599883819525945  1.0000
  O   O17       1.0  0.20889119629943312  0.0969120225704145  0.15277886902113383  1.0000
  O   O18       1.0  0.20897912471852456  0.09316922381104578  0.029352856721054397  1.0000
  O   O19       1.0  0.7448851236518054  0.3785342918433301  0.3008061910466041  1.0000
  O   O20       1.0  0.740234195814999  0.34815187994237107  0.41837587019691125  1.0000
  O   O21       1.0  0.5755808071724362  0.26607454745823844  0.1398866926367789  1.0000
  O   O22       1.0  0.9145417359594531  0.10132768310570131  0.8588768714295513  1.0000
  O   O23       1.0  0.03783284166563313  0.09843418153465683  0.8592885407738464  1.0000
  O   O24       1.0  0.024425934052033013  0.35310678629124226  0.5752506555987296  1.0000
  O   O25       1.0  0.9247324862222472  0.37317336445865124  0.6000038705304152  1.0000
  O   O26       1.0  0.11211343968398074  0.27681382042955965  0.6746408067925389  1.0000
  O   O27       1.0  0.03696480739953502  0.09640186648184111  0.15384449229492964  1.0000
  O   O28       1.0  0.9152996012431628  0.09982429738932552  0.030532754584775952  1.0000
  O   O29       1.0  0.9059093817626477  0.356340499948324  0.30120904934575077  1.0000
  O   O30       1.0  0.05323962651745972  0.3792661709341161  0.41884797217709047  1.0000
  O   O31       1.0  0.8596445325169739  0.30077632453728853  0.14045357681411028  1.0000
  O   O32       1.0  0.9768590092607498  0.48302581013325613  0.4759456043755039  1.0000
  F   F1        1.0  0.9395769159631161  0.5149371603787927  0.7465913306611969  1.0000
  F   F2        1.0  0.7738354803146592  0.41043683815411913  0.6588788202978436  1.0000
  F   F3        1.0  0.8372552049330223  0.5058095604450301  0.7804515353569245  1.0000
  F   F4        1.0  0.7270808364445074  0.5381289035451644  0.18431611577170787  1.0000
  F   F5        1.0  0.6755353506147088  0.42626915569947244  0.08422255272012077  1.0000
  F   F6        1.0  0.6789276490643915  0.5419218274222004  0.04997683540933929  1.0000
  F   F7        1.0  0.3226495104261745  0.5434307537262769  0.5167659782112966  1.0000
  F   F8        1.0  0.30905737189027604  0.42880506071015395  0.5611265093882878  1.0000
  F   F9        1.0  0.4590720826302644  0.5421789008191809  0.598824191196421  1.0000
  F   F10       1.0  0.6418285038270851  0.1851368596145377  0.18712682490977542  1.0000
  F   F11       1.0  0.6442359293025746  0.24204256291039883  0.08258472397427852  1.0000
  F   F12       1.0  0.4997141166085727  0.1282604367339601  0.054412495657359713  1.0000
  F   F13       1.0  0.223163413932845  0.4233784327124114  0.7540636690569829  1.0000
  F   F14       1.0  0.2566893074429118  0.35668199082326174  0.6877261964458796  1.0000
  F   F15       1.0  0.26444303316039725  0.3329826456647852  0.807383566025095  1.0000
  F   F16       1.0  0.9889667026444757  0.44548101334730456  0.19009830429435956  1.0000
  F   F17       1.0  0.8296145585737378  0.3939068756360058  0.08079457440734227  1.0000
  F   F18       1.0  0.920159320354408  0.362204898115337  0.05946078351288277  1.0000
