data_image0
_chemical_formula_structural       Zn4Te4H16C4N4
_chemical_formula_sum              "Zn4 Te4 H16 C4 N4"
_cell_length_a       4.339458687109623
_cell_length_b       5.678038498764496
_cell_length_c       16.706668029552446
_cell_angle_alpha    89.9972835149449
_cell_angle_beta     90.00010338848467
_cell_angle_gamma    89.99922704525201

_space_group_name_H-M_alt    "P 1"
_space_group_IT_number       1

loop_
  _space_group_symop_operation_xyz
  'x, y, z'

loop_
  _atom_site_type_symbol
  _atom_site_label
  _atom_site_symmetry_multiplicity
  _atom_site_fract_x
  _atom_site_fract_y
  _atom_site_fract_z
  _atom_site_occupancy
  Zn  Zn1       1.0  0.999997513155755  0.6833014376971603  0.19898645299250717  1.0000
  Zn  Zn2       1.0  0.9999957108841144  0.3167233253783053  0.8010071618675311  1.0000
  Zn  Zn3       1.0  0.49999961602478044  0.18326881602767733  0.3010137602580086  1.0000
  Zn  Zn4       1.0  0.5000002190191141  0.8167243476129183  0.6989814081941502  1.0000
  Te  Te1       1.0  2.4649049166000063e-06  0.9333628570953673  0.33295103248090635  1.0000
  Te  Te2       1.0  0.9999996747011367  0.06661973872272849  0.6670555087628925  1.0000
  Te  Te3       1.0  0.49999475264922927  0.4334436271204466  0.1670586109382768  1.0000
  Te  Te4       1.0  0.500000473289724  0.5665812369759563  0.8329461342676792  1.0000
  H   H1        1.0  0.18702557797816874  0.056147113783779894  0.125229822987734  1.0000
  H   H2        1.0  0.18703212981684203  0.9438934496384305  0.8747711790081636  1.0000
  H   H3        1.0  0.31299643743842154  0.5560977379134326  0.3747722295627226  1.0000
  H   H4        1.0  0.31296826635760067  0.4438851114167902  0.6252288339573224  1.0000
  H   H5        1.0  0.812962734642845  0.9438759897534791  0.8747665423433657  1.0000
  H   H6        1.0  0.8129607915792506  0.056143742753583574  0.12523236896953446  1.0000
  H   H7        1.0  0.6870218332098477  0.44388485785888304  0.6252337131215882  1.0000
  H   H8        1.0  0.687045395404816  0.5560974847090276  0.3747723202186747  1.0000
  H   H9        1.0  0.7972979852372576  0.7797922203040031  0.013787704167427297  1.0000
  H   H10       1.0  0.7973220973745612  0.22023472567406793  0.986208206682782  1.0000
  H   H11       1.0  0.7026468192991759  0.27974784132109676  0.48622170375460877  1.0000
  H   H12       1.0  0.7027192442763024  0.7201973485412052  0.5137777532778856  1.0000
  H   H13       1.0  0.2026396297094308  0.22024497263236498  0.9862122524164646  1.0000
  H   H14       1.0  0.20265008411993796  0.7797971839722775  0.013785764318740198  1.0000
  H   H15       1.0  0.2973737558666301  0.7202206658057474  0.5137734649043891  1.0000
  H   H16       1.0  0.29733359300485773  0.2797693969938066  0.48622100678374364  1.0000
  C   C1        1.0  0.999988276343899  0.8902826277938515  0.026654764880618097  1.0000
  C   C2        1.0  0.9999726855019875  0.10975798542433067  0.9733472297294552  1.0000
  C   C3        1.0  0.5000237981501101  0.3902122583263434  0.47335044028991996  1.0000
  C   C4        1.0  0.5000152130591147  0.609689324181346  0.526644728921326  1.0000
  N   N1        1.0  0.999981145456445  0.9501970848661399  0.11236855322463407  1.0000
  N   N2        1.0  9.4715641623e-06  0.04983306285198098  0.8876349948101633  1.0000
  N   N3        1.0  0.4999930475704845  0.4501420045824529  0.3876392623928736  1.0000
  N   N4        1.0  0.5000229187171427  0.5498317853443949  0.6123666803629533  1.0000
