data_image0
_chemical_formula_structural       Tb4H76C92O36
_chemical_formula_sum              "Tb4 H76 C92 O36"
_cell_length_a       14.878723120844231
_cell_length_b       14.880380979705278
_cell_length_c       24.105355308132843
_cell_angle_alpha    99.14443054240124
_cell_angle_beta     103.57256215519358
_cell_angle_gamma    111.2520131907409

_space_group_name_H-M_alt    "P 1"
_space_group_IT_number       1

loop_
  _space_group_symop_operation_xyz
  'x, y, z'

loop_
  _atom_site_type_symbol
  _atom_site_label
  _atom_site_symmetry_multiplicity
  _atom_site_fract_x
  _atom_site_fract_y
  _atom_site_fract_z
  _atom_site_occupancy
  Tb  Tb1       1.0  0.9003609015528369  0.3472305527434544  0.043166813640233684  1.0000
  Tb  Tb2       1.0  0.8039412273165426  0.8571763841867013  0.4568152848355993  1.0000
  Tb  Tb3       1.0  0.09963904390149038  0.6527690011088296  0.9568321328971265  1.0000
  Tb  Tb4       1.0  0.19606058526683504  0.14282097636372987  0.543183286768425  1.0000
  H   H1        1.0  0.9896477857084564  0.5438409219797792  0.2433048205964141  1.0000
  H   H2        1.0  0.800349568024437  0.746445582459714  0.256679618920181  1.0000
  H   H3        1.0  0.010350155772251037  0.4561548995900822  0.7566951171171823  1.0000
  H   H4        1.0  0.19964996670898918  0.25355623527676124  0.7433211464552868  1.0000
  H   H5        1.0  0.344524780698883  0.5775450779796003  0.29513815362594187  1.0000
  H   H6        1.0  0.7823225036580155  0.049491022842161746  0.2048453869313462  1.0000
  H   H7        1.0  0.6554744364663634  0.4224540100180932  0.7048593283735869  1.0000
  H   H8        1.0  0.21767483943622776  0.9505101608431801  0.7951546926814217  1.0000
  H   H9        1.0  0.2144413150208067  0.4537195873700598  0.2042234718763254  1.0000
  H   H10       1.0  0.7494220592414466  0.01039449700479629  0.2957704488974641  1.0000
  H   H11       1.0  0.7855551700517509  0.5462761636174706  0.7957750219324994  1.0000
  H   H12       1.0  0.2505771655457989  0.9896081331144373  0.7042307511056832  1.0000
  H   H13       1.0  0.44682979621173047  0.6772773499782118  0.36397298536305556  1.0000
  H   H14       1.0  0.8128660115747908  0.0827065437213932  0.1358824236304983  1.0000
  H   H15       1.0  0.5531689814447418  0.3227184446858474  0.6360262951689108  1.0000
  H   H16       1.0  0.18713415033295883  0.9172954691174411  0.8641182201514681  1.0000
  H   H17       1.0  0.35313630702380994  0.9042202509836913  0.48884917617841234  1.0000
  H   H18       1.0  0.9154868862153052  0.8644884424878189  0.011216418815244784  1.0000
  H   H19       1.0  0.6468606971663745  0.09577532673974792  0.511149832585481  1.0000
  H   H20       1.0  0.08451013253882396  0.13551077497136516  0.9887840852723639  1.0000
  H   H21       1.0  0.5306750002031748  0.9240912939407623  0.511913365372699  1.0000
  H   H22       1.0  0.9120975911107861  0.018797984554005543  0.9880707444567135  1.0000
  H   H23       1.0  0.4693216725349315  0.07590135881547155  0.4880868053750618  1.0000
  H   H24       1.0  0.08789890124374006  0.9811995863013933  0.011928497013968774  1.0000
  H   H25       1.0  0.22048657299735186  0.9012348225332263  0.46376036307060525  1.0000
  H   H26       1.0  0.9379321246422948  0.7571749112675195  0.03642310051998981  1.0000
  H   H27       1.0  0.7795123343917325  0.0987659389740614  0.5362390387274871  1.0000
  H   H28       1.0  0.06206719380772088  0.2428253086092411  0.9635774527817418  1.0000
  H   H29       1.0  0.9536387736281287  0.6285293625914151  0.2931303324089072  1.0000
  H   H30       1.0  0.8356165618446455  0.660782603237962  0.20694993698668177  1.0000
  H   H31       1.0  0.04636022742371875  0.37146898867339917  0.7068684226877693  1.0000
  H   H32       1.0  0.16438808445621333  0.3392209484553634  0.7930536644520032  1.0000
  H   H33       1.0  0.9120221562020702  0.7514717094125418  0.3509238637828317  1.0000
  H   H34       1.0  0.9010678537930018  0.5615726501860294  0.1492363478242424  1.0000
  H   H35       1.0  0.0879770396272901  0.2485245023620307  0.6490758307437616  1.0000
  H   H36       1.0  0.09893669139310643  0.43843063075506455  0.8507656674831168  1.0000
  H   H37       1.0  0.7452104522115871  0.1027574416598468  0.9135181950419875  1.0000
  H   H38       1.0  0.6892133860709321  0.8319180332281848  0.5864864153357914  1.0000
  H   H39       1.0  0.25478372605312666  0.8972363481690595  0.0864809870617336  1.0000
  H   H40       1.0  0.31080805064315337  0.16810824817455486  0.41352265279409284  1.0000
  H   H41       1.0  0.6217336878789369  0.10577076286109856  0.8961368448291936  1.0000
  H   H42       1.0  0.7095348256315573  0.725794944525056  0.6038879646396609  1.0000
  H   H43       1.0  0.37826207618651597  0.8942263421397173  0.10386093210366441  1.0000
  H   H44       1.0  0.29047635966982455  0.27422489512664333  0.39611986657074993  1.0000
  H   H45       1.0  0.6771637569580518  0.08898135494906241  0.9658853459951684  1.0000
  H   H46       1.0  0.6230651264278606  0.711485827015956  0.5341137222571675  1.0000
  H   H47       1.0  0.32282877029101087  0.9110153649145828  0.03411293794474801  1.0000
  H   H48       1.0  0.37694169049913023  0.28853810652288564  0.46589720309331983  1.0000
  H   H49       1.0  0.6920864340774668  0.4058884053371585  0.9371136272802403  1.0000
  H   H50       1.0  0.9690185744550702  0.7551558239688064  0.5628415870103041  1.0000
  H   H51       1.0  0.30791599111629614  0.5941055105798797  0.06288332740656698  1.0000
  H   H52       1.0  0.030981269884506304  0.24484345913124633  0.43715577339572315  1.0000
  H   H53       1.0  0.7582137857825655  0.46657241473629096  0.8905954856087561  1.0000
  H   H54       1.0  0.076202704866695  0.8678639331880263  0.6093212386551699  1.0000
  H   H55       1.0  0.24178853863647726  0.5334229526821731  0.10940285328847917  1.0000
  H   H56       1.0  0.923799215603374  0.13213293460201211  0.390675211229393  1.0000
  H   H57       1.0  0.793225226001148  0.5286647591706455  0.9673699228899366  1.0000
  H   H58       1.0  0.06139803521369194  0.8260752457249012  0.5325253326096089  1.0000
  H   H59       1.0  0.20677489238477884  0.4713271955877759  0.032627720091760196  1.0000
  H   H60       1.0  0.9386003383238021  0.1739211881838969  0.46747057373881507  1.0000
  H   H61       1.0  0.755405429558074  0.27154515832097553  0.9308819039502153  1.0000
  H   H62       1.0  0.8406793386925101  0.8246426930415894  0.5691492668684077  1.0000
  H   H63       1.0  0.24459303070023714  0.7284487677311378  0.06911557837669587  1.0000
  H   H64       1.0  0.15932856559060574  0.17536325888519855  0.4308501298652772  1.0000
  H   H65       1.0  0.8987078501680086  0.4450289175048495  0.9409411730242495  1.0000
  H   H66       1.0  0.004054788578265727  0.95785070630307  0.5590112351906811  1.0000
  H   H67       1.0  0.10129500048061858  0.5549672353905706  0.059056943319035306  1.0000
  H   H68       1.0  0.9959478674628529  0.04214844720942793  0.44098742689356374  1.0000
  H   H69       1.0  0.783432560489679  0.37860207832221704  0.10665333658656102  1.0000
  H   H70       1.0  0.7718804065725707  0.6766894494956547  0.3933510851233634  1.0000
  H   H71       1.0  0.2165715734654865  0.6214008831225755  0.8933460420462749  1.0000
  H   H72       1.0  0.22811952465783478  0.3233081868745487  0.6066493364320351  1.0000
  H   H73       1.0  0.69831891578351  0.29979218799254437  0.04972788515911469  1.0000
  H   H74       1.0  0.75001494464761  0.6485704546989339  0.45028780160868814  1.0000
  H   H75       1.0  0.30167960222055273  0.7002137136220626  0.9502711229500208  1.0000
  H   H76       1.0  0.24998125215467573  0.3514307071481469  0.5497118846425124  1.0000
  C   C1        1.0  0.016721622899247265  0.4246034197006097  0.16155691368396669  1.0000
  C   C2        1.0  0.7628527493740265  0.8552783501356132  0.33842581271955646  1.0000
  C   C3        1.0  0.9832764339201248  0.5753945901035709  0.838443135142917  1.0000
  C   C4        1.0  0.23714834965423384  0.14472304542280773  0.6615742748412288  1.0000
  C   C5        1.0  0.09381743176899696  0.4924018069311203  0.218937665764237  1.0000
  C   C6        1.0  0.773209414741629  0.8749542555291471  0.28103277538441757  1.0000
  C   C7        1.0  0.9061820812885203  0.5075954123285699  0.7810623417965347  1.0000
  C   C8        1.0  0.22679022821850492  0.12504879170060001  0.7189688386133498  1.0000
  C   C9        1.0  0.06819225918385288  0.5530202541412663  0.2563772674578289  1.0000
  C   C10       1.0  0.7964724244436424  0.8119280945691828  0.24361489986961973  1.0000
  C   C11       1.0  0.9318055884640727  0.4469771165442397  0.7436218317862996  1.0000
  C   C12       1.0  0.20352826386370984  0.18807556487343643  0.7563870065292804  1.0000
  C   C13       1.0  0.14070882633112086  0.625955525027898  0.3080122072887264  1.0000
  C   C14       1.0  0.8179410036425094  0.832877152463148  0.19202119569811768  1.0000
  C   C15       1.0  0.8592890213168046  0.37404184565760806  0.691986891955402  1.0000
  C   C16       1.0  0.18205989366628442  0.1671262849713101  0.8079801751126537  1.0000
  C   C17       1.0  0.24293815037109562  0.6358580173610235  0.32252443251715585  1.0000
  C   C18       1.0  0.813214464008894  0.9205004457294378  0.17746320185550252  1.0000
  C   C19       1.0  0.7570606487912742  0.3641415146529923  0.6774741206586299  1.0000
  C   C20       1.0  0.1867863252432044  0.07950262333857694  0.8225388055038393  1.0000
  C   C21       1.0  0.26689268862288873  0.571383237303543  0.28466774633861996  1.0000
  C   C22       1.0  0.7865298298949811  0.9822899923460826  0.215297517948791  1.0000
  C   C23       1.0  0.7331087132395809  0.4286163871310722  0.7153326441035119  1.0000
  C   C24       1.0  0.21346897671937612  0.017712220662644922  0.7847032680597295  1.0000
  C   C25       1.0  0.19461704805855354  0.5015402752290115  0.23368102710634986  1.0000
  C   C26       1.0  0.7676823479338849  0.9610440657675171  0.26628751473239726  1.0000
  C   C27       1.0  0.8053823711661819  0.4984584931463161  0.7663181419849535  1.0000
  C   C28       1.0  0.23231792220057898  0.038959176564588915  0.7337139776718686  1.0000
  C   C29       1.0  0.6053208879331321  0.816138925915439  0.4495155801829398  1.0000
  C   C30       1.0  0.8665433080813331  0.15586730216063677  0.050452327012884275  1.0000
  C   C31       1.0  0.3946767507133584  0.18385866677822799  0.5504840546493169  1.0000
  C   C32       1.0  0.13345329961186522  0.8441324569290812  0.9495470255710785  1.0000
  C   C33       1.0  0.4974950617738045  0.8008052056822309  0.4381959212855051  1.0000
  C   C34       1.0  0.8624299211754476  0.05930371506700284  0.06175293165187412  1.0000
  C   C35       1.0  0.5025031031022776  0.19919317248838558  0.5618034909928014  1.0000
  C   C36       1.0  0.13756835192734945  0.9406958925968923  0.938247329248739  1.0000
  C   C37       1.0  0.4225618209560266  0.7251321569950522  0.390084328815135  1.0000
  C   C38       1.0  0.8347732555122673  0.032416538708673726  0.10982547832593777  1.0000
  C   C39       1.0  0.5774364375828184  0.2748638109330984  0.6099144367617626  1.0000
  C   C40       1.0  0.16522626482721858  0.9675825004188853  0.8901752768966915  1.0000
  C   C41       1.0  0.32062111028754714  0.7127492891844299  0.374759860766936  1.0000
  C   C42       1.0  0.8379245861523898  0.945927845372907  0.125232546735667  1.0000
  C   C43       1.0  0.6793766291336709  0.28724685200780464  0.6252383898548928  1.0000
  C   C44       1.0  0.1620768231620743  0.05407446005641965  0.8747700765391926  1.0000
  C   C45       1.0  0.2946298694447975  0.7790408222502806  0.4105439569618738  1.0000
  C   C46       1.0  0.8686473559665019  0.8842777387022309  0.08952312574053417  1.0000
  C   C47       1.0  0.7053678699764205  0.22095531894195386  0.5894542936599478  1.0000
  C   C48       1.0  0.1313517534820647  0.11572270318269069  0.9104779631493257  1.0000
  C   C49       1.0  0.37167494772820225  0.8535495818208219  0.4605519727190526  1.0000
  C   C50       1.0  0.8930759317561936  0.9112901229030971  0.0394982592343567  1.0000
  C   C51       1.0  0.6283221574067213  0.14644540552802013  0.5394471370052969  1.0000
  C   C52       1.0  0.10692380486670305  0.08871051408417685  0.9605027080620018  1.0000
  C   C53       1.0  0.47145412429811967  0.8651908574076971  0.4740383515461132  1.0000
  C   C54       1.0  0.891114990852941  0.9974995778589104  0.02595735969322283  1.0000
  C   C55       1.0  0.5285433990096919  0.13480454705165104  0.5259611721728561  1.0000
  C   C56       1.0  0.10888150878356118  0.002499812864364643  0.9740426294393174  1.0000
  C   C57       1.0  0.04489785039056213  0.9123844673740605  0.4445625439285692  1.0000
  C   C58       1.0  0.9679859993178469  0.6005367743262583  0.05549867705932596  1.0000
  C   C59       1.0  0.9551034647510972  0.08761766491724629  0.5554362705350684  1.0000
  C   C60       1.0  0.03201624617238233  0.39946550419726623  0.9445032890339106  1.0000
  C   C61       1.0  0.0653327075613034  0.8328454246978012  0.4111915467667515  1.0000
  C   C62       1.0  0.9221980089943643  0.6546099705739865  0.08900862366071748  1.0000
  C   C63       1.0  0.9346679589001281  0.16715277514119728  0.5888081166465753  1.0000
  C   C64       1.0  0.07780486367019519  0.34539250305189045  0.9109932208390177  1.0000
  C   C65       1.0  0.16388140484001204  0.8389544387219914  0.42669506229657367  1.0000
  C   C66       1.0  0.9127825929968479  0.7376279368984768  0.07350635861777732  1.0000
  C   C67       1.0  0.8361099688351175  0.16104043943551738  0.5733020806199107  1.0000
  C   C68       1.0  0.08721692734263783  0.26237110222908183  0.9264943966048519  1.0000
  C   C69       1.0  0.19030122882411143  0.7703258811103667  0.39460769151872194  1.0000
  C   C70       1.0  0.8761070359342183  0.7960546116894848  0.10555604037925545  1.0000
  C   C71       1.0  0.8096977651157714  0.22967151141340741  0.6053918010869737  1.0000
  C   C72       1.0  0.12389447415496603  0.2039462422384092  0.8944451986851761  1.0000
  C   C73       1.0  0.11367988898562936  0.6935067632503479  0.3446858460524282  1.0000
  C   C74       1.0  0.8491425158604855  0.7693428486456285  0.15545604228336163  1.0000
  C   C75       1.0  0.8863170213717807  0.3064903635887363  0.6553123242419971  1.0000
  C   C76       1.0  0.15085921051211656  0.2306596031419801  0.8445454088547989  1.0000
  C   C77       1.0  0.013405289544934305  0.6872958376260386  0.3307730405945648  1.0000
  C   C78       1.0  0.8569675725832084  0.6830491522418428  0.16939748966905901  1.0000
  C   C79       1.0  0.9865939061144146  0.31269951302169835  0.6692251687611517  1.0000
  C   C80       1.0  0.14303676360145795  0.3169543507074124  0.8306050612264286  1.0000
  C   C81       1.0  0.9889204409067531  0.7553177780800201  0.3629500948446919  1.0000
  C   C82       1.0  0.8929474462769774  0.6264820003616763  0.13725649054224928  1.0000
  C   C83       1.0  0.011075207820027591  0.24467713868648389  0.6370475709748789  1.0000
  C   C84       1.0  0.10705709179717351  0.37352032183837736  0.862746262274129  1.0000
  C   C85       1.0  0.6934449443237795  0.12642375266824507  0.9314530726449418  1.0000
  C   C86       1.0  0.694929190351054  0.7622022192832247  0.5685700712407069  1.0000
  C   C87       1.0  0.3065486209905329  0.873571759540397  0.06854475603424248  1.0000
  C   C88       1.0  0.3050832565809642  0.23781983044105462  0.43143826444455863  1.0000
  C   C89       1.0  0.7659437150361936  0.4557845843747828  0.9352586713469293  1.0000
  C   C90       1.0  0.020690491024872342  0.8308869285183392  0.564672747791505  1.0000
  C   C91       1.0  0.23405798203850034  0.5442097268144935  0.06473830397292347  1.0000
  C   C92       1.0  0.9793097642056237  0.1691109518243508  0.4353242789472984  1.0000
  O   O1        1.0  0.9237655559719471  0.411361847222885  0.15065171672750916  1.0000
  O   O2        1.0  0.7604639545843239  0.7732060752037454  0.34931324993208784  1.0000
  O   O3        1.0  0.07623302707701621  0.5886369480582513  0.8493481095454242  1.0000
  O   O4        1.0  0.2395373536153897  0.22679595947335693  0.6506877872114458  1.0000
  O   O5        1.0  0.046356213366294675  0.3850789203830161  0.12221431002703295  1.0000
  O   O6        1.0  0.7628005240835165  0.9242875265603487  0.3778060145200257  1.0000
  O   O7        1.0  0.9536397598706043  0.614918823736474  0.8777844164885806  1.0000
  O   O8        1.0  0.2371979580207153  0.0757118590953923  0.6221937107924589  1.0000
  O   O9        1.0  0.6268497888871495  0.7471155768080209  0.42465032170186123  1.0000
  O   O10       1.0  0.8224073931675733  0.20232076997385925  0.07529383195887358  1.0000
  O   O11       1.0  0.3731478497593342  0.2528820158856462  0.5753493131303955  1.0000
  O   O12       1.0  0.1775878519502566  0.797677369417876  0.9247049151897853  1.0000
  O   O13       1.0  0.6760604754237035  0.8994603118123764  0.4831319629276222  1.0000
  O   O14       1.0  0.9163271514740786  0.1929696718431587  0.016871305992552234  1.0000
  O   O15       1.0  0.32393570681463757  0.10053721029895261  0.5168662279998628  1.0000
  O   O16       1.0  0.08366955716386554  0.8070294968719551  0.9831281475518594  1.0000
  O   O17       1.0  0.11877937710681849  0.9811480259760686  0.4863526945191338  1.0000
  O   O18       1.0  0.9945447788713864  0.632308465625819  0.013520224087280024  1.0000
  O   O19       1.0  0.8812287150118648  0.018855688846265768  0.5136498643243711  1.0000
  O   O20       1.0  0.005458619852753048  0.36769393235017855  0.9864799126876278  1.0000
  O   O21       1.0  0.9557053827829378  0.911030425076014  0.42921904698588514  1.0000
  O   O22       1.0  0.9819461221158435  0.5266819410867215  0.07083092045323272  1.0000
  O   O23       1.0  0.04429914766921424  0.08896835500250697  0.5707799878268816  1.0000
  O   O24       1.0  0.018051646263252598  0.4733206184501742  0.9291688356451361  1.0000
  O   O25       1.0  0.7394946130590155  0.23226596611011996  0.959248530866745  1.0000
  O   O26       1.0  0.7730028763789746  0.7803809441627934  0.5407905017471107  1.0000
  O   O27       1.0  0.2605030254174565  0.7677307654567115  0.040749618794635  1.0000
  O   O28       1.0  0.22700138053686192  0.21962774763785123  0.4592127060026243  1.0000
  O   O29       1.0  0.8345194302854251  0.40864360093274155  0.9493313849261398  1.0000
  O   O30       1.0  0.9593292499152638  0.8852664076538233  0.5506467570300089  1.0000
  O   O31       1.0  0.16548184861638046  0.5913502931460286  0.05066517639909307  1.0000
  O   O32       1.0  0.04067236789060046  0.11473309238684956  0.4493508751440913  1.0000
  O   O33       1.0  0.7527075278100313  0.36713515279051734  0.0638945374666733  1.0000
  O   O34       1.0  0.803149150928455  0.6888642797673443  0.4361225183627653  1.0000
  O   O35       1.0  0.2472943208431956  0.6328695848456222  0.9361048021048717  1.0000
  O   O36       1.0  0.19684964129196195  0.311135154632467  0.5638782574929166  1.0000
