data_image0
_chemical_formula_structural       Cd2H136C128S8Br4N8O8
_chemical_formula_sum              "Cd2 H136 C128 S8 Br4 N8 O8"
_cell_length_a       15.255634384383589
_cell_length_b       15.573561472918394
_cell_length_c       19.10525550093303
_cell_angle_alpha    97.28330025971492
_cell_angle_beta     89.99936491824691
_cell_angle_gamma    119.32693195628545

_space_group_name_H-M_alt    "P 1"
_space_group_IT_number       1

loop_
  _space_group_symop_operation_xyz
  'x, y, z'

loop_
  _atom_site_type_symbol
  _atom_site_label
  _atom_site_symmetry_multiplicity
  _atom_site_fract_x
  _atom_site_fract_y
  _atom_site_fract_z
  _atom_site_occupancy
  Cd  Cd1       1.0  4.8906457976367615e-06  0.5000023528689468  0.4999995250639414  1.0000
  Cd  Cd2       1.0  0.49999855618661815  0.5000002098379852  0.9999990936678955  1.0000
  H   H1        1.0  0.7120307974831092  0.7965088456014014  0.5279357278325206  1.0000
  H   H2        1.0  0.5093950558315823  0.8052766561467802  0.6825089614130988  1.0000
  H   H3        1.0  0.7016323914680171  0.12811657892522993  0.6406141253175335  1.0000
  H   H4        1.0  0.7781894517936081  0.1177990433766354  0.5724979394222912  1.0000
  H   H5        1.0  0.852016373573008  0.2760049690568565  0.5353018154304934  1.0000
  H   H6        1.0  0.025746841034894774  0.5370491715895368  0.6708681770811181  1.0000
  H   H7        1.0  0.9788309402878281  0.44768122649693953  0.7774064874146658  1.0000
  H   H8        1.0  0.8682077589906996  0.2605882675688632  0.7585767825938914  1.0000
  H   H9        1.0  0.5054789994287174  0.5338302120621278  0.5561567590335343  1.0000
  H   H10       1.0  0.5906052323209678  0.6181896960828014  0.627796648022901  1.0000
  H   H11       1.0  0.6267174980901867  0.6292801174508112  0.539778001074005  1.0000
  H   H12       1.0  0.3862094383485583  0.6884322288925517  0.6059036418099948  1.0000
  H   H13       1.0  0.43551435340809513  0.6379716569996461  0.6632398594116606  1.0000
  H   H14       1.0  0.3672037565112304  0.567457758755026  0.5820759044805469  1.0000
  H   H15       1.0  0.5593616029089432  0.7073694673915296  0.45975396955672204  1.0000
  H   H16       1.0  0.45771374067714976  0.7265740948096349  0.4863296344476351  1.0000
  H   H17       1.0  0.4384145098137465  0.6034564422719271  0.46610226627966245  1.0000
  H   H18       1.0  0.22349895903860065  0.2025517489573758  0.7333893276601984  1.0000
  H   H19       1.0  0.014509213042067853  0.19921169016782866  0.5794808855150322  1.0000
  H   H20       1.0  0.068076315324319  0.8834815203654357  0.6172519030585446  1.0000
  H   H21       1.0  0.9895010199002313  0.8825102101219854  0.5473476448014691  1.0000
  H   H22       1.0  0.0518363426337699  0.7263656859620298  0.5567271742473847  1.0000
  H   H23       1.0  0.7840481067309071  0.46209289992158625  0.5505912438110059  1.0000
  H   H24       1.0  0.6960266910395633  0.5506005006393552  0.6078488984198316  1.0000
  H   H25       1.0  0.7908716775448138  0.7387178777737587  0.6312847720816064  1.0000
  H   H26       1.0  0.23753863395470623  0.2916244177945088  0.5418320123717777  1.0000
  H   H27       1.0  0.31959875346984745  0.2923803676562216  0.6086762037487574  1.0000
  H   H28       1.0  0.33290550337633096  0.40678609107010993  0.5886665282693571  1.0000
  H   H29       1.0  0.3125804924180357  0.3541572824226689  0.737232496083152  1.0000
  H   H30       1.0  0.21324645200516554  0.3771937455874479  0.7627260015784285  1.0000
  H   H31       1.0  0.3122278217561599  0.46122762217920865  0.7158105552549898  1.0000
  H   H32       1.0  0.08861760568402832  0.369777135639957  0.6615383827819272  1.0000
  H   H33       1.0  0.11302051936947062  0.34798497139939133  0.5721127676120757  1.0000
  H   H34       1.0  0.19976859502789066  0.4577605561576093  0.6268564098365558  1.0000
  H   H35       1.0  0.915519114878343  0.20348803119305356  0.9720588983671448  1.0000
  H   H36       1.0  0.7041053243195279  0.1946955375101354  0.8174928361340221  1.0000
  H   H37       1.0  0.5735370501764689  0.871858322736692  0.8594002370394945  1.0000
  H   H38       1.0  0.6604137064633804  0.8821712731601323  0.927503718947797  1.0000
  H   H39       1.0  0.5760874807384365  0.723988480848547  0.9647032888732807  1.0000
  H   H40       1.0  0.48869137253704037  0.46291688346148147  0.8291392270003398  1.0000
  H   H41       1.0  0.5311174306358522  0.5522768296749874  0.7225967491765387  1.0000
  H   H42       1.0  0.6075932989315973  0.7393699297530034  0.741417197789829  1.0000
  H   H43       1.0  0.9716612569417648  0.4661555583104827  0.9438510114038295  1.0000
  H   H44       1.0  0.9724312183814874  0.3817948859248474  0.8722074813314149  1.0000
  H   H45       1.0  0.9974320097391356  0.37068853028821985  0.9602263312599817  1.0000
  H   H46       1.0  0.6977899571965478  0.31156884901698584  0.8940843929930509  1.0000
  H   H47       1.0  0.7975655095910099  0.36203166345041643  0.8367529785987385  1.0000
  H   H48       1.0  0.799758625330142  0.4325384668503318  0.9179212150204845  1.0000
  H   H49       1.0  0.8519837603612074  0.29260987518503606  0.04023635885734219  1.0000
  H   H50       1.0  0.7311360277411438  0.27340636904484944  0.013661268165712698  1.0000
  H   H51       1.0  0.8349499750032978  0.3965221356448013  0.033896969018890395  1.0000
  H   H52       1.0  0.02091836028140633  0.7974156117756052  0.7666021301053475  1.0000
  H   H53       1.0  0.8152946754880898  0.8007862787961809  0.9205304637796557  1.0000
  H   H54       1.0  0.18458698150701028  0.11647241832092448  0.8827439108136232  1.0000
  H   H55       1.0  0.10698387142875988  0.11748485810543491  0.9526423407051537  1.0000
  H   H56       1.0  0.3255291500354502  0.27361854902939337  0.9431685796667607  1.0000
  H   H57       1.0  0.32199746332150164  0.5378974767331499  0.9493448336978362  1.0000
  H   H58       1.0  0.1454277162699782  0.44937204215737137  0.8921425407265173  1.0000
  H   H59       1.0  0.05214596606927555  0.2612518025466528  0.8687435316878476  1.0000
  H   H60       1.0  0.9459169618806982  0.7083553474034119  0.9581633601797749  1.0000
  H   H61       1.0  0.027206851820345296  0.707594630198031  0.8913051097408624  1.0000
  H   H62       1.0  0.9261128975951821  0.5931895481188577  0.9113212861954665  1.0000
  H   H63       1.0  0.9583837559011669  0.6458093738759344  0.7627574925105092  1.0000
  H   H64       1.0  0.8360192357994477  0.6227949114958448  0.7372787197606668  1.0000
  H   H65       1.0  0.8509513081803347  0.538745542146465  0.7841831887824781  1.0000
  H   H66       1.0  0.7188247281875276  0.6302090736655545  0.8384833845855508  1.0000
  H   H67       1.0  0.7650314176805394  0.652003111297425  0.9279078313032797  1.0000
  H   H68       1.0  0.7419889203389332  0.5422234638447493  0.8731577366834385  1.0000
  H   H69       1.0  0.28797102812568903  0.20349232246924487  0.47206482287745644  1.0000
  H   H70       1.0  0.49060499679385566  0.19472227695013092  0.317490838588263  1.0000
  H   H71       1.0  0.29836746679606546  0.8718845874218316  0.3593859018082454  1.0000
  H   H72       1.0  0.22180975183972135  0.8822021247072412  0.4275026113006246  1.0000
  H   H73       1.0  0.14798245698841567  0.7239954528790021  0.46469813599253473  1.0000
  H   H74       1.0  0.974253302240491  0.4629512538067217  0.3291328215232453  1.0000
  H   H75       1.0  0.021170886184080417  0.5523199433072179  0.22259458688921535  1.0000
  H   H76       1.0  0.13179238342156882  0.739412156093884  0.24142369241657488  1.0000
  H   H77       1.0  0.4945203977028497  0.4661687210381018  0.4438430409710675  1.0000
  H   H78       1.0  0.4093935084536183  0.38180923528722127  0.3722026283910295  1.0000
  H   H79       1.0  0.37328227211329323  0.3707195617974294  0.4602223982304777  1.0000
  H   H80       1.0  0.6137896763610513  0.31156745035899996  0.3940967574977207  1.0000
  H   H81       1.0  0.5644854176584958  0.3620280239821057  0.33676106348671897  1.0000
  H   H82       1.0  0.6327966691861134  0.4325419204899105  0.41792449482070276  1.0000
  H   H83       1.0  0.4406374228769465  0.2926287230276898  0.5402462783358004  1.0000
  H   H84       1.0  0.5422856564544247  0.2734248382905875  0.5136701655569594  1.0000
  H   H85       1.0  0.5615848899071665  0.39654249602882174  0.5338991045066448  1.0000
  H   H86       1.0  0.7765005261535691  0.7974486712416679  0.26661010016569253  1.0000
  H   H87       1.0  0.9854896157931278  0.8007887283010151  0.4205180187201876  1.0000
  H   H88       1.0  0.9319238253617215  0.1165188998302966  0.3827475247641131  1.0000
  H   H89       1.0  0.010499775416562282  0.1174902083369318  0.4526512594240514  1.0000
  H   H90       1.0  0.9481644535461413  0.2736347342303985  0.44327225357204  1.0000
  H   H91       1.0  0.21595109431307674  0.5379082629617641  0.4494077361301975  1.0000
  H   H92       1.0  0.30397288221321617  0.4494014066585024  0.39215015722735547  1.0000
  H   H93       1.0  0.20912949084388538  0.2612832868331765  0.368714731443795  1.0000
  H   H94       1.0  0.7624631907909746  0.7083767485426267  0.45816801474429514  1.0000
  H   H95       1.0  0.6804020435731744  0.7076200542697106  0.39132374766457184  1.0000
  H   H96       1.0  0.6670942659640318  0.5932135864446195  0.4113333474412215  1.0000
  H   H97       1.0  0.6874199306899695  0.645842391621734  0.2627663324363851  1.0000
  H   H98       1.0  0.786753688680875  0.6228066746082844  0.23727342624422218  1.0000
  H   H99       1.0  0.6877719467210852  0.5387720536020169  0.28418879686168447  1.0000
  H   H100      1.0  0.9113825341388946  0.6302232828222712  0.33846052144683364  1.0000
  H   H101      1.0  0.8869802759473231  0.6520154470595257  0.42788613661344493  1.0000
  H   H102      1.0  0.8002311717231263  0.5422391161565938  0.373141895092317  1.0000
  H   H103      1.0  0.0844810275339255  0.7965123924696939  0.02794157664332179  1.0000
  H   H104      1.0  0.2958951013778161  0.8053041417348014  0.1825075631672206  1.0000
  H   H105      1.0  0.4264636596690607  0.1281406138239376  0.1406006101464428  1.0000
  H   H106      1.0  0.3395870042452671  0.11782766513400132  0.0724976518320375  1.0000
  H   H107      1.0  0.42391220054132356  0.2760097095673686  0.035296959016008586  1.0000
  H   H108      1.0  0.5113070840893599  0.537082790592855  0.1708596015289032  1.0000
  H   H109      1.0  0.468883365544059  0.4477235905174338  0.2774026786428791  1.0000
  H   H110      1.0  0.3924091821710647  0.26063123831433177  0.258583352916915  1.0000
  H   H111      1.0  0.028338514124826  0.533844122671269  0.05614991149455049  1.0000
  H   H112      1.0  0.02756920904207749  0.6182047967871042  0.12779396515763605  1.0000
  H   H113      1.0  0.0025677613274552947  0.6293111506935319  0.03977459163840542  1.0000
  H   H114      1.0  0.3022112120552689  0.6884323173234604  0.10591563412625496  1.0000
  H   H115      1.0  0.2024355707370801  0.6379680140576979  0.16324689710537393  1.0000
  H   H116      1.0  0.20024319941553861  0.5674626994868036  0.08207881209558818  1.0000
  H   H117      1.0  0.1480150710633267  0.7073905484843337  0.9597641161595901  1.0000
  H   H118      1.0  0.26886243061148446  0.7265933084765024  0.9863386075513317  1.0000
  H   H119      1.0  0.1650491397063119  0.6034775436067503  0.9661034302888251  1.0000
  H   H120      1.0  0.9790813184090011  0.2025825734397841  0.23339654700223625  1.0000
  H   H121      1.0  0.18470583826985626  0.19921488754756916  0.07946956334288299  1.0000
  H   H122      1.0  0.8154143803799272  0.8835265113023569  0.11725484199346427  1.0000
  H   H123      1.0  0.893016376421144  0.8825118434748446  0.04735775576570938  1.0000
  H   H124      1.0  0.6744716495969099  0.7263818780970652  0.056832942528274075  1.0000
  H   H125      1.0  0.6779993118345969  0.46210145638031014  0.050654966319697785  1.0000
  H   H126      1.0  0.8545675700509533  0.5506239132980468  0.10785695646709569  1.0000
  H   H127      1.0  0.9478539121611789  0.7387441598196389  0.13125805985873737  1.0000
  H   H128      1.0  0.05408458044302477  0.2916465650850526  0.04183726623941199  1.0000
  H   H129      1.0  0.9727933777894151  0.2924072788300265  0.10869446949698869  1.0000
  H   H130      1.0  0.07388827165663502  0.40681161822158873  0.08867874092383939  1.0000
  H   H131      1.0  0.04161507466025669  0.3541910480599241  0.23724245891251872  1.0000
  H   H132      1.0  0.16397865598303699  0.377206254861143  0.2627213073748109  1.0000
  H   H133      1.0  0.14904649467842282  0.4612541353781978  0.21581668693780634  1.0000
  H   H134      1.0  0.28117550573779937  0.36979284403005147  0.16151881262180717  1.0000
  H   H135      1.0  0.2349694717386582  0.34799880639487657  0.07209436590085258  1.0000
  H   H136      1.0  0.25801028415750676  0.4577777059726386  0.12684333763337455  1.0000
  C   C1        1.0  0.6510122443598476  0.9385158980206398  0.6840993172689094  1.0000
  C   C2        1.0  0.7422514863497867  0.9879241390787142  0.6521265263794688  1.0000
  C   C3        1.0  0.7642825386117735  0.934330045822705  0.5966355679985326  1.0000
  C   C4        1.0  0.6928800367580904  0.8352441714621718  0.5715152156154204  1.0000
  C   C5        1.0  0.5984705867090552  0.7874518581275892  0.5997659860915474  1.0000
  C   C6        1.0  0.5802833667887768  0.8398333344335782  0.6573984312302555  1.0000
  C   C7        1.0  0.7786972321632462  0.1438302664540316  0.6290081482485943  1.0000
  C   C8        1.0  0.8511353079445173  0.25322537844613885  0.6454576132551606  1.0000
  C   C9        1.0  0.8800857370959676  0.31013666334099815  0.5901243699491657  1.0000
  C   C10       1.0  0.9749410426481616  0.45681292707919147  0.6661526813374792  1.0000
  C   C11       1.0  0.9496811415158604  0.4060936380042931  0.7245757026284706  1.0000
  C   C12       1.0  0.8880547094377463  0.3029019874938683  0.7142404102924542  1.0000
  C   C13       1.0  0.5192903074028902  0.6812321893083532  0.5684980717851643  1.0000
  C   C14       1.0  0.5632644351019491  0.6117020291762354  0.573127074719096  1.0000
  C   C15       1.0  0.42233961411132265  0.6426223832350288  0.607608290827322  1.0000
  C   C16       1.0  0.49240357475667895  0.6798671329327063  0.49038479544174146  1.0000
  C   C17       1.0  0.976833133346858  0.0591770314840829  0.611577328665085  1.0000
  C   C18       1.0  0.005133001074412396  0.007756643024613697  0.6534738413600891  1.0000
  C   C19       1.0  0.0939440660534174  0.06152846412573608  0.6983057124791185  1.0000
  C   C20       1.0  0.15531122027340416  0.16384089265889656  0.6979670374477251  1.0000
  C   C21       1.0  0.13059000213654307  0.2155968899331597  0.6541038484794157  1.0000
  C   C22       1.0  0.03915562336290177  0.1618775119711984  0.6125209413817955  1.0000
  C   C23       1.0  0.9893554487400209  0.8586247095220898  0.5994899882376713  1.0000
  C   C24       1.0  0.9274574426485955  0.7477005263522829  0.5925540621748125  1.0000
  C   C25       1.0  0.9715744034344806  0.6910895452133159  0.5658550643860849  1.0000
  C   C26       1.0  0.8226719477264909  0.5428878770835155  0.5650832486417413  1.0000
  C   C27       1.0  0.7743225802825292  0.592971775843246  0.5953706996275655  1.0000
  C   C28       1.0  0.8267484909894308  0.6968897795518529  0.6086283420269536  1.0000
  C   C29       1.0  0.2036212530579746  0.3255776207552544  0.6494139323275688  1.0000
  C   C30       1.0  0.2780863316232569  0.32917707126514273  0.593760377698203  1.0000
  C   C31       1.0  0.2635666538236379  0.38217576132486647  0.7204933133366324  1.0000
  C   C32       1.0  0.14794322752982939  0.3778470588768883  0.6261723627226914  1.0000
  C   C33       1.0  0.7124951674574972  0.0614644801636572  0.8159052666069042  1.0000
  C   C34       1.0  0.7543287447053899  0.0120615193055826  0.8478769593898151  1.0000
  C   C35       1.0  0.8299611000597338  0.0656618055003335  0.9033639285186223  1.0000
  C   C36       1.0  0.8576390493330237  0.164750853950018  0.9284774691552398  1.0000
  C   C37       1.0  0.8110213657894078  0.2125342016837735  0.9002264103053221  1.0000
  C   C38       1.0  0.7404412644651401  0.16014724582195325  0.8426021749845274  1.0000
  C   C39       1.0  0.6348860809161391  0.8561461316975636  0.8709942392319332  1.0000
  C   C40       1.0  0.5979165709263581  0.7467530479299356  0.8545369724383177  1.0000
  C   C41       1.0  0.56999316823957  0.68985591389729  0.9098753142828283  1.0000
  C   C42       1.0  0.5181257960046606  0.5431571266953268  0.8338523734661718  1.0000
  C   C43       1.0  0.5435876040354229  0.5938712003693922  0.7754277740364443  1.0000
  C   C44       1.0  0.5851351294190293  0.6970606929730748  0.785755084409729  1.0000
  C   C45       1.0  0.8380643010956278  0.3187593428392362  0.9314945882181502  1.0000
  C   C46       1.0  0.9515715825485885  0.3882827909149569  0.9268757216744135  1.0000
  C   C47       1.0  0.7797330694298451  0.357375143588321  0.8923856652916838  1.0000
  C   C48       1.0  0.8125326494255064  0.3201149730423225  0.00960419074280589  1.0000
  C   C49       1.0  0.9176628423048994  0.9408148035964742  0.8884239793862105  1.0000
  C   C50       1.0  0.9973712554644221  0.9922247643114375  0.8465177873679648  1.0000
  C   C51       1.0  0.03240127096483982  0.9384476811372265  0.801687160639524  1.0000
  C   C52       1.0  0.9914462122823621  0.8361278915214002  0.8020273805553016  1.0000
  C   C53       1.0  0.9149763746338165  0.7843858235566684  0.8458981910739211  1.0000
  C   C54       1.0  0.8772735821430473  0.8381118259843774  0.8874875769359036  1.0000
  C   C55       1.0  0.13073421411181835  0.14135013858798118  0.9004973130980573  1.0000
  C   C56       1.0  0.17977813916748178  0.2522773157639122  0.9074189447848228  1.0000
  C   C57       1.0  0.2805283170168734  0.3088896204061554  0.9340635247501935  1.0000
  C   C58       1.0  0.279807797204448  0.4570921529456625  0.9348690651503729  1.0000
  C   C59       1.0  0.18137133061847516  0.4070120542049551  0.9046072501506899  1.0000
  C   C60       1.0  0.12986158633006534  0.30308444126664824  0.8913706099734071  1.0000
  C   C61       1.0  0.8780235269369925  0.6743997083873695  0.8505900172297557  1.0000
  C   C62       1.0  0.9489016509037357  0.6707979973105155  0.9062311842542312  1.0000
  C   C63       1.0  0.8813557402664499  0.6178042087643971  0.7795053909011641  1.0000
  C   C64       1.0  0.7700814838226221  0.6221370947811663  0.8738460896462072  1.0000
  C   C65       1.0  0.3489881804743789  0.061483779490785685  0.315900558438436  1.0000
  C   C66       1.0  0.2577483719142961  0.0120770272683473  0.34787350074630297  1.0000
  C   C67       1.0  0.23571563472955148  0.06567037264944989  0.4033633362399199  1.0000
  C   C68       1.0  0.3071194492971969  0.1647562504703828  0.4284847358043748  1.0000
  C   C69       1.0  0.40152881042251204  0.21254707497263334  0.4002338139130542  1.0000
  C   C70       1.0  0.41971705804545684  0.16016634307784727  0.34260144447709  1.0000
  C   C71       1.0  0.2213023436788788  0.8561716460443523  0.3709924781802981  1.0000
  C   C72       1.0  0.14886520581343615  0.7467757878976113  0.35454241386737806  1.0000
  C   C73       1.0  0.11991318411540403  0.6898652508942077  0.4098767800768569  1.0000
  C   C74       1.0  0.025060127466765787  0.5431882409947589  0.333847869375731  1.0000
  C   C75       1.0  0.05031937396831407  0.5939075318064725  0.2754253716818766  1.0000
  C   C76       1.0  0.11194608933150349  0.6970984378990863  0.2857605883086761  1.0000
  C   C77       1.0  0.48070946193747227  0.31876748820637596  0.43150180392541415  1.0000
  C   C78       1.0  0.436734305672644  0.38829690219378676  0.4268722016948344  1.0000
  C   C79       1.0  0.5776597847464798  0.3573765533322159  0.3923925563650811  1.0000
  C   C80       1.0  0.5075954501660931  0.32013105575300926  0.5096149288568768  1.0000
  C   C81       1.0  0.02316569635144816  0.9408233887182649  0.388422099164039  1.0000
  C   C82       1.0  0.9948671396116281  0.9922437771711188  0.34652558646256887  1.0000
  C   C83       1.0  0.9060557032869382  0.9384712133890005  0.3016941632314597  1.0000
  C   C84       1.0  0.8446881759950527  0.836158038707822  0.30203223896297254  1.0000
  C   C85       1.0  0.8694091108468383  0.7844027858513768  0.34589550364049154  1.0000
  C   C86       1.0  0.9608437729055551  0.8381214193955201  0.38747833502890217  1.0000
  C   C87       1.0  0.010645718785568158  0.14137645335134147  0.400508991693833  1.0000
  C   C88       1.0  0.07254306852000511  0.2523006347909415  0.4074443941660206  1.0000
  C   C89       1.0  0.02842705082863969  0.3089108801763275  0.43414593421181275  1.0000
  C   C90       1.0  0.17732725245438266  0.457113284066331  0.4349152077055649  1.0000
  C   C91       1.0  0.22567793174918888  0.40702938703348923  0.4046282803071648  1.0000
  C   C92       1.0  0.17325202017917007  0.3031113815913713  0.3913701143138794  1.0000
  C   C93       1.0  0.7963785145561599  0.67442205329246  0.3505848961952011  1.0000
  C   C94       1.0  0.7219134377171058  0.6708226062495939  0.40623949801237547  1.0000
  C   C95       1.0  0.7364331146536074  0.6178239144563591  0.2795060387800419  1.0000
  C   C96       1.0  0.8520571964412865  0.6221526169010262  0.373826989390757  1.0000
  C   C97       1.0  0.28750488689416887  0.9385344564002763  0.18409558058226588  1.0000
  C   C98       1.0  0.24567233562270718  0.9879381582025317  0.15212291631429756  1.0000
  C   C99       1.0  0.17003969870951588  0.934338619892621  0.09663707008250808  1.0000
  C   C100      1.0  0.1423610930792448  0.8352495697127367  0.0715230058552265  1.0000
  C   C101      1.0  0.1889794321167243  0.7874662219756702  0.0997740647019043  1.0000
  C   C102      1.0  0.259558789886526  0.8398516907419803  0.15739867220464274  1.0000
  C   C103      1.0  0.3651153733469812  0.1438542936920797  0.12900675936596426  1.0000
  C   C104      1.0  0.4020848824736375  0.2532473757262039  0.14546350256567558  1.0000
  C   C105      1.0  0.4300083723579178  0.31014599512415947  0.09012426494855669  1.0000
  C   C106      1.0  0.48187331697872066  0.45684254908920247  0.16614697865374234  1.0000
  C   C107      1.0  0.4564135643532764  0.40612996423754305  0.22457172948895723  1.0000
  C   C108      1.0  0.41486735254674295  0.3029404768277715  0.21424598989091237  1.0000
  C   C109      1.0  0.16193584045352324  0.6812410790900073  0.06850536319840465  1.0000
  C   C110      1.0  0.04842818851800231  0.6117168900667947  0.07312520122396649  1.0000
  C   C111      1.0  0.22026838310704008  0.6426252783343074  0.10761428611840525  1.0000
  C   C112      1.0  0.18746646528410313  0.679884706209229  0.9903962085649096  1.0000
  C   C113      1.0  0.0823382380231976  0.05918487391164011  0.11157589631790187  1.0000
  C   C114      1.0  0.0026285130128229977  0.007774911469787998  0.15348156474870928  1.0000
  C   C115      1.0  0.9675998119525956  0.06155200157141389  0.19831428584629404  1.0000
  C   C116      1.0  0.008555241980751293  0.16387253386824344  0.19797361804259583  1.0000
  C   C117      1.0  0.08502376691533439  0.21561459837257502  0.154101760342634  1.0000
  C   C118      1.0  0.1227261871973155  0.1618878515303592  0.11251229877467489  1.0000
  C   C119      1.0  0.8692660328749678  0.8586465612587871  0.09950225977889457  1.0000
  C   C120      1.0  0.820222481754328  0.7477201319643852  0.09258175098592147  1.0000
  C   C121      1.0  0.7194707113583618  0.6911085752135975  0.06593829392404157  1.0000
  C   C122      1.0  0.7201883224577869  0.5429067801711014  0.06513073487039378  1.0000
  C   C123      1.0  0.8186233027979312  0.5929839064543004  0.09539381782786897  1.0000
  C   C124      1.0  0.870138007752196  0.6969122637839574  0.10863053368849046  1.0000
  C   C125      1.0  0.12197455920684057  0.3255992247194754  0.14940978278131212  1.0000
  C   C126      1.0  0.05109886285421781  0.32920316903323504  0.09376884286831458  1.0000
  C   C127      1.0  0.11864206259231476  0.3821954687602584  0.22049448481912037  1.0000
  C   C128      1.0  0.22991837703079904  0.3778640767664214  0.1261555082612702  1.0000
  S   S1        1.0  0.8722227257822012  0.9933086964954468  0.5479628270518828  1.0000
  S   S2        1.0  0.8789317794861234  0.006694273506937499  0.9520371065921721  1.0000
  S   S3        1.0  0.1277763872011803  0.006690979289089698  0.4520365250680313  1.0000
  S   S4        1.0  0.12107004698578536  0.9933068962972128  0.04796396771170209  1.0000
  S   S5        1.0  0.6114999195966746  0.9999828688958914  0.750008306777353  1.0000
  S   S6        1.0  0.13590211331263882  0.999980738762524  0.7499908261553258  1.0000
  S   S7        1.0  0.3884991070523256  1.532325683939967e-05  0.24999246470907363  1.0000
  S   S8        1.0  0.8640979384496816  1.8192600883500083e-05  0.2500084502521389  1.0000
  Br  Br1       1.0  0.17518926134997045  0.6404161619436478  0.5762840579232814  1.0000
  Br  Br2       1.0  0.5348686911532211  0.35964863847494405  0.9237267662848936  1.0000
  Br  Br3       1.0  0.8248125642588278  0.35958500612699856  0.4237164927866884  1.0000
  Br  Br4       1.0  0.4651328511705016  0.6403532740135206  0.07627386013430029  1.0000
  N   N1        1.0  0.9409666596356628  0.40915371371855963  0.6000602290357334  1.0000
  N   N2        1.0  0.9201668519593227  0.5916335498398125  0.5512475106744288  1.0000
  N   N3        1.0  0.5318426381445817  0.5908357901947454  0.8999447997462225  1.0000
  N   N4        1.0  0.32857251812938415  0.4083508540714362  0.9486747665747682  1.0000
  N   N5        1.0  0.05903459853987397  0.5908489414542117  0.39993994949876566  1.0000
  N   N6        1.0  0.07983291738104008  0.408366127674917  0.44875236503614957  1.0000
  N   N7        1.0  0.46815647397568944  0.4091638838562801  0.10005402877978749  1.0000
  N   N8        1.0  0.6714249142468133  0.5916480825057349  0.051326080627340766  1.0000
  O   O1        1.0  0.8063636521125728  0.0887995321822288  0.6714040345433077  1.0000
  O   O2        1.0  0.9483834192538791  0.9054085953017719  0.6485538628202503  1.0000
  O   O3        1.0  0.7175779137151321  0.9111867186483238  0.8285952031817274  1.0000
  O   O4        1.0  0.04297500963004099  0.09457062637435601  0.851434975808338  1.0000
  O   O5        1.0  0.19363620615150973  0.9112016341648258  0.32859599258247124  1.0000
  O   O6        1.0  0.051616720569043706  0.09459182316045661  0.35144504140850324  1.0000
  O   O7        1.0  0.28242213977341624  0.0888122161820988  0.17140512041354575  1.0000
  O   O8        1.0  0.9570253262804653  0.9054275623047372  0.14856474848381396  1.0000
