data_image0
_chemical_formula_structural       Zn2H30C39BrN3O8
_chemical_formula_sum              "Zn2 H30 C39 Br1 N3 O8"
_cell_length_a       10.899003783312327
_cell_length_b       12.458921432082928
_cell_length_c       13.58041351975256
_cell_angle_alpha    79.85876488008576
_cell_angle_beta     88.14142322053976
_cell_angle_gamma    76.49315630136624

_space_group_name_H-M_alt    "P 1"
_space_group_IT_number       1

loop_
  _space_group_symop_operation_xyz
  'x, y, z'

loop_
  _atom_site_type_symbol
  _atom_site_label
  _atom_site_symmetry_multiplicity
  _atom_site_fract_x
  _atom_site_fract_y
  _atom_site_fract_z
  _atom_site_occupancy
  Zn  Zn1       1.0  0.46817475719207374  0.6121990405362396  0.5106668566829811  1.0000
  Zn  Zn2       1.0  0.5348665508693884  0.38578076026880836  0.4899963102768439  1.0000
  H   H1        1.0  0.14914709160681378  0.3182362706646132  0.5266354606645862  1.0000
  H   H2        1.0  0.5496244506365642  0.8051763767979878  0.017399351360239693  1.0000
  H   H3        1.0  0.38756040084973625  0.4126355020385616  0.2525672573023244  1.0000
  H   H4        1.0  0.3115933317132971  0.7249546923546718  0.6599441652570733  1.0000
  H   H5        1.0  0.2978299672053808  0.10855291955389387  0.6866890996058714  1.0000
  H   H6        1.0  0.2650451584088884  0.9139138476827993  0.7134702719369629  1.0000
  H   H7        1.0  0.5526429069779724  0.8182144565631474  0.4383296135863191  1.0000
  H   H8        1.0  0.6808828254602163  0.27804592784741533  0.3392694604884667  1.0000
  H   H9        1.0  0.6295593992080197  0.9421403298372225  0.3569487049870403  1.0000
  H   H10       1.0  0.7266688074182851  0.09647836156072737  0.273551392162048  1.0000
  H   H11       1.0  0.4052775908046584  0.2509499165202556  0.5980778541238365  1.0000
  H   H12       1.0  0.9044023876307818  0.4326826389909542  0.643769324804019  1.0000
  H   H13       1.0  0.09831548938967671  0.5869920907929611  0.3450623372010782  1.0000
  H   H14       1.0  0.0714948358656073  0.675248571265577  0.4361840135856169  1.0000
  H   H15       1.0  0.8585884277103801  0.5794868948397252  0.6274297890691614  1.0000
  H   H16       1.0  0.07035303102538386  0.5951235025723918  0.6172806444148051  1.0000
  H   H17       1.0  0.9330808324203517  0.32812995016682583  0.5167276803311509  1.0000
  H   H18       1.0  0.9336885975516934  0.38608483100743035  0.3890950858277193  1.0000
  H   H19       1.0  0.14888051707209374  0.37809239578081827  0.3992714118115046  1.0000
  H   H20       1.0  0.8722603534969835  0.7703920378642833  0.3607799519936704  1.0000
  H   H21       1.0  0.8043001379810307  0.856588943629397  0.4907805826916416  1.0000
  H   H22       1.0  0.9273819436466084  0.7456477625443156  0.5487610312060411  1.0000
  H   H23       1.0  0.11107955128447598  0.4491728148501791  0.6598867259443394  1.0000
  H   H24       1.0  0.76611270715825  0.7346736694023547  0.5611777796487232  1.0000
  H   H25       1.0  0.43138279016254427  0.24942662415488565  0.8009577887540545  1.0000
  H   H26       1.0  0.3523110206439598  0.2834896483919849  0.1445936576605433  1.0000
  H   H27       1.0  0.3757805994877827  0.2198748096280525  0.9823916055314044  1.0000
  H   H28       1.0  0.5091959481032191  0.5644642614876503  0.8242470448801241  1.0000
  H   H29       1.0  0.529529986312582  0.7537907072697364  0.20328076386699218  1.0000
  H   H30       1.0  0.5175562719354119  0.6766380031449655  0.907805798785418  1.0000
  C   C1        1.0  0.48375991265533713  0.5680168407105269  0.3072218438010594  1.0000
  C   C2        1.0  0.4702237134717819  0.5532001641820726  0.0277514681293098  1.0000
  C   C3        1.0  0.4529598900824254  0.5267573064848676  0.1332393377665539  1.0000
  C   C4        1.0  0.7383268381337872  0.5046185454981539  0.49197309250487814  1.0000
  C   C5        1.0  0.45495185978199976  0.4739370311236755  0.9648752050225865  1.0000
  C   C6        1.0  0.4157387767098228  0.37453934034142133  0.008502540738163582  1.0000
  C   C7        1.0  0.3882410494568731  0.356911042875332  0.11296431011735557  1.0000
  C   C8        1.0  0.4072969722368144  0.4288121340750876  0.17297907410987534  1.0000
  C   C9        1.0  0.4803845356962668  0.48978606813583525  0.8617890063373251  1.0000
  C   C10       1.0  0.4359532884553373  0.31143944526949235  0.8473757283661952  1.0000
  C   C11       1.0  0.47879952708228746  0.6000314414584693  0.19546226397537939  1.0000
  C   C12       1.0  0.1216689750027982  0.4986806958328528  0.4986229505656752  1.0000
  C   C13       1.0  0.32803819080994856  0.8966587417014295  0.6512633907462586  1.0000
  C   C14       1.0  0.6401616679154856  0.2085358009163301  0.3738207815721992  1.0000
  C   C15       1.0  0.6649368339582153  0.10690352731302256  0.3375316992365427  1.0000
  C   C16       1.0  0.4991861944302727  0.43494005160532373  0.6940372986222555  1.0000
  C   C17       1.0  0.6101353133776898  0.021841224649904196  0.38388513646455635  1.0000
  C   C18       1.0  0.5291681137117051  0.038956558542011493  0.4657634992955764  1.0000
  C   C19       1.0  0.506575866110957  0.14523068289541638  0.49688695259379767  1.0000
  C   C20       1.0  0.4682749138990089  0.9547739729651284  0.519417305473354  1.0000
  C   C21       1.0  0.3852617259597649  0.9806231175496618  0.5996674898540206  1.0000
  C   C22       1.0  0.3628680706463995  0.0895072272203947  0.6259419184510051  1.0000
  C   C23       1.0  0.05994621339586808  0.514596884967723  0.6004180564005566  1.0000
  C   C24       1.0  0.42142690399777644  0.16867753641009392  0.5769400202547814  1.0000
  C   C25       1.0  0.48800132243885497  0.8460608196839273  0.4967505385901846  1.0000
  C   C26       1.0  0.35263133924610196  0.7930728541969359  0.6227283517714498  1.0000
  C   C27       1.0  0.26096618899804  0.5010468855396298  0.5022315411400271  1.0000
  C   C28       1.0  0.9106508161501878  0.6066783878847772  0.41422995746722796  1.0000
  C   C29       1.0  0.05554245155195051  0.5968290077883508  0.4181946474909353  1.0000
  C   C30       1.0  0.9196928141925227  0.5100626934297805  0.5973002613677565  1.0000
  C   C31       1.0  0.9597629312415421  0.39579772729875623  0.4637387960126489  1.0000
  C   C32       1.0  0.878668006481412  0.5071077422882482  0.4889698217341376  1.0000
  C   C33       1.0  0.835164522744904  0.7649265044304628  0.509660724075779  1.0000
  C   C34       1.0  0.1021959264430308  0.3898894467770119  0.4707394570087615  1.0000
  C   C35       1.0  0.4062468261707508  0.29526004461177274  0.947753210241146  1.0000
  C   C36       1.0  0.4724197389323166  0.41056141995709783  0.8034657300345814  1.0000
  C   C37       1.0  0.5107267236987028  0.6996508340502031  0.15355376070436222  1.0000
  C   C38       1.0  0.5229063365771937  0.727367725544795  0.049582919174625296  1.0000
  C   C39       1.0  0.5046593514675948  0.6547119203874913  0.9881296632255783  1.0000
  Br  Br1       1.0  0.8668246132109231  0.5878883404002194  0.27334040105341023  1.0000
  N   N1        1.0  0.4314251072049017  0.7691125872850295  0.5460818221004047  1.0000
  N   N2        1.0  0.564251585264614  0.22703902879079862  0.45108248513400895  1.0000
  N   N3        1.0  0.8374733924535106  0.7200283460115458  0.41692532661706144  1.0000
  O   O1        1.0  0.44193044263622017  0.6451110536451522  0.3584589514814951  1.0000
  O   O2        1.0  0.5336022742645384  0.4660020858789905  0.342355187165083  1.0000
  O   O3        1.0  0.6587024533925073  0.5967823710964666  0.491744259725948  1.0000
  O   O4        1.0  0.7128352567312035  0.4086388088250601  0.49961002054264003  1.0000
  O   O5        1.0  0.5057236922428814  0.5347510956128759  0.657935343490493  1.0000
  O   O6        1.0  0.5116949845736515  0.3551727337314075  0.6441118348678856  1.0000
  O   O7        1.0  0.28759777737427333  0.5852530640826002  0.5303590687023103  1.0000
  O   O8        1.0  0.34062186617110524  0.4190733202853282  0.47602884852844335  1.0000
