data_image0
_chemical_formula_structural       Cu5H32C40N12Cl10
_chemical_formula_sum              "Cu5 H32 C40 N12 Cl10"
_cell_length_a       10.284101103874756
_cell_length_b       10.51439579068434
_cell_length_c       11.189559930917415
_cell_angle_alpha    100.94094197394676
_cell_angle_beta     104.33246667328994
_cell_angle_gamma    90.68021741776373

_space_group_name_H-M_alt    "P 1"
_space_group_IT_number       1

loop_
  _space_group_symop_operation_xyz
  'x, y, z'

loop_
  _atom_site_type_symbol
  _atom_site_label
  _atom_site_symmetry_multiplicity
  _atom_site_fract_x
  _atom_site_fract_y
  _atom_site_fract_z
  _atom_site_occupancy
  Cu  Cu1       1.0  0.10185768966850622  0.5639027638826448  0.9252335829775048  1.0000
  Cu  Cu2       1.0  0.8980512901497236  0.43608763115499033  0.07411343017750478  1.0000
  Cu  Cu3       1.0  0.2535728504166244  0.6483505300266617  0.7561425465588059  1.0000
  Cu  Cu4       1.0  0.7465829819211862  0.3512401125831062  0.24460162058549872  1.0000
  Cu  Cu5       1.0  0.0006032903823012124  0.4998207229912241  0.49971441164707636  1.0000
  H   H1        1.0  0.6402799767227166  0.18394486235892063  0.9022516797602763  1.0000
  H   H2        1.0  0.3597572483661935  0.8160729467032866  0.09771636301722707  1.0000
  H   H3        1.0  0.4353093338660656  0.3085422750359115  0.8681680389307046  1.0000
  H   H4        1.0  0.5647674577923567  0.691608977977289  0.13189944650746102  1.0000
  H   H5        1.0  0.20804713601806676  0.19966999186823395  0.7947611265050937  1.0000
  H   H6        1.0  0.7919866561635517  0.8005314805177837  0.20520935025904669  1.0000
  H   H7        1.0  0.17451076020274311  0.9577798285307536  0.7548249882428165  1.0000
  H   H8        1.0  0.8254615561054595  0.04244939666165951  0.2450840054466781  1.0000
  H   H9        1.0  0.7834751249163008  0.8112233100760946  0.9081732378524805  1.0000
  H   H10       1.0  0.21642013626468073  0.18871776583976194  0.09170057193541228  1.0000
  H   H11       1.0  0.7917642822192691  0.9797710516558169  0.9713972888097828  1.0000
  H   H12       1.0  0.20822750874056348  0.020157875958808802  0.0285022717940038  1.0000
  H   H13       1.0  0.8194453712088008  0.8225216147685545  0.47655904922940107  1.0000
  H   H14       1.0  0.18064917274234205  0.17733866385641764  0.5233886078564822  1.0000
  H   H15       1.0  0.8977676652121431  0.05115067621354542  0.49703851020458256  1.0000
  H   H16       1.0  0.1022802754152181  0.9486895180690381  0.5028797958608919  1.0000
  H   H17       1.0  0.9361150870141374  0.20436807538216334  0.7036835036729485  1.0000
  H   H18       1.0  0.06382468607392161  0.7955641035402367  0.29618796848070167  1.0000
  H   H19       1.0  0.8682468487659634  0.13364883194120847  0.8801384015987139  1.0000
  H   H20       1.0  0.13170050820897936  0.8662764636668496  0.11974334852061465  1.0000
  H   H21       1.0  0.8545953614016853  0.6574004023357531  0.6908295149845785  1.0000
  H   H22       1.0  0.1454705885781777  0.3425385234286225  0.30915111752928937  1.0000
  H   H23       1.0  0.6934938762678513  0.6906279437305545  0.7150368446997392  1.0000
  H   H24       1.0  0.3066276754920737  0.30933910016003113  0.2851044323275005  1.0000
  H   H25       1.0  0.43192001367604155  0.4554904974095282  0.16620600802342267  1.0000
  H   H26       1.0  0.5679361259872948  0.5442493092309064  0.833905492162529  1.0000
  H   H27       1.0  0.23601965384503396  0.5780451191515185  0.20819823076489996  1.0000
  H   H28       1.0  0.7640702766998475  0.4222210032299716  0.791633152479399  1.0000
  H   H29       1.0  0.2537336914937995  0.7313084970050454  0.4079932437599041  1.0000
  H   H30       1.0  0.7463307506261219  0.2688444653204486  0.591940401482148  1.0000
  H   H31       1.0  0.4693865550871054  0.7780854219485606  0.5735458646589251  1.0000
  H   H32       1.0  0.5306646736606382  0.22200743944949153  0.426368453143418  1.0000
  C   C1        1.0  0.3906647822611617  0.9353357609789938  0.8069833010532078  1.0000
  C   C2        1.0  0.6092901097931646  0.064784564257458  0.19295011469113624  1.0000
  C   C3        1.0  0.5206826547676543  0.9989395760902584  0.8465258899371194  1.0000
  C   C4        1.0  0.4792945624494181  0.0011543177537802997  0.15342916298262568  1.0000
  C   C5        1.0  0.5406861760687819  0.13441379121846353  0.8690122285825056  1.0000
  C   C6        1.0  0.45931360151487166  0.8656856664256269  0.13097840972291414  1.0000
  C   C7        1.0  0.4253548462052167  0.20295150055009975  0.8496562254899871  1.0000
  C   C8        1.0  0.5746706434779086  0.7971980583449819  0.15039940840892285  1.0000
  C   C9        1.0  0.2947368101100238  0.14023756265301304  0.8081466268259446  1.0000
  C   C10       1.0  0.7052874731373536  0.8599404198100304  0.191862993230977  1.0000
  C   C11       1.0  0.2747498477596723  0.006193105280296202  0.7861237121835174  1.0000
  C   C12       1.0  0.7252329990101601  0.9939823447192924  0.21384126803796727  1.0000
  C   C13       1.0  0.7535332635776372  0.905466149249527  0.8857671085745052  1.0000
  C   C14       1.0  0.2464112853759062  0.0944912162731484  0.1141163006189387  1.0000
  C   C15       1.0  0.8038819549902314  0.9389414026516932  0.7785050647131371  1.0000
  C   C16       1.0  0.19609090032739124  0.0609895718871201  0.22138792910961766  1.0000
  C   C17       1.0  0.7953367650668003  0.8486904134904023  0.6657111741706813  1.0000
  C   C18       1.0  0.20462996674858408  0.15120944966255223  0.334189050968881  1.0000
  C   C19       1.0  0.8282804109135996  0.8909304517169971  0.5650646157102912  1.0000
  C   C20       1.0  0.17172313443706605  0.10894975684192333  0.4348519148727448  1.0000
  C   C21       1.0  0.8750156301295038  0.0190206037810441  0.576983871426009  1.0000
  C   C22       1.0  0.12496751857032251  0.9808694116595336  0.4229298641025423  1.0000
  C   C23       1.0  0.8944559422443209  0.10545714019436053  0.6918779857334556  1.0000
  C   C24       1.0  0.10550567011226523  0.8944709853013463  0.30801017019809507  1.0000
  C   C25       1.0  0.8568995834241593  0.06544264886949949  0.7910573454459637  1.0000
  C   C26       1.0  0.14306410016681784  0.9344864420942259  0.208830559343653  1.0000
  C   C27       1.0  0.7622621554634819  0.7061663502180195  0.657474539737656  1.0000
  C   C28       1.0  0.23775982698919765  0.2937433252422822  0.3425560916403541  1.0000
  C   C29       1.0  0.5706541865114261  0.6398483370404124  0.4611407189962051  1.0000
  C   C30       1.0  0.42927799011485496  0.3599789174546402  0.5389189800739018  1.0000
  C   C31       1.0  0.5609440891990191  0.5483248322997696  0.3485133492704123  1.0000
  C   C32       1.0  0.43889109216291916  0.45123673655967883  0.6516913166936434  1.0000
  C   C33       1.0  0.44029624987177857  0.5252120611323292  0.2533702678742884  1.0000
  C   C34       1.0  0.559616532140204  0.47456452591725923  0.7467294229881887  1.0000
  C   C35       1.0  0.3326950645097  0.5943001923500335  0.2778679490703552  1.0000
  C   C36       1.0  0.6673047004578622  0.4057420917070401  0.7220916740868617  1.0000
  C   C37       1.0  0.34274307571290313  0.6832782334586583  0.3924025920516954  1.0000
  C   C38       1.0  0.6572683674603185  0.3167894209434579  0.6075285505209962  1.0000
  C   C39       1.0  0.46188242151955455  0.7093467816142649  0.48586030550259107  1.0000
  C   C40       1.0  0.5381359043549239  0.29067410045956177  0.5140906419137892  1.0000
  N   N1        1.0  0.40683337978595807  0.8039337982466819  0.7972285946888248  1.0000
  N   N2        1.0  0.5930616111295708  0.19616478218335942  0.2026301705645679  1.0000
  N   N3        1.0  0.5355675281618276  0.7843039816930003  0.8271858909479164  1.0000
  N   N4        1.0  0.46430889693183286  0.2157588132416066  0.17265321520189048  1.0000
  N   N5        1.0  0.6059998903902797  0.8999458493214478  0.8570936169846135  1.0000
  N   N6        1.0  0.3939464844437951  0.10011056130760211  0.14280295623196793  1.0000
  N   N7        1.0  0.7000633485793345  0.6360426601910306  0.5302730090447696  1.0000
  N   N8        1.0  0.2998723276808519  0.3637017230667894  0.46983666679648906  1.0000
  N   N9        1.0  0.7661719481042724  0.5497816467713862  0.4673419426280248  1.0000
  N   N10       1.0  0.2335486855724795  0.4495501962467191  0.5330192554965123  1.0000
  N   N11       1.0  0.684647522555423  0.4960929103838793  0.35919470850750207  1.0000
  N   N12       1.0  0.3151184785781497  0.503206990874773  0.6412977599619651  1.0000
  Cl  Cl1       1.0  0.08554563300273091  0.37904075014088795  0.00126672824363541  1.0000
  Cl  Cl2       1.0  0.9144905208642061  0.6221284213236302  0.9996757760269405  1.0000
  Cl  Cl3       1.0  0.12161193033465176  0.7651684062638042  0.8834644270440959  1.0000
  Cl  Cl4       1.0  0.877298274641163  0.23456286138695498  0.11521100592849351  1.0000
  Cl  Cl5       1.0  0.3250668879582507  0.5440446627006567  0.927655710250022  1.0000
  Cl  Cl6       1.0  0.6762674170242917  0.4574524873821135  0.073586105249241  1.0000
  Cl  Cl7       1.0  0.10189906539772413  0.7059411940289523  0.5878489918405307  1.0000
  Cl  Cl8       1.0  0.898979908216518  0.2937246419394199  0.411935719474279  1.0000
  Cl  Cl9       1.0  0.9940896372701644  0.5513034149602233  0.3044572378233282  1.0000
  Cl  Cl10      1.0  0.005157012957305103  0.449013658687143  0.6958908362567087  1.0000
