data_image0
_chemical_formula_structural       Hg2H36C54Br4N4O2
_chemical_formula_sum              "Hg2 H36 C54 Br4 N4 O2"
_cell_length_a       7.172768586415852
_cell_length_b       13.08717275649163
_cell_length_c       14.3712
_cell_angle_alpha    104.71742162485454
_cell_angle_beta     105.18662968467679
_cell_angle_gamma    89.80667020685193

_space_group_name_H-M_alt    "P 1"
_space_group_IT_number       1

loop_
  _space_group_symop_operation_xyz
  'x, y, z'

loop_
  _atom_site_type_symbol
  _atom_site_label
  _atom_site_symmetry_multiplicity
  _atom_site_fract_x
  _atom_site_fract_y
  _atom_site_fract_z
  _atom_site_occupancy
  Hg  Hg1       1.0  0.1544092091971621  0.9991588961835018  0.9977233956546029  1.0000
  Hg  Hg2       1.0  0.05121444392261049  0.49936802594451984  0.9993906282534933  1.0000
  H   H1        1.0  0.2825424722882063  0.0099186285249573  0.3664340463896636  1.0000
  H   H2        1.0  0.9173599508644799  0.9900519069877802  0.6348831775175937  1.0000
  H   H3        1.0  0.1836344773511982  0.8360827384657128  0.24294892473405122  1.0000
  H   H4        1.0  0.9406293495551026  0.1634309034929089  0.7584751418853982  1.0000
  H   H5        1.0  0.0858106659011781  0.6815632388862554  0.29521167157276546  1.0000
  H   H6        1.0  0.7891743043420476  0.3181048125057302  0.7050598585440753  1.0000
  H   H7        1.0  0.07900524616159998  0.7043366506999148  0.4713618978626996  1.0000
  H   H8        1.0  0.6059921474247005  0.2959419118363158  0.5277525858726761  1.0000
  H   H9        1.0  0.16681776875784493  0.878487528084797  0.5936718780484469  1.0000
  H   H10       1.0  0.5729911952787887  0.12230573256265839  0.4051185272992796  1.0000
  H   H11       1.0  0.6109259999014682  0.9364639151766098  0.664947324798632  1.0000
  H   H12       1.0  0.9478173458804237  0.0636546950235157  0.3371803343981625  1.0000
  H   H13       1.0  0.6910279464657804  0.8303038664415112  0.7906041068761451  1.0000
  H   H14       1.0  0.9004815086665731  0.16896984701295276  0.2112771300803118  1.0000
  H   H15       1.0  0.5120259406919772  0.8575678213148094  0.9230378495260749  1.0000
  H   H16       1.0  0.585846651557766  0.14099164952992277  0.07608218091520769  1.0000
  H   H17       1.0  0.2011037121635084  0.0910025852811032  0.8190514898883376  1.0000
  H   H18       1.0  0.37972893949942227  0.908823834760497  0.1789580358064668  1.0000
  H   H19       1.0  0.6708902031915827  0.19682530879254045  0.8508960074095382  1.0000
  H   H20       1.0  0.8208939124251701  0.8033978247163274  0.15151629463587554  1.0000
  H   H21       1.0  0.733238977784609  0.2948190781105922  0.03004915551039739  1.0000
  H   H22       1.0  0.7014627877519927  0.7049139044277339  0.9721642904480203  1.0000
  H   H23       1.0  0.47986577027987204  0.410559638303745  0.0847124297010851  1.0000
  H   H24       1.0  0.3922039665488768  0.5886998219722557  0.9152538901944425  1.0000
  H   H25       1.0  0.1314692022633892  0.3494000413548051  0.7946590991033986  1.0000
  H   H26       1.0  0.33738514648544543  0.6508523903542381  0.20350966161468154  1.0000
  H   H27       1.0  0.5235537695285188  0.4212051789304069  0.738043716909331  1.0000
  H   H28       1.0  0.7854647429830023  0.578359140996092  0.26373062267328606  1.0000
  H   H29       1.0  0.4898572324944368  0.6086043856982641  0.7415272926636688  1.0000
  H   H30       1.0  0.7474885310005207  0.39108979652090875  0.26027336149436303  1.0000
  H   H31       1.0  0.1991175276995065  0.6638702933520335  0.6302281263028604  1.0000
  H   H32       1.0  0.5689880585587943  0.33659276866099214  0.36972026858064305  1.0000
  H   H33       1.0  0.9490846683293057  0.5260246370465751  0.510883958695345  1.0000
  H   H34       1.0  0.4402789244372798  0.4750932793325831  0.48757015720611463  1.0000
  H   H35       1.0  0.9855812162127862  0.3369475144361118  0.5057618605351237  1.0000
  H   H36       1.0  0.4825831228073768  0.6639494776768373  0.49271540024874827  1.0000
  C   C1        1.0  0.23212205424575671  0.1643122250279774  0.529256988263775  1.0000
  C   C2        1.0  0.7032168755177963  0.8362276457801057  0.47063142545797365  1.0000
  C   C3        1.0  0.2806964660539109  0.062398039788874385  0.5604502798955905  1.0000
  C   C4        1.0  0.7209472379629674  0.9380602711646586  0.4397252332246138  1.0000
  C   C5        1.0  0.346135266109556  0.0916431864687652  0.6623857410746012  1.0000
  C   C6        1.0  0.6846476499583147  0.908663090581143  0.3379878972960171  1.0000
  C   C7        1.0  0.3419929306167048  0.20973631295184694  0.7004907890654052  1.0000
  C   C8        1.0  0.6429242208929865  0.7905517517033616  0.29980542740209865  1.0000
  C   C9        1.0  0.2741714036950569  0.2538340634352423  0.6226329964815632  1.0000
  C   C10       1.0  0.6527576679742992  0.7464777565174003  0.37735628488120904  1.0000
  C   C11       1.0  0.2347868420698802  0.9579521653986943  0.4900006618914644  1.0000
  C   C12       1.0  0.7452737816153814  0.0424546757437128  0.5101104246647452  1.0000
  C   C13       1.0  0.23774616358097939  0.9433331553533646  0.3897303271246101  1.0000
  C   C14       1.0  0.8486606242051309  0.05674427899786139  0.611109993419916  1.0000
  C   C15       1.0  0.18298471412901307  0.845131131261077  0.32048896278489275  1.0000
  C   C16       1.0  0.8625265324630718  0.1546541129316239  0.6803962747650516  1.0000
  C   C17       1.0  0.1275059782735113  0.7584900185901802  0.3493389337561794  1.0000
  C   C18       1.0  0.7772983735495346  0.2413625322786004  0.6509168881962778  1.0000
  C   C19       1.0  0.1250315291418431  0.771248988845869  0.44853745653249166  1.0000
  C   C20       1.0  0.6756472254747834  0.2289812712522306  0.551031094371126  1.0000
  C   C21       1.0  0.17613409834565633  0.8694652661166201  0.5176126780098967  1.0000
  C   C22       1.0  0.6584889723938546  0.1310358043723099  0.4818064075895805  1.0000
  C   C23       1.0  0.39894868849548715  0.0236056390673482  0.7309815429487185  1.0000
  C   C24       1.0  0.6679456836819072  0.9764013212348032  0.2692743949934594  1.0000
  C   C25       1.0  0.5373757741589458  0.9478965479918242  0.7238651668377684  1.0000
  C   C26       1.0  0.8139664589414012  0.051932247579515  0.2773410853171754  1.0000
  C   C27       1.0  0.5810408746009514  0.8878692868875859  0.7932453863768316  1.0000
  C   C28       1.0  0.7873565219900912  0.1115049906593768  0.20764395275788414  1.0000
  C   C29       1.0  0.4829562377990655  0.9027171396316047  0.8671108091084604  1.0000
  C   C30       1.0  0.6139575585793224  0.09626596735083127  0.13234996747931396  1.0000
  C   C31       1.0  0.3092147752191323  0.03346487934870619  0.80848234856456  1.0000
  C   C32       1.0  0.4991556275946252  0.9661627880376358  0.1904028318965273  1.0000
  C   C33       1.0  0.39447043170356727  0.2644946490836162  0.8068888189653051  1.0000
  C   C34       1.0  0.5885907537086652  0.7356912677925891  0.1934166523609591  1.0000
  C   C35       1.0  0.5645541385802204  0.24903707703861494  0.8755354723239535  1.0000
  C   C36       1.0  0.6894327389595034  0.7510007651502093  0.1258964846027553  1.0000
  C   C37       1.0  0.5991341843932361  0.3029069650460841  0.9761265148811233  1.0000
  C   C38       1.0  0.6219715306497448  0.696777715054111  0.025222767256103368  1.0000
  C   C39       1.0  0.4610043872744427  0.368220571674243  0.006560948041574506  1.0000
  C   C40       1.0  0.45276888536451304  0.6312297228245355  0.9935331082799477  1.0000
  C   C41       1.0  0.26547921470038466  0.3337065000218828  0.8445455041540553  1.0000
  C   C42       1.0  0.4212105327364668  0.6663210482047148  0.15453943205443468  1.0000
  C   C43       1.0  0.2549864888877096  0.3650302352278842  0.6228604653269372  1.0000
  C   C44       1.0  0.6332680956109087  0.635310091081692  0.37715561591864594  1.0000
  C   C45       1.0  0.3959182086324375  0.44353515852515807  0.6888644637762269  1.0000
  C   C46       1.0  0.7073956346043531  0.5564084543171504  0.31216328319828074  1.0000
  C   C47       1.0  0.3765812442039618  0.5498844577965372  0.6908586121237192  1.0000
  C   C48       1.0  0.6856156958500462  0.4501494251760434  0.31016504217283364  1.0000
  C   C49       1.0  0.2151964273368492  0.5803244959377309  0.6275503663506256  1.0000
  C   C50       1.0  0.587994005410586  0.42007680230194205  0.37246269387277653  1.0000
  C   C51       1.0  0.0754592271690768  0.5033121971630123  0.5607243922131387  1.0000
  C   C52       1.0  0.5161839159010029  0.4974517652842607  0.43838386925747835  1.0000
  C   C53       1.0  0.0955218133163029  0.3964877919428034  0.5575983832765983  1.0000
  C   C54       1.0  0.5398096659823892  0.6041977780229146  0.44153701917502264  1.0000
  Br  Br1       1.0  0.05129335869710871  0.180727135559863  0.9880257958332592  1.0000
  Br  Br2       1.0  0.0574818501821923  0.8192006404174776  0.008719239154700579  1.0000
  Br  Br3       1.0  0.8893117451508985  0.5283067292874222  0.8313111889689324  1.0000
  Br  Br4       1.0  0.05747436612826111  0.47236221197008627  0.16722650042895273  1.0000
  N   N1        1.0  0.3480211302013885  0.973732017645659  0.873382928906494  1.0000
  N   N2        1.0  0.4724648860737872  0.025332649191327092  0.1251253481176988  1.0000
  N   N3        1.0  0.2971908079343208  0.3824800848849605  0.9412583633733931  1.0000
  N   N4        1.0  0.35503398579962214  0.6170969045335042  0.05780097180313247  1.0000
  O   O1        1.0  0.1680692664629433  0.1727263513816624  0.4437769896702122  1.0000
  O   O2        1.0  0.7234886005089933  0.828169848888038  0.5558873515270903  1.0000
