data_image0
_chemical_formula_structural       Cu2H24C20N14
_chemical_formula_sum              "Cu2 H24 C20 N14"
_cell_length_a       6.138368389106125
_cell_length_b       8.11896718222483
_cell_length_c       11.77808005394061
_cell_angle_alpha    110.14947739672635
_cell_angle_beta     89.9996976513027
_cell_angle_gamma    89.99954974294313

_space_group_name_H-M_alt    "P 1"
_space_group_IT_number       1

loop_
  _space_group_symop_operation_xyz
  'x, y, z'

loop_
  _atom_site_type_symbol
  _atom_site_label
  _atom_site_symmetry_multiplicity
  _atom_site_fract_x
  _atom_site_fract_y
  _atom_site_fract_z
  _atom_site_occupancy
  Cu  Cu1       1.0  0.24999672418097418  0.08489326074855089  0.16905417137854073  1.0000
  Cu  Cu2       1.0  0.7499884492572588  0.9151069924039914  0.8309424033564385  1.0000
  H   H1        1.0  0.8959372694810028  0.2853758978648172  0.5700719021951884  1.0000
  H   H2        1.0  0.3959495765794969  0.7146181640886196  0.42993306456442343  1.0000
  H   H3        1.0  0.1040625658330043  0.7146180218177347  0.4299308895396551  1.0000
  H   H4        1.0  0.604050258728833  0.28537451895270033  0.5700719963667282  1.0000
  H   H5        1.0  0.7499972863154126  0.1841705928177717  0.1477145766824606  1.0000
  H   H6        1.0  0.24999440338905285  0.8158468130856632  0.8522892559406758  1.0000
  H   H7        1.0  0.2499934044093095  0.03597584831790358  0.8522423100729598  1.0000
  H   H8        1.0  0.7499999144017336  0.9640415075114884  0.14775981289727005  1.0000
  H   H9        1.0  0.9444574494916153  0.41021498536145623  0.3027413690836838  1.0000
  H   H10       1.0  0.4444649541612051  0.5897932171723138  0.6972708922173824  1.0000
  H   H11       1.0  0.05566697655298469  0.1068528527111212  0.6971110309567339  1.0000
  H   H12       1.0  0.5556725749804556  0.8931490075132302  0.30288474583755237  1.0000
  H   H13       1.0  0.055532611127262  0.5897947503660246  0.6972675304756636  1.0000
  H   H14       1.0  0.5555251064635769  0.4102126834637118  0.30274054080815926  1.0000
  H   H15       1.0  0.9443328587376313  0.8931513356045568  0.3028864295758353  1.0000
  H   H16       1.0  0.44432888942831267  0.10685253227818235  0.6971112693119964  1.0000
  H   H17       1.0  0.0887411126684725  0.35831005476681804  0.41830877199578254  1.0000
  H   H18       1.0  0.588754455238238  0.6416918488122503  0.5816979623247961  1.0000
  H   H19       1.0  0.9112425764815839  0.9394703912542465  0.5816297241770911  1.0000
  H   H20       1.0  0.4112370897277842  0.06052596347039699  0.4183689227743345  1.0000
  H   H21       1.0  0.9112473189117409  0.6416930221239878  0.5816952318825699  1.0000
  H   H22       1.0  0.4112437509484579  0.35830476946166095  0.41830798444215844  1.0000
  H   H23       1.0  0.08876051697633609  0.060533947248828185  0.4183728652950975  1.0000
  H   H24       1.0  0.5887611165324741  0.9394651825340429  0.5816281494624108  1.0000
  C   C1        1.0  0.2500101561562644  0.5029941353744716  0.005227893625132662  1.0000
  C   C2        1.0  0.750012486591224  0.49700067038237694  0.994760661316292  1.0000
  C   C3        1.0  0.25000231490903957  0.3803768161381455  0.06409674985494009  1.0000
  C   C4        1.0  0.7500040369877964  0.6196008369094907  0.9358845472212566  1.0000
  C   C5        1.0  0.7500022942658617  0.31552395310414727  0.9359824293823991  1.0000
  C   C6        1.0  0.25000242832154373  0.6844802101571402  0.06401417631416707  1.0000
  C   C7        1.0  0.25002709812766005  0.43936952768295584  0.878179647354209  1.0000
  C   C8        1.0  0.7500248683615068  0.5606278763990813  0.12180864324853499  1.0000
  C   C9        1.0  0.9439867487477399  0.32850450505618056  0.360055860714411  1.0000
  C   C10       1.0  0.44398914932668276  0.6715023647379467  0.6399552527051499  1.0000
  C   C11       1.0  0.05601486775628929  0.9678405248844795  0.6398584333178122  1.0000
  C   C12       1.0  0.5560154210737878  0.032158809045078784  0.36014017059962805  1.0000
  C   C13       1.0  0.056008199200242394  0.6714999586493773  0.6399510028996076  1.0000
  C   C14       1.0  0.5559960240128845  0.3285009625022467  0.3600572994262876  1.0000
  C   C15       1.0  0.9439735639298092  0.032151832769322694  0.3601355149210193  1.0000
  C   C16       1.0  0.4439827851369103  0.9678389457358701  0.6398600876728509  1.0000
  C   C17       1.0  0.7499901369957199  0.25647111267984707  0.5122651625957602  1.0000
  C   C18       1.0  0.25000155283935044  0.7435214952955601  0.4877373338808653  1.0000
  C   C19       1.0  0.749997390859697  0.10291725763043758  0.20533238120196984  1.0000
  C   C20       1.0  0.24999592806686616  0.8970791854294684  0.7946675818046459  1.0000
  N   N1        1.0  0.25000431526645167  0.2650777521252862  0.1031225324875251  1.0000
  N   N2        1.0  0.7499987783835991  0.7349090580958728  0.8968599767130742  1.0000
  N   N3        1.0  0.7499967502656374  0.16122940139393888  0.8970365503729241  1.0000
  N   N4        1.0  0.24999331044910628  0.8387633317561547  0.10297022023024732  1.0000
  N   N5        1.0  0.2500214025166159  0.3860267589017423  0.7718117890744269  1.0000
  N   N6        1.0  0.7500338220878785  0.6139799525273303  0.22818284258468682  1.0000
  N   N7        1.0  0.951123545426107  0.1406471424998159  0.2807863538437445  1.0000
  N   N8        1.0  0.45112324593864633  0.8593594411429634  0.719217032677392  1.0000
  N   N9        1.0  0.0488714025216481  0.8593623929384221  0.7192157071077788  1.0000
  N   N10       1.0  0.5488717020195965  0.1406462341702763  0.2807867069157837  1.0000
  N   N11       1.0  0.7499932260009031  0.3689895414129365  0.43715809368300285  1.0000
  N   N12       1.0  0.24999846378568685  0.6310109370137623  0.5628461744575902  1.0000
  N   N13       1.0  0.2500018553821802  0.9311364039782074  0.5627334807145132  1.0000
  N   N14       1.0  0.7500012381207241  0.06886135078190848  0.4372667775464977  1.0000
