data_image0
_chemical_formula_structural       Cs2B2H48C32N8O12
_chemical_formula_sum              "Cs2 B2 H48 C32 N8 O12"
_cell_length_a       10.129349507943973
_cell_length_b       10.417890885143976
_cell_length_c       10.417884674640113
_cell_angle_alpha    97.2084760307436
_cell_angle_beta     91.52462779738246
_cell_angle_gamma    91.52466284716567

_space_group_name_H-M_alt    "P 1"
_space_group_IT_number       1

loop_
  _space_group_symop_operation_xyz
  'x, y, z'

loop_
  _atom_site_type_symbol
  _atom_site_label
  _atom_site_symmetry_multiplicity
  _atom_site_fract_x
  _atom_site_fract_y
  _atom_site_fract_z
  _atom_site_occupancy
  Cs  Cs1       1.0  0.7499988641850448  0.2436732394633125  0.7563272253042541  1.0000
  Cs  Cs2       1.0  0.2500003016614015  0.756326484797256  0.24367369518091658  1.0000
  B   B1        1.0  0.7499998588551263  0.968952448231562  0.03104821486486029  1.0000
  B   B2        1.0  0.24999927826830498  0.031046308066535702  0.9689525784945162  1.0000
  H   H1        1.0  0.633068289912515  0.640339839606696  0.7983659740290463  1.0000
  H   H2        1.0  0.8669326704687845  0.20163430469551707  0.3596602978397669  1.0000
  H   H3        1.0  0.36693285010172616  0.3596598918053289  0.20163403621002374  1.0000
  H   H4        1.0  0.13306847060208324  0.7983654217536295  0.6403406716783238  1.0000
  H   H5        1.0  0.5365975129934596  0.6474213222011754  0.9403681741989588  1.0000
  H   H6        1.0  0.9634022352279314  0.05963200690571568  0.35257898863149956  1.0000
  H   H7        1.0  0.4634016794627484  0.3525793799476204  0.05963095485396509  1.0000
  H   H8        1.0  0.03659791823072571  0.9403677184491387  0.647421956370124  1.0000
  H   H9        1.0  0.432868259271906  0.4285813428144039  0.849111751808003  1.0000
  H   H10       1.0  0.06713197059623607  0.15088783623777147  0.5714188457145752  1.0000
  H   H11       1.0  0.5671319218531394  0.5714193554658065  0.1508883610404013  1.0000
  H   H12       1.0  0.9328681828624212  0.8491118891170827  0.4285820992870555  1.0000
  H   H13       1.0  0.3935172247870752  0.5616786139246628  0.7638754756859356  1.0000
  H   H14       1.0  0.10648376436792965  0.23612459987126036  0.4383216317667333  1.0000
  H   H15       1.0  0.6064829563379702  0.4383220843555477  0.2361246371624688  1.0000
  H   H16       1.0  0.8935163880341007  0.7638751304464788  0.5616783539558696  1.0000
  H   H17       1.0  0.34988162686811813  0.42108730722070203  0.5680131443082459  1.0000
  H   H18       1.0  0.15011872145813496  0.43198655227271104  0.578912791063523  1.0000
  H   H19       1.0  0.6501195131461229  0.5789124241913298  0.4319868659308241  1.0000
  H   H20       1.0  0.8498804156653035  0.5680122040253863  0.4210880022958534  1.0000
  H   H21       1.0  0.3791007987195341  0.2869085604505273  0.6561726701122339  1.0000
  H   H22       1.0  0.12089924185325168  0.34382771360675685  0.7130927118674606  1.0000
  H   H23       1.0  0.6209003700177219  0.7130921389239686  0.3438274672526304  1.0000
  H   H24       1.0  0.8790999239931947  0.6561720106538118  0.2869082086177031  1.0000
  H   H25       1.0  0.39986126019126533  0.24535561237193085  0.41195098045390915  1.0000
  H   H26       1.0  0.10013933034158379  0.5880491103897965  0.7546441794198202  1.0000
  H   H27       1.0  0.6001398787663561  0.7546441240029722  0.5880480705061402  1.0000
  H   H28       1.0  0.8998598897810193  0.4119525646843413  0.2453541174798772  1.0000
  H   H29       1.0  0.5407188032832622  0.35369273188406675  0.42708908075215385  1.0000
  H   H30       1.0  0.9592805110844507  0.5729106895015404  0.6463078426988034  1.0000
  H   H31       1.0  0.45928038917295305  0.6463079702647291  0.5729100483007697  1.0000
  H   H32       1.0  0.04071865264874928  0.42708904468478437  0.3536911592283333  1.0000
  H   H33       1.0  0.6554062069757973  0.17721937050664135  0.33304107977324543  1.0000
  H   H34       1.0  0.8445948197381198  0.6669590555190438  0.8227811720237453  1.0000
  H   H35       1.0  0.3445949330384437  0.8227803609053836  0.6669589304658246  1.0000
  H   H36       1.0  0.15540536244354536  0.33304163779828133  0.1772199001036725  1.0000
  H   H37       1.0  0.5310696895562116  0.0545902948389525  0.341035867795661  1.0000
  H   H38       1.0  0.9689310433833214  0.6589639179944411  0.9454103789703368  1.0000
  H   H39       1.0  0.4689314206783947  0.9454084735734793  0.6589630560385942  1.0000
  H   H40       1.0  0.031069110075328896  0.34103580736042005  0.05459056603129399  1.0000
  H   H41       1.0  0.8291745000957602  0.49416519349352217  0.04127266461325967  1.0000
  H   H42       1.0  0.6708264823840793  0.9587273504381525  0.5058347274962571  1.0000
  H   H43       1.0  0.17082666758486906  0.5058355108438517  0.9587265134725841  1.0000
  H   H44       1.0  0.329173671074578  0.041272374916708494  0.49416621750536643  1.0000
  H   H45       1.0  0.758016785817112  0.6495287928121057  0.04735247927829526  1.0000
  H   H46       1.0  0.7419834017151671  0.9526484167397483  0.350472219530765  1.0000
  H   H47       1.0  0.24198339530793325  0.3504719054681047  0.952647633570109  1.0000
  H   H48       1.0  0.25801678152311774  0.04735227161469877  0.6495298118756736  1.0000
  C   C1        1.0  0.7459085873985954  0.9300507977185432  0.878769490662428  1.0000
  C   C2        1.0  0.754091891595429  0.12123091718012087  0.06995006315694499  1.0000
  C   C3        1.0  0.25409060611423934  0.0699498994673746  0.12123059766951631  1.0000
  C   C4        1.0  0.24590727425101724  0.8787688070804476  0.9300508573282187  1.0000
  C   C5        1.0  0.6226560376152079  0.9079045352261443  0.08839364652025947  1.0000
  C   C6        1.0  0.8773442776799525  0.9116058379457141  0.09209567548948873  1.0000
  C   C7        1.0  0.3773421395624083  0.0920951929030096  0.9116062901694306  1.0000
  C   C8        1.0  0.12265485733023945  0.08839292827813948  0.9079031993118463  1.0000
  C   C9        1.0  0.5816390147412845  0.5813547674685678  0.8636031778732162  1.0000
  C   C10       1.0  0.9183618056860465  0.13639673672775388  0.4186454907472381  1.0000
  C   C11       1.0  0.41836116638376075  0.4186459308116426  0.13639693497518826  1.0000
  C   C12       1.0  0.0816383477726106  0.8636029886271073  0.5813554542543855  1.0000
  C   C13       1.0  0.4742013046117677  0.4987853767519041  0.7887919674163443  1.0000
  C   C14       1.0  0.0257993778584762  0.21120869602099654  0.5012158960588451  1.0000
  C   C15       1.0  0.5257988775699045  0.5012153165654211  0.21120910471107376  1.0000
  C   C16       1.0  0.9742007756001809  0.7887910293338647  0.4987850489427855  1.0000
  C   C17       1.0  0.4264075028463237  0.3563120031048043  0.5981332826213688  1.0000
  C   C18       1.0  0.07359279552427717  0.40186669143167103  0.6436883474963011  1.0000
  C   C19       1.0  0.5735926484990868  0.6436877321758133  0.4018657438222206  1.0000
  C   C20       1.0  0.9264073281547451  0.5981320709235973  0.3563115111005146  1.0000
  C   C21       1.0  0.482448488800692  0.28544415530259926  0.4777691470421033  1.0000
  C   C22       1.0  0.017551942287369098  0.5222306286396686  0.7145554542487389  1.0000
  C   C23       1.0  0.5175516923243534  0.7145565429776113  0.522230965806294  1.0000
  C   C24       1.0  0.9824482090580415  0.4777691066409488  0.2854435721948576  1.0000
  C   C25       1.0  0.6124878393691232  0.1106842352221733  0.3965577376006948  1.0000
  C   C26       1.0  0.8875132676845466  0.6034424719776864  0.8893153535312166  1.0000
  C   C27       1.0  0.38751231303290706  0.8893154950955658  0.6034422481219153  1.0000
  C   C28       1.0  0.11248691344049887  0.3965582263025168  0.11068475931718778  1.0000
  C   C29       1.0  0.7859329664359435  0.563261063592094  0.9819605869236697  1.0000
  C   C30       1.0  0.7140678358434938  0.018039094542693597  0.4367388549426039  1.0000
  C   C31       1.0  0.21406619835388338  0.43673866563135283  0.018039374282480494  1.0000
  C   C32       1.0  0.2859333052273669  0.9819606319064533  0.5632621145754797  1.0000
  N   N1        1.0  0.7417873416756818  0.8970911700199973  0.7674753518884357  1.0000
  N   N2        1.0  0.7582123588769105  0.23252438488184166  0.10290843097369869  1.0000
  N   N3        1.0  0.25821182311413776  0.10290855920344907  0.2325246093177142  1.0000
  N   N4        1.0  0.24178779352511973  0.7674753454358906  0.8970915547489113  1.0000
  N   N5        1.0  0.5305145663355475  0.8612655406527451  0.1312671209429084  1.0000
  N   N6        1.0  0.9694857172573633  0.8687328281855923  0.13873516981460904  1.0000
  N   N7        1.0  0.4694856435125059  0.13873612558992926  0.8687331190312834  1.0000
  N   N8        1.0  0.030514405365039493  0.13126593913255385  0.861263729503186  1.0000
  O   O1        1.0  0.6710870829591328  0.49805660522213907  0.9193892205639287  1.0000
  O   O2        1.0  0.8289134295839486  0.08061183757997978  0.5019441225315546  1.0000
  O   O3        1.0  0.3289130992225324  0.5019440880951862  0.08061185156348928  1.0000
  O   O4        1.0  0.1710867525977235  0.9193888557373524  0.4980569495958633  1.0000
  O   O5        1.0  0.5271547026006472  0.4314136768539711  0.6739523430564488  1.0000
  O   O6        1.0  0.9728452514018355  0.32604705124734307  0.568586836875376  1.0000
  O   O7        1.0  0.47284547852439823  0.5685870214262393  0.3260477697919483  1.0000
  O   O8        1.0  0.027154902056821594  0.6739526741075181  0.4314141081262477  1.0000
  O   O9        1.0  0.5637097555570064  0.18359076677188568  0.5102708217281275  1.0000
  O   O10       1.0  0.936290814002433  0.4897284657212068  0.8164104027407292  1.0000
  O   O11       1.0  0.4362904255680319  0.8164099315083247  0.4897292911202696  1.0000
  O   O12       1.0  0.06370835078739387  0.5102712635022397  0.18358955846542097  1.0000
