data_image0
_chemical_formula_structural       Al2H12C48O12F12
_chemical_formula_sum              "Al2 H12 C48 O12 F12"
_cell_length_a       3.9842240765427523
_cell_length_b       29.098453475670762
_cell_length_c       29.09870652675513
_cell_angle_alpha    119.99830694311704
_cell_angle_beta     89.99817426897388
_cell_angle_gamma    90.00081259756364

_space_group_name_H-M_alt    "P 1"
_space_group_IT_number       1

loop_
  _space_group_symop_operation_xyz
  'x, y, z'

loop_
  _atom_site_type_symbol
  _atom_site_label
  _atom_site_symmetry_multiplicity
  _atom_site_fract_x
  _atom_site_fract_y
  _atom_site_fract_z
  _atom_site_occupancy
  Al  Al1       1.0  4.442120022219998e-05  0.4999990274904603  0.5000028746073042  1.0000
  Al  Al2       1.0  0.9995497713153154  0.16666184915901255  0.8333441016031672  1.0000
  H   H1        1.0  0.4982873571927796  0.2148128307554202  0.6358562869327004  1.0000
  H   H2        1.0  0.5013577823348001  0.3641565424776161  0.7851896023443034  1.0000
  H   H3        1.0  0.5013235876134843  0.30249608999645256  0.548138805584891  1.0000
  H   H4        1.0  0.49864885209542104  0.4518497114554164  0.6974931542326743  1.0000
  H   H5        1.0  0.4982561816972008  0.9210124582945484  0.7851665799606806  1.0000
  H   H6        1.0  0.5013752126158124  0.9210321361770893  0.6358340747044691  1.0000
  H   H7        1.0  0.5013317738448818  0.7456294580693736  0.6974918455892973  1.0000
  H   H8        1.0  0.4986378803124439  0.745633013983337  0.548137675473349  1.0000
  H   H9        1.0  0.49829732487446415  0.36416740236276013  0.07896781415506376  1.0000
  H   H10       1.0  0.5013970036736026  0.21483476990035646  0.07899258212693638  1.0000
  H   H11       1.0  0.5013039644789926  0.4518755202659507  0.2543715616213547  1.0000
  H   H12       1.0  0.4986333871246559  0.3025178554640817  0.2543705162328322  1.0000
  C   C1        1.0  0.5000459711679568  0.4593612933922272  0.4187138450794521  1.0000
  C   C2        1.0  0.5000272378623193  0.4593484560363165  0.5406432282150391  1.0000
  C   C3        1.0  0.5000409512466035  0.5812869687659088  0.5406467500977783  1.0000
  C   C4        1.0  0.49955691589444473  0.20732560405630082  0.7927022488252929  1.0000
  C   C5        1.0  0.4995582630647064  0.08535962377533925  0.7926760214287328  1.0000
  C   C6        1.0  0.49955826006806336  0.20730653404405058  0.9146440501148732  1.0000
  C   C7        1.0  0.4996370506552452  0.23696907003401438  0.7630537998183726  1.0000
  C   C8        1.0  0.49348769818132615  0.21077448300054152  0.7074962449432575  1.0000
  C   C9        1.0  0.4970186521288298  0.2372424093629918  0.6790115585618467  1.0000
  C   C10       1.0  0.4997993286599113  0.29317940365848455  0.7068279482631539  1.0000
  C   C11       1.0  0.5024950997022798  0.3210045096018205  0.7627687962409979  1.0000
  C   C12       1.0  0.5058439034387305  0.29252914327818036  0.7892408806763741  1.0000
  C   C13       1.0  0.4998967736758217  0.32123589125111324  0.6787671372933487  1.0000
  C   C14       1.0  0.499945900991733  0.3454291703969047  0.6545625947547435  1.0000
  C   C15       1.0  0.4999805982748597  0.3734854984641488  0.6265040053516914  1.0000
  C   C16       1.0  0.5026459712460322  0.34565703278898496  0.5705637543200623  1.0000
  C   C17       1.0  0.5060186761592789  0.3741484574598033  0.5441065231169588  1.0000
  C   C18       1.0  0.5000224009087901  0.4297044377005148  0.5702839818378109  1.0000
  C   C19       1.0  0.4939987426998371  0.45588423160177866  0.6258398652615397  1.0000
  C   C20       1.0  0.4973298523118999  0.429428254042449  0.6543325172694949  1.0000
  C   C21       1.0  0.49961631810982254  0.026068061607539172  0.7630284918196679  1.0000
  C   C22       1.0  0.4934380485263361  0.9966971494443513  0.7892170204223916  1.0000
  C   C23       1.0  0.4969746868160526  0.9417459250168817  0.7627427308692774  1.0000
  C   C24       1.0  0.4998031883406214  0.9136315737910577  0.7068058816779441  1.0000
  C   C25       1.0  0.502498355106745  0.9417554545918349  0.6789862676520002  1.0000
  C   C26       1.0  0.5058436337969354  0.9967026020333735  0.7074687695278711  1.0000
  C   C27       1.0  0.4999239733117093  0.8575166058864312  0.6787468304982198  1.0000
  C   C28       1.0  0.49996941757119373  0.8091205753077872  0.6545574607542831  1.0000
  C   C29       1.0  0.4999898061659636  0.7530087391641089  0.626503525664134  1.0000
  C   C30       1.0  0.5026557831340029  0.7248954185320642  0.654332497719345  1.0000
  C   C31       1.0  0.5060269949159422  0.6699482064150927  0.6258431705947628  1.0000
  C   C32       1.0  0.5000506639624119  0.6405706269349949  0.5702863756073171  1.0000
  C   C33       1.0  0.4940112614396455  0.669948079208133  0.5441060594678717  1.0000
  C   C34       1.0  0.4973366888144639  0.7248966778587514  0.5705630258525645  1.0000
  C   C35       1.0  0.49967608113850304  0.23696517077417664  0.9739342987936368  1.0000
  C   C36       1.0  0.4935108049470002  0.2925253123139768  0.003295192253361236  1.0000
  C   C37       1.0  0.4970324777938799  0.3210104370958718  0.05824406720375917  1.0000
  C   C38       1.0  0.49984401046405225  0.2931971774485902  0.08637230453731348  1.0000
  C   C39       1.0  0.5025525165233659  0.2372555654546034  0.058256046811656866  1.0000
  C   C40       1.0  0.5058955190349864  0.2107805792701924  0.003310138511324089  1.0000
  C   C41       1.0  0.4999093997177653  0.3212544569400039  0.1424858065227212  1.0000
  C   C42       1.0  0.4999453424893118  0.3454528575140259  0.1908813200778567  1.0000
  C   C43       1.0  0.49996806351043693  0.37350570842107805  0.24699237772644275  1.0000
  C   C44       1.0  0.5026207022942228  0.4294471496277481  0.275103294328474  1.0000
  C   C45       1.0  0.506006738017085  0.45590387413284356  0.3300495773126285  1.0000
  C   C46       1.0  0.5000235266955001  0.42972522503671223  0.3594298945758823  1.0000
  C   C47       1.0  0.49400527496414537  0.3741697004016658  0.33005608794553604  1.0000
  C   C48       1.0  0.49732307645441415  0.34567913940971096  0.2751085080576842  1.0000
  O   O1        1.0  0.7363330910009794  0.55837258568652  0.550773697752895  1.0000
  O   O2        1.0  0.7363470401715234  0.492399552220732  0.44162757850340734  1.0000
  O   O3        1.0  0.7363273909238687  0.44922443733538836  0.5076036480541504  1.0000
  O   O4        1.0  0.2637515740212065  0.5583756117934867  0.5076090400877717  1.0000
  O   O5        1.0  0.26373082374037443  0.4923885222763005  0.550771283135731  1.0000
  O   O6        1.0  0.26375596939810453  0.44923289688766493  0.4416277277595598  1.0000
  O   O7        1.0  0.735763247853136  0.1742591133095742  0.8917094181241438  1.0000
  O   O8        1.0  0.7357552864912692  0.2174317368361685  0.8257475239769505  1.0000
  O   O9        1.0  0.7358048056634344  0.10829734258405901  0.7825705932308297  1.0000
  O   O10       1.0  0.26331459877568614  0.21742269802688688  0.8917181638063029  1.0000
  O   O11       1.0  0.2633466048279516  0.10828429909557238  0.8257229133760972  1.0000
  O   O12       1.0  0.2633221746991907  0.1742800004657212  0.7825843616134094  1.0000
  F   F1        1.0  0.4937314926576946  0.15701206814780014  0.6802806039842367  1.0000
  F   F2        1.0  0.5056007970299135  0.319744153487349  0.843001402700935  1.0000
  F   F3        1.0  0.5057221544338971  0.3469324695727494  0.49034423093601737  1.0000
  F   F4        1.0  0.49430461572700307  0.509646235223812  0.6530586652360242  1.0000
  F   F5        1.0  0.4936286035237459  0.023233081619053828  0.8429765842360056  1.0000
  F   F6        1.0  0.5055864944223102  0.023256247009982196  0.6802582444020686  1.0000
  F   F7        1.0  0.5057289292631068  0.6434008696910423  0.6530615337906838  1.0000
  F   F8        1.0  0.494322169417643  0.6434041526636063  0.4903432035057377  1.0000
  F   F9        1.0  0.4937390320007821  0.3197365613677833  0.9767436115420837  1.0000
  F   F10       1.0  0.5056477771615777  0.15701929396371372  0.9767711219215017  1.0000
  F   F11       1.0  0.5057027809757315  0.5096679107882238  0.35659898219297054  1.0000
  F   F12       1.0  0.4943297062283137  0.3469463620217396  0.3565964679283056  1.0000
