data_image0
_chemical_formula_structural       La3H6C12N9O15
_chemical_formula_sum              "La3 H6 C12 N9 O15"
_cell_length_a       8.783461653882986
_cell_length_b       8.783517126004053
_cell_length_c       10.165759287756396
_cell_angle_alpha    90.00517863470169
_cell_angle_beta     89.99477370872481
_cell_angle_gamma    119.99853355536064

_space_group_name_H-M_alt    "P 1"
_space_group_IT_number       1

loop_
  _space_group_symop_operation_xyz
  'x, y, z'

loop_
  _atom_site_type_symbol
  _atom_site_label
  _atom_site_symmetry_multiplicity
  _atom_site_fract_x
  _atom_site_fract_y
  _atom_site_fract_z
  _atom_site_occupancy
  La  La1       1.0  0.7798510461607364  1.8703065762539918e-06  0.166687539396321  1.0000
  La  La2       1.0  1.0594354051937094e-06  0.7798481124710647  0.8333172083766344  1.0000
  La  La3       1.0  0.2201153105038003  0.22011627861387234  0.4999980000435046  1.0000
  H   H1        1.0  0.9142042427874487  0.28044841634479656  0.3753682678911546  1.0000
  H   H2        1.0  0.7193290974281579  0.6335228779018676  0.0419480114060278  1.0000
  H   H3        1.0  0.3662168190078816  0.08574943061238116  0.7085891364724476  1.0000
  H   H4        1.0  0.633515124748655  0.7193233811394106  0.95805360761635  1.0000
  H   H5        1.0  0.08576783687736617  0.36622265081845734  0.29140390831223334  1.0000
  H   H6        1.0  0.28043255252210747  0.9141845086455618  0.6246284815274308  1.0000
  C   C1        1.0  0.5216947216800703  0.6125596133085903  0.3352641579934854  1.0000
  C   C2        1.0  0.38755978713709294  0.9092822838577063  0.0018461582479361001  1.0000
  C   C3        1.0  0.09080748126211079  0.47824441687495045  0.6685260396859507  1.0000
  C   C4        1.0  0.909288016649235  0.38755727611567165  0.99816334730329  1.0000
  C   C5        1.0  0.4782478881886405  0.09079788566877758  0.33147582199497805  1.0000
  C   C6        1.0  0.6125547605299532  0.521698084683045  0.6647335943368518  1.0000
  C   C7        1.0  0.6635974234552862  0.6996248543781999  0.4359952077477801  1.0000
  C   C8        1.0  0.3004727458691576  0.9641198914222708  0.10258109141843624  1.0000
  C   C9        1.0  0.036051862254019795  0.33642919787440917  0.7693404795046135  1.0000
  C   C10       1.0  0.9641392618593655  0.30048137892647725  0.8974274403448135  1.0000
  C   C11       1.0  0.33642498478433674  0.03603541046257419  0.23066537799558523  1.0000
  C   C12       1.0  0.6996152938313858  0.6636095758064188  0.5640093599144436  1.0000
  N   N1        1.0  0.8019444117922205  0.8578526529353209  0.40099020030466204  1.0000
  N   N2        1.0  0.1422285357746274  0.9442193365151677  0.0676034652383137  1.0000
  N   N3        1.0  0.05588097276122275  0.19804494797699582  0.7343186597890466  1.0000
  N   N4        1.0  0.9442468311568034  0.14224209973914267  0.9324100401566754  1.0000
  N   N5        1.0  0.19803866181712243  0.05585768896969506  0.2656911690960798  1.0000
  N   N6        1.0  0.8578409985635106  0.8019611093805492  0.5990191940477417  1.0000
  N   N7        1.0  0.9162497191416819  0.9162701046450932  0.500005654313668  1.0000
  N   N8        1.0  0.08376056764657139  1.7837564492107574e-05  0.16666007638550442  1.0000
  N   N9        1.0  5.2103351073589476e-05  0.08377460882225307  0.833356691026687  1.0000
  O   O1        1.0  0.5440391534970603  0.6964095306565525  0.22852884946905058  1.0000
  O   O2        1.0  0.3037581306435156  0.8477998202118253  0.8950926883946623  1.0000
  O   O3        1.0  0.15217162401984302  0.4557917001083139  0.561760404907986  1.0000
  O   O4        1.0  0.8477895452322884  0.30375336911908574  0.10490210737762601  1.0000
  O   O5        1.0  0.45580536929470133  0.15219835462545456  0.4382355435560328  1.0000
  O   O6        1.0  0.6964140707496399  0.5440291131716676  0.7714669016141047  1.0000
  O   O7        1.0  0.999963020427572  0.2557444904177473  0.3333601431137438  1.0000
  O   O8        1.0  0.7439919979714418  0.7439941230925695  7.528759695999991e-07  1.0000
  O   O9        1.0  0.2557392207504348  0.9999562519702179  0.6666287178913778  1.0000
  O   O10       1.0  0.388588515349042  0.46243622697643616  0.3568438160192002  1.0000
  O   O11       1.0  0.5376632026307462  0.9262917972491562  0.023503788408511604  1.0000
  O   O12       1.0  0.07382742007846593  0.6113957176714492  0.6900787972119957  1.0000
  O   O13       1.0  0.9263033678995569  0.5376737130691465  0.9765007470875418  1.0000
  O   O14       1.0  0.6113895827285559  0.07382481949388615  0.3099269638485894  1.0000
  O   O15       1.0  0.4624290268540748  0.38859861183535555  0.6431559919599936  1.0000
