data_image0
_chemical_formula_structural       Zn2H32C40N4O8
_chemical_formula_sum              "Zn2 H32 C40 N4 O8"
_cell_length_a       7.405279846575694
_cell_length_b       9.326505713412132
_cell_length_c       13.76860226586655
_cell_angle_alpha    88.79928160924895
_cell_angle_beta     87.07358532254317
_cell_angle_gamma    66.52643743973654

_space_group_name_H-M_alt    "P 1"
_space_group_IT_number       1

loop_
  _space_group_symop_operation_xyz
  'x, y, z'

loop_
  _atom_site_type_symbol
  _atom_site_label
  _atom_site_symmetry_multiplicity
  _atom_site_fract_x
  _atom_site_fract_y
  _atom_site_fract_z
  _atom_site_occupancy
  Zn  Zn1       1.0  0.055998525303472525  0.2651243160417209  0.0912782114548207  1.0000
  Zn  Zn2       1.0  0.32025291590132815  0.7349719687271871  0.590249988202423  1.0000
  H   H1        1.0  0.003450801380246626  0.9835536106607209  0.8986424977924727  1.0000
  H   H2        1.0  0.9865984562745426  0.017301230807099395  0.3983932428650121  1.0000
  H   H3        1.0  0.36556133374482874  0.018890367825648  0.7760797797233039  1.0000
  H   H4        1.0  0.3854032825239173  0.9797777627063695  0.2759623793118493  1.0000
  H   H5        1.0  0.9115977323213472  0.847787440409725  0.10470892443814958  1.0000
  H   H6        1.0  0.759165848842663  0.1524067719953095  0.6052619428884185  1.0000
  H   H7        1.0  0.6974780259924173  0.0890247752629847  0.005061363723662302  1.0000
  H   H8        1.0  0.7871599624725789  0.9112905013335107  0.5050454783612395  1.0000
  H   H9        1.0  0.6716772742074395  0.9133975381188506  0.669394296652797  1.0000
  H   H10       1.0  0.5846475274295457  0.08616148879980301  0.16914180783705038  1.0000
  H   H11       1.0  0.20197753208579167  0.823200959175665  0.1960754517643934  1.0000
  H   H12       1.0  0.024504055144873912  0.17723658545286713  0.6967943315082438  1.0000
  H   H13       1.0  0.5640526078101901  0.4286066768280746  0.2877121865571225  1.0000
  H   H14       1.0  0.9908364990967726  0.5717806123503805  0.7878475032594849  1.0000
  H   H15       1.0  0.44744172878733945  0.6264141828778946  0.3308095084125212  1.0000
  H   H16       1.0  0.07215179205704211  0.3740208485106037  0.8311849472837238  1.0000
  H   H17       1.0  0.5856412884870963  0.5851770452614389  0.2191126355315873  1.0000
  H   H18       1.0  0.16955314263454827  0.4149665117813939  0.7195486444188718  1.0000
  H   H19       1.0  0.35336593034325164  0.3273072312492075  0.2154445461977232  1.0000
  H   H20       1.0  0.6784429285211859  0.6732254725177781  0.7151024120788919  1.0000
  H   H21       1.0  0.7026732875574382  0.32119147675658877  0.9653799714042391  1.0000
  H   H22       1.0  0.02275901780474506  0.6785489620281664  0.4643063401550691  1.0000
  H   H23       1.0  0.6265296057475355  0.8469981703418057  0.0617439353417097  1.0000
  H   H24       1.0  0.4740289627199986  0.15305757535368508  0.5617250136115999  1.0000
  H   H25       1.0  0.3611918127140897  0.8184558690865984  0.9712108513608226  1.0000
  H   H26       1.0  0.18005185103180574  0.18134754359573435  0.4713164136523318  1.0000
  H   H27       1.0  0.23128230390394589  0.6522291369640455  0.8903372438755353  1.0000
  H   H28       1.0  0.8831059547411468  0.34737461323709345  0.3903983169811127  1.0000
  H   H29       1.0  0.2885688684785491  0.4724271513443767  0.9557356091271458  1.0000
  H   H30       1.0  0.7601934324528373  0.5273617285518597  0.4554699755144043  1.0000
  H   H31       1.0  0.40885042275067457  0.47455343416498846  0.841933534444884  1.0000
  H   H32       1.0  0.8824521600810016  0.5248615733977218  0.3415669702463759  1.0000
  C   C1        1.0  0.5120038623353481  0.062390461639587606  0.8964926214115323  1.0000
  C   C2        1.0  0.5752446132522665  0.9370909818259033  0.39640403987191764  1.0000
  C   C3        1.0  0.857208688807134  0.9396236924526705  0.7781107439114548  1.0000
  C   C4        1.0  0.7962963338043635  0.06063924133514578  0.2778799593598791  1.0000
  C   C5        1.0  0.8642298480021819  0.9891458312383039  0.8727640013127456  1.0000
  C   C6        1.0  0.8531223013894761  0.0113170563979494  0.3725842384068301  1.0000
  C   C7        1.0  0.5050399288228107  0.013089178221022697  0.801791941401703  1.0000
  C   C8        1.0  0.5187082286063643  0.9861781294244878  0.301651568773913  1.0000
  C   C9        1.0  0.009200824086484333  0.7338408230608167  0.1313078875892586  1.0000
  C   C10       1.0  0.7424866409166955  0.266416502806983  0.6315921192599345  1.0000
  C   C11       1.0  0.32748900658442187  0.12754556057949165  0.9595569253278312  1.0000
  C   C12       1.0  0.4562358108817222  0.8718471519922916  0.4595553740806152  1.0000
  C   C13       1.0  0.6922905601770353  0.05021098923937469  0.9314847680063706  1.0000
  C   C14       1.0  0.7429237133189656  0.949900208183685  0.4314157661916127  1.0000
  C   C15       1.0  0.04164545304197286  0.8725786664624308  0.7152108319839455  1.0000
  C   C16       1.0  0.9132165176398032  0.12764074506215198  0.2147356313539959  1.0000
  C   C17       1.0  0.6767958853447811  0.952363106682895  0.7429277586633489  1.0000
  C   C18       1.0  0.628995883189319  0.04736009454127551  0.24271869046771138  1.0000
  C   C19       1.0  0.8085576377081409  0.5984486663885419  0.05939844037600751  1.0000
  C   C20       1.0  0.40659162915792274  0.40164333511201994  0.5589858646831587  1.0000
  C   C21       1.0  0.9753198531461253  0.5996141292466106  0.11357409545092167  1.0000
  C   C22       1.0  0.5741929103786064  0.4006369233227786  0.6133669651963771  1.0000
  C   C23       1.0  0.17339231213438927  0.7196815189435668  0.18194715237331144  1.0000
  C   C24       1.0  0.8922015662352224  0.28070485015089724  0.6823480379895769  1.0000
  C   C25       1.0  0.3038609754216992  0.5728299742660568  0.21404469207958945  1.0000
  C   C26       1.0  0.8752845670777704  0.4276353877720566  0.7142002264072146  1.0000
  C   C27       1.0  0.4850818140626245  0.5508869759456444  0.2662552902248407  1.0000
  C   C28       1.0  0.03441285036480227  0.44948802707547486  0.7665575847489166  1.0000
  C   C29       1.0  0.2585462997709628  0.44524596042619174  0.19314942530900228  1.0000
  C   C30       1.0  0.7021476717355952  0.5552054117507056  0.6929623212334164  1.0000
  C   C31       1.0  0.5081698136659014  0.5674416309732847  0.9600303339959098  1.0000
  C   C32       1.0  0.0751220754436659  0.4323349372892764  0.45969995206482384  1.0000
  C   C33       1.0  0.6798733257739756  0.4403311205663129  0.9843885856441972  1.0000
  C   C34       1.0  0.11944248127358045  0.5595193213097359  0.48364498222510116  1.0000
  C   C35       1.0  0.6420787539210766  0.7318704096676852  0.038118124251674566  1.0000
  C   C36       1.0  0.3740680316156003  0.2681419686971651  0.5379296967684581  1.0000
  C   C37       1.0  0.4923423926239536  0.7155481332911223  0.9880497684973761  1.0000
  C   C38       1.0  0.2079198168452834  0.28432260643939594  0.4879235670230244  1.0000
  C   C39       1.0  0.34972134754304574  0.5412752249382818  0.9093787812770202  1.0000
  C   C40       1.0  0.8903357534864257  0.45836715902652964  0.40918072469735023  1.0000
  N   N1        1.0  0.10051639529618218  0.45832387595579865  0.1448012033871748  1.0000
  N   N2        1.0  0.557530880982064  0.5420204883289587  0.6443876400396178  1.0000
  N   N3        1.0  0.823620177571989  0.4553670086234903  0.03235502299387599  1.0000
  N   N4        1.0  0.27827425259075506  0.5446403634435555  0.5315613396348979  1.0000
  O   O1        1.0  0.02493235288662986  0.8598974018639965  0.6229508659290913  1.0000
  O   O2        1.0  0.8840338294123243  0.1400614228613932  0.1225376861892755  1.0000
  O   O3        1.0  0.34521770417559583  0.14504943763419928  0.05134873882662559  1.0000
  O   O4        1.0  0.4908885898556647  0.8547361048673635  0.5513774709113123  1.0000
  O   O5        1.0  0.20900837665553973  0.8275375375024651  0.7514457708530528  1.0000
  O   O6        1.0  0.03546271690479591  0.1729229756281967  0.2508385956774433  1.0000
  O   O7        1.0  0.16081375338224296  0.16569697404109007  0.9241169316672709  1.0000
  O   O8        1.0  0.32804208001104496  0.8333481137381042  0.424077389056869  1.0000
