data_image0
_chemical_formula_structural       Na4H28C32O32
_chemical_formula_sum              "Na4 H28 C32 O32"
_cell_length_a       5.350375585479132
_cell_length_b       12.459932550870182
_cell_length_c       13.643681176334422
_cell_angle_alpha    89.99953610823518
_cell_angle_beta     89.9993851435048
_cell_angle_gamma    91.32423245816472

_space_group_name_H-M_alt    "P 1"
_space_group_IT_number       1

loop_
  _space_group_symop_operation_xyz
  'x, y, z'

loop_
  _atom_site_type_symbol
  _atom_site_label
  _atom_site_symmetry_multiplicity
  _atom_site_fract_x
  _atom_site_fract_y
  _atom_site_fract_z
  _atom_site_occupancy
  Na  Na1       1.0  0.7348765981298515  0.05371086748542812  0.2741215726472959  1.0000
  Na  Na2       1.0  0.7651144321553576  0.44628238365537953  0.7741097312142244  1.0000
  Na  Na3       1.0  0.2651329238346706  0.9462887310391964  0.7258901839864649  1.0000
  Na  Na4       1.0  0.23488349887863796  0.5537099863915034  0.22588883254932315  1.0000
  H   H1        1.0  0.21246348391844802  0.9640950524524007  0.330536509405178  1.0000
  H   H2        1.0  0.28753503553277693  0.5359051270038009  0.8305232696738258  1.0000
  H   H3        1.0  0.7875499019050738  0.03590695563076451  0.6694649860515227  1.0000
  H   H4        1.0  0.7124724084633414  0.4640904571363081  0.1694606352582753  1.0000
  H   H5        1.0  0.67456433855142  0.23279895959246497  0.6747108541504688  1.0000
  H   H6        1.0  0.8254315669788781  0.2671967923043823  0.17471120129268775  1.0000
  H   H7        1.0  0.3254263256340978  0.7671974221038411  0.3252833119722709  1.0000
  H   H8        1.0  0.17456852611768886  0.732801197812677  0.8252902942055158  1.0000
  H   H9        1.0  0.8149526914436437  0.540368647711482  0.35963096210696227  1.0000
  H   H10       1.0  0.6850631242907996  0.9596360264958013  0.8596310651085375  1.0000
  H   H11       1.0  0.18503805644817115  0.45962933955174634  0.6403646698896068  1.0000
  H   H12       1.0  0.31497522904733444  0.04037883364430432  0.1403748278903834  1.0000
  H   H13       1.0  0.13003411698715442  0.2625136552635752  0.3029668421716849  1.0000
  H   H14       1.0  0.3699608442991434  0.2374842199280637  0.8029671499526644  1.0000
  H   H15       1.0  0.8699640233880148  0.7374827287237055  0.6970302556962906  1.0000
  H   H16       1.0  0.6300265421762177  0.7625209912408483  0.1970336126035619  1.0000
  H   H17       1.0  0.5500402580177521  0.1822310643090575  0.43368103315399514  1.0000
  H   H18       1.0  0.9499329559176813  0.31775994400651103  0.9336752886870343  1.0000
  H   H19       1.0  0.44994114446461  0.8177669200376843  0.5663226612014043  1.0000
  H   H20       1.0  0.050052268452006415  0.6822396470790226  0.06632547389462931  1.0000
  H   H21       1.0  0.0575142707925593  0.24853246578123844  0.5276065594307013  1.0000
  H   H22       1.0  0.4424780740494115  0.25147751755505254  0.0276036284927628  1.0000
  H   H23       1.0  0.942465472005111  0.7514695319397549  0.47239347021276507  1.0000
  H   H24       1.0  0.5575266362628852  0.7485373322228813  0.972400798692931  1.0000
  H   H25       1.0  0.3764226513056884  0.4286395513368151  0.4369456984022123  1.0000
  H   H26       1.0  0.12358506684339694  0.07135471487357142  0.9369555638948699  1.0000
  H   H27       1.0  0.623553185984548  0.5713592341048327  0.5630499336209525  1.0000
  H   H28       1.0  0.8764561454686657  0.9286432878966412  0.06305032916180411  1.0000
  C   C1        1.0  0.29716693809149325  0.28450718944984044  0.3461116750808842  1.0000
  C   C2        1.0  0.20283801088896072  0.21549110367304544  0.8461172094936914  1.0000
  C   C3        1.0  0.7028274222818284  0.7154883905920004  0.6538868886776683  1.0000
  C   C4        1.0  0.7971603805620263  0.784510097001821  0.15388721775590142  1.0000
  C   C5        1.0  0.3505027581905367  0.19735246636977175  0.42535004308161467  1.0000
  C   C6        1.0  0.14947169989330433  0.3026426966797616  0.9253456051981744  1.0000
  C   C7        1.0  0.6494746969096854  0.8026415029075625  0.5746499865966044  1.0000
  C   C8        1.0  0.8505249062273423  0.6973601089925838  0.07465882204892443  1.0000
  C   C9        1.0  0.24698900449386946  0.2737603370478894  0.503925529191477  1.0000
  C   C10       1.0  0.25300876460141813  0.2262330026178106  0.0039220744736284  1.0000
  C   C11       1.0  0.7529941833726996  0.726236042317858  0.4960745004662925  1.0000
  C   C12       1.0  0.7470061972758943  0.7737633865472662  0.9960764892409844  1.0000
  C   C13       1.0  0.2306061242216658  0.36612037881521803  0.4284814987556659  1.0000
  C   C14       1.0  0.2693964031329586  0.13387717301339566  0.9284859172393995  1.0000
  C   C15       1.0  0.7693770636664541  0.6338760005571233  0.5715170650220572  1.0000
  C   C16       1.0  0.7306375004451555  0.8661240386128882  0.0715170440596111  1.0000
  C   C17       1.0  0.5018724282884435  0.3133781455064054  0.27359040950398855  1.0000
  C   C18       1.0  0.99808111089596  0.18661269054539534  0.7735759325870859  1.0000
  C   C19       1.0  0.498103115781923  0.6866150203751432  0.7264169495812851  1.0000
  C   C20       1.0  0.0019097625337706984  0.8133877050616222  0.22642336410029884  1.0000
  C   C21       1.0  0.20075492682169488  0.09696770741134496  0.403590461693952  1.0000
  C   C22       1.0  0.2992056372009131  0.4030356747386677  0.9035832079947357  1.0000
  C   C23       1.0  0.7992284703645043  0.9030326858882067  0.5964095679482995  1.0000
  C   C24       1.0  0.7007799220478647  0.5969703386310673  0.09641975338217182  1.0000
  C   C25       1.0  0.4070337880432576  0.2927788075813711  0.5932353476765615  1.0000
  C   C26       1.0  0.09295977938669611  0.20721934726520896  0.09323047261423063  1.0000
  C   C27       1.0  0.5929643941311938  0.7072183791728864  0.40676614782845644  1.0000
  C   C28       1.0  0.9070422666036537  0.7927802490344009  0.9067636934738132  1.0000
  C   C29       1.0  0.9785569593917671  0.4163910436031274  0.4193671816446312  1.0000
  C   C30       1.0  0.5214581713701564  0.08360733127025814  0.9193649004127595  1.0000
  C   C31       1.0  0.021433620968927907  0.5836037324899767  0.5806335809445217  1.0000
  C   C32       1.0  0.47859326550458564  0.9164075329417336  0.08063219727989691  1.0000
  O   O1        1.0  0.6585979926814647  0.24061736042821025  0.2529463834955195  1.0000
  O   O2        1.0  0.8414305387544802  0.25936645930380564  0.7529473728170687  1.0000
  O   O3        1.0  0.3414053780713929  0.7593718001997589  0.7470521802693073  1.0000
  O   O4        1.0  0.15856199439225094  0.740629922938858  0.247053389762165  1.0000
  O   O5        1.0  0.5002729624228763  0.4056293871983174  0.23489669584508022  1.0000
  O   O6        1.0  0.9997383718496167  0.09437305327713832  0.7349048948607333  1.0000
  O   O7        1.0  0.4997441615062357  0.5943726220336389  0.7651055325442117  1.0000
  O   O8        1.0  0.00026728655758750236  0.9056241357812953  0.2650966006294412  1.0000
  O   O9        1.0  0.3332805638150731  0.021158663162580606  0.3592300219147476  1.0000
  O   O10       1.0  0.16670867052484087  0.4788322822947678  0.8592168602946587  1.0000
  O   O11       1.0  0.6667176602340774  0.9788393263817384  0.6407707406471417  1.0000
  O   O12       1.0  0.8332929569663109  0.5211592861801081  0.1407677776041183  1.0000
  O   O13       1.0  0.9726198607155967  0.08968194433817442  0.4158070671862859  1.0000
  O   O14       1.0  0.5273543811035921  0.41031885828667924  0.9157993720359203  1.0000
  O   O15       1.0  0.027372379265138105  0.9103088183608894  0.5842017577549328  1.0000
  O   O16       1.0  0.4726310526072768  0.5896847467392591  0.08419992465017861  1.0000
  O   O17       1.0  0.39647510137329806  0.37582548780447667  0.6449197877776954  1.0000
  O   O18       1.0  0.10354166275728015  0.12418023719788353  0.14492795567503694  1.0000
  O   O19       1.0  0.6035099136552091  0.624170089340659  0.3550824406995404  1.0000
  O   O20       1.0  0.8964737177054262  0.8758241798183096  0.855074272708663  1.0000
  O   O21       1.0  0.5543988545017698  0.21389299786751087  0.6140325251566452  1.0000
  O   O22       1.0  0.9455915261701477  0.2861065089552143  0.1140329859137381  1.0000
  O   O23       1.0  0.44559936960124713  0.7861049916932998  0.3859645727051273  1.0000
  O   O24       1.0  0.05441459268637771  0.7138995107410935  0.8859721742424044  1.0000
  O   O25       1.0  0.9779536092127759  0.49809666556262044  0.3554376477445302  1.0000
  O   O26       1.0  0.5220641545738262  0.0019167348063078011  0.8554374448142144  1.0000
  O   O27       1.0  0.022031573389952507  0.5019021227658416  0.6445565183800356  1.0000
  O   O28       1.0  0.47798379531422347  0.9981029449576656  0.14456331756736063  1.0000
  O   O29       1.0  0.7923503389397555  0.386601915664727  0.4653083440095572  1.0000
  O   O30       1.0  0.7076466195194514  0.11339604053150514  0.9653146276355288  1.0000
  O   O31       1.0  0.20762911093972042  0.6133944625885094  0.5346828903753575  1.0000
  O   O32       1.0  0.2923718022883435  0.8866308551197196  0.0346810041973384  1.0000
