data_image0
_chemical_formula_structural       Zn8H96C120O26
_chemical_formula_sum              "Zn8 H96 C120 O26"
_cell_length_a       28.15218335836423
_cell_length_b       28.153039390013873
_cell_length_c       28.151237067127838
_cell_angle_alpha    120.00193519421501
_cell_angle_beta     90.00247271705224
_cell_angle_gamma    59.99624659618829

_space_group_name_H-M_alt    "P 1"
_space_group_IT_number       1

loop_
  _space_group_symop_operation_xyz
  'x, y, z'

loop_
  _atom_site_type_symbol
  _atom_site_label
  _atom_site_symmetry_multiplicity
  _atom_site_fract_x
  _atom_site_fract_y
  _atom_site_fract_z
  _atom_site_occupancy
  Zn  Zn1       1.0  0.5284438849563102  0.05697930859913203  0.028495114773754406  1.0000
  Zn  Zn2       1.0  0.5285094176577231  0.9430627410480524  0.9145383155046434  1.0000
  Zn  Zn3       1.0  0.4145683198294989  0.05693492594731709  0.028431911833216507  1.0000
  Zn  Zn4       1.0  0.5284452710426921  0.9430710991822123  0.02846083000287071  1.0000
  Zn  Zn5       1.0  0.9714586042203945  0.9431022080982242  0.47158330202812243  1.0000
  Zn  Zn6       1.0  0.08540594033959065  0.9430231251916652  0.47148397083950755  1.0000
  Zn  Zn7       1.0  0.9714934195640834  0.0569639995185797  0.5854127333827037  1.0000
  Zn  Zn8       1.0  0.9714804781724523  0.05695783640897639  0.47151191132719805  1.0000
  H   H1        1.0  0.8678474104502527  0.0761127760194355  0.3680367275691977  1.0000
  H   H2        1.0  0.8679053997932296  0.9238555556872182  0.36798284246272317  1.0000
  H   H3        1.0  0.6320607040240702  0.076053326020073  0.13202272622714864  1.0000
  H   H4        1.0  0.6319866429257813  0.9239083687376137  0.13205755812973047  1.0000
  H   H5        1.0  0.20809374615598128  0.9238469557830411  0.5559411423506048  1.0000
  H   H6        1.0  0.05588558428539857  0.07615144485725975  0.7081636312890396  1.0000
  H   H7        1.0  0.4440861404486254  0.9239131090920689  0.7917490825473336  1.0000
  H   H8        1.0  0.2919137863971668  0.0760904413531873  0.9440068149138057  1.0000
  H   H9        1.0  0.20800996918259057  0.7359027820487966  0.36803924626162393  1.0000
  H   H10       1.0  0.055781078022647375  0.7359431200266685  0.3681215075733848  1.0000
  H   H11       1.0  0.44397417885044627  0.26412510187908106  0.13215975133736174  1.0000
  H   H12       1.0  0.29180033631943997  0.2640617005773507  0.13206120887928557  1.0000
  H   H13       1.0  0.8679540463419428  0.26410099229297407  0.5559598105640832  1.0000
  H   H14       1.0  0.8679033773650104  0.2640940983231911  0.7081666714716234  1.0000
  H   H15       1.0  0.6320140802742528  0.7358896785846979  0.7918218088544863  1.0000
  H   H16       1.0  0.6320409926665603  0.7359555925726009  0.944066531599347  1.0000
  H   H17       1.0  0.8680032411532325  0.07616022118033759  0.708240998074146  1.0000
  H   H18       1.0  0.8679231678078452  0.9240051141792731  0.5560560287233257  1.0000
  H   H19       1.0  0.6319993156158997  0.0762678103976241  0.9441959738442804  1.0000
  H   H20       1.0  0.632102460656057  0.9239876499760694  0.7919435849448531  1.0000
  H   H21       1.0  0.20811852120297644  0.9240458481950499  0.3680509707977181  1.0000
  H   H22       1.0  0.055888894432769065  0.07620450380255751  0.3680080174914266  1.0000
  H   H23       1.0  0.4440086236652261  0.9239126895721698  0.13200734166593261  1.0000
  H   H24       1.0  0.2917972062933316  0.07618394707883873  0.13206304633818183  1.0000
  H   H25       1.0  0.7766315117157276  0.9194446509874582  0.33961531484835217  1.0000
  H   H26       1.0  0.7740119226567472  0.9128149530386834  0.2736607578099638  1.0000
  H   H27       1.0  0.8396827711133737  0.8564856115379623  0.27692185831052996  1.0000
  H   H28       1.0  0.8395884945707833  0.0804280803327869  0.2766856820515499  1.0000
  H   H29       1.0  0.7736327590856431  0.08706993666586285  0.27404722340698845  1.0000
  H   H30       1.0  0.7768734286470504  0.14341659708720278  0.3397232015846256  1.0000
  H   H31       1.0  0.7232811714518306  0.8565373815008143  0.16037982156711175  1.0000
  H   H32       1.0  0.7259122031272583  0.9132187263018422  0.2263379417327441  1.0000
  H   H33       1.0  0.660234500312981  0.91932095928901  0.2230772236527941  1.0000
  H   H34       1.0  0.6603498872113962  0.1434161873191328  0.22335818200178173  1.0000
  H   H35       1.0  0.7263011271778765  0.08672410379266886  0.22599039264891016  1.0000
  H   H36       1.0  0.7230606971330075  0.08065037213110307  0.16031957954081827  1.0000
  H   H37       1.0  0.07984432060450088  0.08057500363473458  0.8038627652587564  1.0000
  H   H38       1.0  0.13917197536473933  0.08719579804854026  0.8130958468724997  1.0000
  H   H39       1.0  0.07957802738361841  0.14351847650309676  0.803751283702269  1.0000
  H   H40       1.0  0.30374806936607956  0.9195243055131211  0.5798607805092715  1.0000
  H   H41       1.0  0.31304965104002486  0.9128906316125337  0.6391774553145595  1.0000
  H   H42       1.0  0.30370096634377547  0.8565520605558061  0.5796039788777209  1.0000
  H   H43       1.0  0.19620761287069383  0.14348157698604766  0.9200916021168197  1.0000
  H   H44       1.0  0.1869238018015833  0.08679636600157888  0.8607914526806796  1.0000
  H   H45       1.0  0.19628501393479758  0.08072106525894901  0.9203845232617313  1.0000
  H   H46       1.0  0.4201026666011386  0.8565599585242366  0.6961153614148685  1.0000
  H   H47       1.0  0.360773302241128  0.9132463249073054  0.6868550212232877  1.0000
  H   H48       1.0  0.4203699259796635  0.9193140719439937  0.6961576820463621  1.0000
  H   H49       1.0  0.07973089555594719  0.6163204251942959  0.2768049413051585  1.0000
  H   H50       1.0  0.13905387869192506  0.5477234580608865  0.27416170847941873  1.0000
  H   H51       1.0  0.07946129423064005  0.6166377995622412  0.3398339423240699  1.0000
  H   H52       1.0  0.30368736663347556  0.6162705356269385  0.33973331906940984  1.0000
  H   H53       1.0  0.31294331301482  0.5476976334972503  0.27377626820635464  1.0000
  H   H54       1.0  0.30359732359525554  0.6166312865903193  0.2770408701971616  1.0000
  H   H55       1.0  0.1961123456255152  0.38365894933441774  0.22341279074388604  1.0000
  H   H56       1.0  0.18680610663038527  0.45226292180026206  0.22606145351849694  1.0000
  H   H57       1.0  0.19616932519399902  0.3833259707483023  0.1603776019831216  1.0000
  H   H58       1.0  0.4199917766140969  0.38376647043441636  0.16052286866243992  1.0000
  H   H59       1.0  0.3606540446181937  0.452333795458628  0.2264741722087962  1.0000
  H   H60       1.0  0.420251127012925  0.3834231049531808  0.223224681065922  1.0000
  H   H61       1.0  0.8396516348456728  0.3837166781367284  0.803840595644793  1.0000
  H   H62       1.0  0.7736911769136012  0.4523058679111143  0.8131190334072187  1.0000
  H   H63       1.0  0.7769456025644671  0.38338827232971023  0.8037976263363048  1.0000
  H   H64       1.0  0.7767018312259422  0.3837070542577407  0.5798938169451091  1.0000
  H   H65       1.0  0.7740617189348739  0.4522969713957603  0.6392188324574802  1.0000
  H   H66       1.0  0.839745951759596  0.3833587623520672  0.5796423959940499  1.0000
  H   H67       1.0  0.6603291077533127  0.6163429576376201  0.920138748645421  1.0000
  H   H68       1.0  0.726292576043896  0.5477471425092941  0.8608272657182213  1.0000
  H   H69       1.0  0.7230293599460963  0.6166816889952  0.9204173390817089  1.0000
  H   H70       1.0  0.7233059182582053  0.6162580364308279  0.6961573122446936  1.0000
  H   H71       1.0  0.7259386163884258  0.5476843400882384  0.6869127298001416  1.0000
  H   H72       1.0  0.6602640523341988  0.6165999170650025  0.6962388048673561  1.0000
  H   H73       1.0  0.8396148337533871  0.8566574463729708  0.5800350225022657  1.0000
  H   H74       1.0  0.7736626341846815  0.913372668695189  0.6393638694902893  1.0000
  H   H75       1.0  0.7769113764016138  0.919432658438964  0.5797605186996079  1.0000
  H   H76       1.0  0.7767046006162628  0.1435483700896113  0.8039275916969332  1.0000
  H   H77       1.0  0.7740596735011067  0.08689119329952869  0.8132255781550413  1.0000
  H   H78       1.0  0.839740101154547  0.08078267447373094  0.8038639841574095  1.0000
  H   H79       1.0  0.6604283817382706  0.9196436496511564  0.6962720086649553  1.0000
  H   H80       1.0  0.7263721341407601  0.9130296861698283  0.6870495797199038  1.0000
  H   H81       1.0  0.7231351188711769  0.8566652501042209  0.6963435966100208  1.0000
  H   H82       1.0  0.723319378789206  0.08063597512376233  0.9202624141259578  1.0000
  H   H83       1.0  0.7259549705345305  0.08726826872873518  0.8609422201288695  1.0000
  H   H84       1.0  0.6602783808881724  0.1436055690043218  0.920530444779267  1.0000
  H   H85       1.0  0.0798308156053054  0.14360408647612383  0.3397321885499167  1.0000
  H   H86       1.0  0.1391331795525019  0.08691238466560938  0.27376559763106906  1.0000
  H   H87       1.0  0.07953996787339428  0.08084381471855544  0.2770435876823356  1.0000
  H   H88       1.0  0.3037881691398994  0.8567087993415684  0.27677384206988614  1.0000
  H   H89       1.0  0.3130408252555483  0.9133957397071982  0.2741272879416741  1.0000
  H   H90       1.0  0.30371525472637717  0.9194982741899694  0.3398070519908458  1.0000
  H   H91       1.0  0.19612606346433378  0.08058484718857524  0.16039382133392618  1.0000
  H   H92       1.0  0.18683761771771398  0.087258900926308  0.2263657385614195  1.0000
  H   H93       1.0  0.19620226896583395  0.1435578998767895  0.22308357277322696  1.0000
  H   H94       1.0  0.4200805050808469  0.9195902740315345  0.22333763557768532  1.0000
  H   H95       1.0  0.3607624184983817  0.9129629015924082  0.22599840638492466  1.0000
  H   H96       1.0  0.42033738308285945  0.8566203443033799  0.16030944317853368  1.0000
  C   C1        1.0  0.5910103789374118  9.372299800945961e-05  0.9090688844405506  1.0000
  C   C2        1.0  0.40904397336401366  0.9999976089135034  0.9089213121158652  1.0000
  C   C3        1.0  0.4089469391240357  0.18201384463862513  0.09103521207402565  1.0000
  C   C4        1.0  0.4089548845385168  2.256940132374494e-05  0.09097418089906029  1.0000
  C   C5        1.0  0.5909766260404298  0.9999945041867234  0.09100177524811662  1.0000
  C   C6        1.0  0.5910071519742458  0.8180112408922181  0.9089813807437463  1.0000
  C   C7        1.0  0.09089223313085856  0.8180017811397774  0.4090633697041214  1.0000
  C   C8        1.0  0.09095184831122785  0.9999963385591782  0.5910007040880741  1.0000
  C   C9        1.0  0.9089774365699267  7.290665036670612e-05  0.5910893608912033  1.0000
  C   C10       1.0  0.9089460004904378  0.18201799610758224  0.5910118969958945  1.0000
  C   C11       1.0  0.9089116971209987  7.805271287885156e-06  0.409052091299877  1.0000
  C   C12       1.0  0.09096178527032352  5.618220392715614e-05  0.4090188242421178  1.0000
  C   C13       1.0  0.8714567675077093  0.9999948207777787  0.371611559986107  1.0000
  C   C14       1.0  0.8537566158207566  0.04291340954195287  0.35390819313592203  1.0000
  C   C15       1.0  0.8188153033931016  0.04383054377322526  0.31893070698912135  1.0000
  C   C16       1.0  0.8009732049473681  0.9999522942218635  0.30102853270738456  1.0000
  C   C17       1.0  0.8188531125020544  0.9560938035856382  0.31889000230111725  1.0000
  C   C18       1.0  0.8537863489554383  0.9570470775327772  0.35388115928624586  1.0000
  C   C19       1.0  0.7653527933868035  0.9999420492063534  0.2653885027581849  1.0000
  C   C20       1.0  0.7345888605997503  0.9999548365342008  0.23461985406085947  1.0000
  C   C21       1.0  0.6989593249030505  0.9999680354570728  0.1989861059801257  1.0000
  C   C22       1.0  0.6811086852528304  0.04380442166068824  0.18110211127459053  1.0000
  C   C23       1.0  0.646151669588626  0.04287850261095373  0.14613864188955722  1.0000
  C   C24       1.0  0.6284284878428604  0.9999823485630228  0.1284468021358054  1.0000
  C   C25       1.0  0.6461095772671186  0.9570764725147427  0.14616034592308588  1.0000
  C   C26       1.0  0.6810655222834608  0.9561440628776622  0.18113065901791714  1.0000
  C   C27       1.0  0.1283988589695395  0.9999966161886391  0.628457331523741  1.0000
  C   C28       1.0  0.18901794950581066  0.9570621306203009  0.6032362820711299  1.0000
  C   C29       1.0  0.22491212421693518  0.9561486946354946  0.6372654418206737  1.0000
  C   C30       1.0  0.19894038319249321  3.4435979145330386e-05  0.6989880709032975  1.0000
  C   C31       1.0  0.13721781790292187  0.043903265849799304  0.7249723243090929  1.0000
  C   C32       1.0  0.10318084750218046  0.04295192587656506  0.6890819820523005  1.0000
  C   C33       1.0  0.23458442436245258  4.751795255932065e-05  0.7346108634128612  1.0000
  C   C34       1.0  0.26536528059015996  4.467194862189461e-05  0.7653611657705  1.0000
  C   C35       1.0  0.3010164794051064  2.9337156170970287e-05  0.8009732489695268  1.0000
  C   C36       1.0  0.3627427686168332  0.956177986287379  0.7749710661645112  1.0000
  C   C37       1.0  0.3967920066581313  0.9571019737436185  0.8108438124181845  1.0000
  C   C38       1.0  0.37159771166660244  1.1461942058599045e-05  0.8714699687484568  1.0000
  C   C39       1.0  0.3109718876606562  0.04292073234759627  0.8967123183477668  1.0000
  C   C40       1.0  0.2750604899504693  0.043864007828389395  0.862701802614545  1.0000
  C   C41       1.0  0.12831032337711415  0.7431006129213458  0.37166767320453437  1.0000
  C   C42       1.0  0.18893426282843948  0.7076897325502783  0.3539547643804112  1.0000
  C   C43       1.0  0.22482076187061759  0.6377736666781357  0.3190077846563283  1.0000
  C   C44       1.0  0.19883347661796322  0.602042817897754  0.30116545846679094  1.0000
  C   C45       1.0  0.13710660801331187  0.6377919806151765  0.31905561673231375  1.0000
  C   C46       1.0  0.10307557686234499  0.7077152909405982  0.35400310351380454  1.0000
  C   C47       1.0  0.23446563664808895  0.5307755858793328  0.2655393306594008  1.0000
  C   C48       1.0  0.26525738694880363  0.469241140460518  0.23476670670861916  1.0000
  C   C49       1.0  0.30091431804493135  0.397974612485541  0.19910727987982574  1.0000
  C   C50       1.0  0.3626372467277789  0.36224392278192136  0.18124521738916846  1.0000
  C   C51       1.0  0.39668182877525027  0.2923262896369891  0.14625717994289292  1.0000
  C   C52       1.0  0.37147881766617985  0.2569086351655016  0.1285257047876698  1.0000
  C   C53       1.0  0.3108574580592176  0.2922957144137398  0.1462058391871395  1.0000
  C   C54       1.0  0.27495214822928193  0.3622181800436336  0.18119365596481163  1.0000
  C   C55       1.0  0.8715180617094728  0.2569092264736029  0.6284671771187363  1.0000
  C   C56       1.0  0.8538437037513943  0.292317070266364  0.6032545140858476  1.0000
  C   C57       1.0  0.8189071954287713  0.3622371931939622  0.6372848137414451  1.0000
  C   C58       1.0  0.8010188133262516  0.39798549282971135  0.6990122693940037  1.0000
  C   C59       1.0  0.8188730894776131  0.3622363746235136  0.7249888908891647  1.0000
  C   C60       1.0  0.8538147341177335  0.2923132154623857  0.6890919908911072  1.0000
  C   C61       1.0  0.7653857019596799  0.4692473978317648  0.7346446774927599  1.0000
  C   C62       1.0  0.734605211967107  0.5307775782582738  0.7654031984406943  1.0000
  C   C63       1.0  0.6989639124321412  0.602038772544894  0.8010231914593647  1.0000
  C   C64       1.0  0.6810754787416825  0.6377676475543909  0.7750313528934923  1.0000
  C   C65       1.0  0.6461236185820596  0.7076897408535813  0.8109139577013522  1.0000
  C   C66       1.0  0.6284356822477333  0.7431161047990282  0.8715393636703365  1.0000
  C   C67       1.0  0.6461403436491792  0.7077249531224721  0.8967703878895675  1.0000
  C   C68       1.0  0.6810996372089945  0.6377991453296802  0.8627471415650734  1.0000
  C   C69       1.0  0.8715512492225767  8.46828066158552e-05  0.6285628211601236  1.0000
  C   C70       1.0  0.8538767833439633  0.04299693015816787  0.6891829223364356  1.0000
  C   C71       1.0  0.8189210989262179  0.043933869750503424  0.7250808302706062  1.0000
  C   C72       1.0  0.8010310535452517  0.00010443523567009422  0.6991104043849888  1.0000
  C   C73       1.0  0.8188737510743844  0.9562640321419239  0.637391375039755  1.0000
  C   C74       1.0  0.8538320581669153  0.9571820631828345  0.6033515085007437  1.0000
  C   C75       1.0  0.7653974713896544  0.00013535018558025256  0.7347651715389035  1.0000
  C   C76       1.0  0.7346280080623872  0.00014708059292438386  0.7655379950122808  1.0000
  C   C77       1.0  0.6989935675750089  0.0001360794312927831  0.8011509936415351  1.0000
  C   C78       1.0  0.6810945184801653  0.04400569203006874  0.8628755838468577  1.0000
  C   C79       1.0  0.6461278075321814  0.04307700483695948  0.8969004095589669  1.0000
  C   C80       1.0  0.6284582183596826  0.000128480340400342  0.871660091604582  1.0000
  C   C81       1.0  0.6461874135902046  0.9571914400560286  0.8110317994731202  1.0000
  C   C82       1.0  0.6811510782257456  0.9562630259666205  0.7751529085538708  1.0000
  C   C83       1.0  0.1284034897977761  0.00012859223571839269  0.37163250611764204  1.0000
  C   C84       1.0  0.18903039051317447  0.9572333269103481  0.35394790597769804  1.0000
  C   C85       1.0  0.22491753493628855  0.9563237284829355  0.3190072737970481  1.0000
  C   C86       1.0  0.1989359767357755  0.0001585678534467153  0.3011188095408954  1.0000
  C   C87       1.0  0.13721181731268214  0.043986416290365926  0.31897283357176315  1.0000
  C   C88       1.0  0.10318343688362572  0.043041023041112667  0.35392177819768733  1.0000
  C   C89       1.0  0.23456033095771991  0.00016530568102969092  0.2654839265450093  1.0000
  C   C90       1.0  0.26532047185084207  0.00014114291634112507  0.2346923628524991  1.0000
  C   C91       1.0  0.30096010017205527  9.885989588547928e-05  0.19902373425159683  1.0000
  C   C92       1.0  0.36268671440397776  0.9562138979827066  0.18111610853939902  1.0000
  C   C93       1.0  0.3967157793731387  0.9571212829653956  0.14613486467290215  1.0000
  C   C94       1.0  0.37149899769976713  4.7134686681585786e-05  0.12843826607553405  1.0000
  C   C95       1.0  0.310876717759399  0.042994338331787674  0.14616691592073747  1.0000
  C   C96       1.0  0.2749836139530899  0.043948695407095756  0.18115187189790302  1.0000
  C   C97       1.0  0.8011710749640956  0.9088547111612681  0.3011437185562541  1.0000
  C   C98       1.0  0.8011007039972781  0.09104375630191443  0.30122098449621865  1.0000
  C   C99       1.0  0.698747350097186  0.9089514569638552  0.19886036624535575  1.0000
  C   C100      1.0  0.6988335876513857  0.09100301480248156  0.19881760660862108  1.0000
  C   C101      1.0  0.10772448899616169  0.0911559162317771  0.7899019447960498  1.0000
  C   C102      1.0  0.28983443985855206  0.9089212054913317  0.6077481073010987  1.0000
  C   C103      1.0  0.2101366875984638  0.091068765587387  0.892222046027264  1.0000
  C   C104      1.0  0.39222310638657354  0.9089729327025535  0.7100459098630765  1.0000
  C   C105      1.0  0.10761103331107331  0.6023677200061214  0.3013371296027643  1.0000
  C   C106      1.0  0.28974487138457766  0.6023384879158796  0.30125758582887846  1.0000
  C   C107      1.0  0.2100310493698031  0.3976167681092093  0.19888365180478465  1.0000
  C   C108      1.0  0.3921110695273953  0.39769340687912075  0.19899078570288237  1.0000
  C   C109      1.0  0.8011630865555334  0.3976635438227656  0.7899166661591719  1.0000
  C   C110      1.0  0.8012281965214569  0.39765595719862273  0.6077819257946898  1.0000
  C   C111      1.0  0.6988147955561032  0.6023903235234653  0.8922614687975354  1.0000
  C   C112      1.0  0.6987694053206466  0.6023244968844068  0.7101036702650063  1.0000
  C   C113      1.0  0.8011377125181126  0.9090759370823488  0.607905442932896  1.0000
  C   C114      1.0  0.8012344850641285  0.09113684909819826  0.7900009908835344  1.0000
  C   C115      1.0  0.6988996936952533  0.9090390823528474  0.7102215414857438  1.0000
  C   C116      1.0  0.6987840001532318  0.09123464085339339  0.892381431800203  1.0000
  C   C117      1.0  0.10770079906565401  0.09118784931498411  0.3012505538606902  1.0000
  C   C118      1.0  0.2898464050825352  0.9091251717114515  0.30130225653002896  1.0000
  C   C119      1.0  0.21005830137602996  0.09119378322176165  0.19887784069874206  1.0000
  C   C120      1.0  0.3921933401862458  0.9089904416995368  0.19881649430307405  1.0000
  O   O1        1.0  0.4999936667201794  5.0125254771975635e-06  0.9999655535150395  1.0000
  O   O2        1.0  0.576433684375594  0.04057485319621169  0.9641015339454101  1.0000
  O   O3        1.0  0.4640810633708479  0.959524773014792  0.8829831342796554  1.0000
  O   O4        1.0  0.3830315122950552  0.1529039795698779  0.07644149823304495  1.0000
  O   O5        1.0  0.5764919584940953  0.9595874450628156  0.8831004698172009  1.0000
  O   O6        1.0  0.46397648211406306  0.1529400924274781  0.07650230345761592  1.0000
  O   O7        1.0  0.38310878792589875  0.04044445550272955  0.9639453544735234  1.0000
  O   O8        1.0  0.38302529854883  0.0404839202541325  0.07640727719606126  1.0000
  O   O9        1.0  0.5764161778923477  0.9595294782600091  0.07645873267800608  1.0000
  O   O10       1.0  0.4639842704856818  0.9595449594273973  0.0764377186140167  1.0000
  O   O11       1.0  0.5764425437995229  0.04047506332641136  0.07645476549656377  1.0000
  O   O12       1.0  0.5765064361559809  0.847098474219017  0.8830356121416403  1.0000
  O   O13       1.0  0.5764312292830808  0.8471090364686941  0.964007765067862  1.0000
  O   O14       1.0  0.99996709209924  9.579071658491835e-06  0.4999824570244086  1.0000
  O   O15       1.0  0.03586115560005943  0.8471238422888517  0.4236304928645536  1.0000
  O   O16       1.0  0.11689102025968594  0.9594964906010902  0.5359662777485713  1.0000
  O   O17       1.0  0.9235303960283686  0.040547640730324006  0.6170040573425836  1.0000
  O   O18       1.0  0.11684991388086953  0.8470686509709963  0.4235327673362407  1.0000
  O   O19       1.0  0.9234990305896175  0.9595939918210018  0.5360631538565314  1.0000
  O   O20       1.0  0.03592663567371087  0.04050141745491942  0.6169362329276071  1.0000
  O   O21       1.0  0.9234858109590006  0.15292471874187188  0.6169445004756113  1.0000
  O   O22       1.0  0.9234966141292061  0.04044547378425969  0.4235440211264532  1.0000
  O   O23       1.0  0.9234887857470112  0.15292837311716284  0.5359806417635157  1.0000
  O   O24       1.0  0.9234315990586879  0.9595680984750884  0.42364134466944126  1.0000
  O   O25       1.0  0.11690564223314914  0.9595316777577312  0.42352634847124204  1.0000
  O   O26       1.0  0.03593168586988327  0.040510071250167694  0.42354748071990395  1.0000
