data_image0
_chemical_formula_structural       Cu2H30C32I2N10
_chemical_formula_sum              "Cu2 H30 C32 I2 N10"
_cell_length_a       8.47804345171717
_cell_length_b       9.398807178415206
_cell_length_c       10.4189690588138
_cell_angle_alpha    85.88920531596712
_cell_angle_beta     77.22252836708266
_cell_angle_gamma    72.66846733893797

_space_group_name_H-M_alt    "P 1"
_space_group_IT_number       1

loop_
  _space_group_symop_operation_xyz
  'x, y, z'

loop_
  _atom_site_type_symbol
  _atom_site_label
  _atom_site_symmetry_multiplicity
  _atom_site_fract_x
  _atom_site_fract_y
  _atom_site_fract_z
  _atom_site_occupancy
  Cu  Cu1       1.0  0.08301656874473201  0.049032763928131815  0.8826042516301482  1.0000
  Cu  Cu2       1.0  0.9169905917084267  0.950970810086567  0.1174026599312725  1.0000
  H   H1        1.0  0.4889351710521053  0.9506056163496273  0.8128160600908385  1.0000
  H   H2        1.0  0.5110810023224844  0.0493823632770116  0.18717876353576907  1.0000
  H   H3        1.0  0.6004951046480186  0.6922863916160653  0.3774316243278051  1.0000
  H   H4        1.0  0.39948957460072176  0.307712464431127  0.6225651373851375  1.0000
  H   H5        1.0  0.35197644639107023  0.6824442159909909  0.29048102831696093  1.0000
  H   H6        1.0  0.6479975434841876  0.31756461493638  0.7095227203854788  1.0000
  H   H7        1.0  0.06370445831996822  0.7908884527343859  0.4103351395058254  1.0000
  H   H8        1.0  0.9362742610651227  0.20912044906730645  0.589679293042799  1.0000
  H   H9        1.0  0.004579355392372962  0.9135007368147687  0.6320790578429865  1.0000
  H   H10       1.0  0.9954144966134278  0.08650272421918001  0.36793595326838596  1.0000
  H   H11       1.0  0.7542139875056291  0.8331874992175446  0.48128712838109766  1.0000
  H   H12       1.0  0.24578417116524778  0.16680029025220483  0.5187022278625832  1.0000
  H   H13       1.0  0.7573808596426094  0.8934025135155963  0.6378039035666133  1.0000
  H   H14       1.0  0.24262311794219465  0.10659314918459734  0.36218008329179696  1.0000
  H   H15       1.0  0.9578215452119918  0.6436213720817465  0.5833545536515247  1.0000
  H   H16       1.0  0.04218236261236544  0.3563743095239005  0.4166380824669531  1.0000
  H   H17       1.0  0.7931438737284681  0.5695089572660947  0.5688925807685832  1.0000
  H   H18       1.0  0.20686030485617837  0.4304822653026579  0.43110509570162486  1.0000
  H   H19       1.0  0.671550910066962  0.5978978206004586  0.8049139351909602  1.0000
  H   H20       1.0  0.32845467420945335  0.40210348051307687  0.1950838018728405  1.0000
  H   H21       1.0  0.7878671557124689  0.722000417054595  0.8220558165502112  1.0000
  H   H22       1.0  0.2121413343902247  0.27800313476716826  0.1779355064237222  1.0000
  H   H23       1.0  0.37987069229077963  0.19437118030903383  0.908905924710325  1.0000
  H   H24       1.0  0.6201333153190944  0.8056312218179117  0.09109105767918631  1.0000
  H   H25       1.0  0.5092735096753812  0.3948534581314577  0.9247870360913099  1.0000
  H   H26       1.0  0.49072559014793166  0.6051489214351093  0.0752213661166365  1.0000
  H   H27       1.0  0.3546190490175645  0.6622785665178272  0.8936950635635909  1.0000
  H   H28       1.0  0.6453813179561935  0.33772718157524656  0.10631385811139181  1.0000
  H   H29       1.0  0.07381352154125405  0.7350360298632456  0.8363154045431713  1.0000
  H   H30       1.0  0.926188847392773  0.26496749008197895  0.16368851140323662  1.0000
  C   C1        1.0  0.43856820005575514  0.9142318007833764  0.7377507999959008  1.0000
  C   C2        1.0  0.5614404145147418  0.08576058408382892  0.2622469832321101  1.0000
  C   C3        1.0  0.4371504045878893  0.810040078654531  0.553747074100947  1.0000
  C   C4        1.0  0.5628434096416939  0.1899566450532646  0.44625590250821284  1.0000
  C   C5        1.0  0.4721021607285678  0.7391409141118005  0.4330441612935869  1.0000
  C   C6        1.0  0.5278840796843908  0.26085684512317914  0.5669552771514289  1.0000
  C   C7        1.0  0.33322791016735215  0.7329558208619744  0.3854503995393229  1.0000
  C   C8        1.0  0.6667531439476022  0.2670463769501268  0.6145563794012928  1.0000
  C   C9        1.0  0.16652489580434346  0.7948807555059505  0.4556062449742058  1.0000
  C   C10       1.0  0.8334589788741126  0.20512371612105082  0.5444046911944085  1.0000
  C   C11       1.0  0.13241272053088693  0.8633907036720245  0.5768445862001669  1.0000
  C   C12       1.0  0.8675803356353741  0.13661162301194454  0.42316679869129087  1.0000
  C   C13       1.0  0.27018560553271687  0.8702446846928569  0.6263426564809578  1.0000
  C   C14       1.0  0.729812242642474  0.12975432214599897  0.373663304202168  1.0000
  C   C15       1.0  0.7238255667952629  0.8111563154845243  0.5875355504820944  1.0000
  C   C16       1.0  0.2761739282967213  0.1888381975208589  0.4124540957919009  1.0000
  C   C17       1.0  0.8231217374286073  0.6533927205472453  0.6201121058640524  1.0000
  C   C18       1.0  0.17688095701363699  0.3466029517422484  0.37988170340846483  1.0000
  C   C19       1.0  0.7917642165255286  0.623517007812268  0.7686883209891774  1.0000
  C   C20       1.0  0.20824213307556502  0.37648206213907554  0.23130846658677479  1.0000
  C   C21       1.0  0.15517746861249287  0.35152384757517297  0.8576890398806752  1.0000
  C   C22       1.0  0.8448302406631922  0.6484819396099939  0.14230515463889756  1.0000
  C   C23       1.0  0.31471549172838564  0.31014241500814427  0.890615981984446  1.0000
  C   C24       1.0  0.6852885236326428  0.6898599850181953  0.10938003937616969  1.0000
  C   C25       1.0  0.3847558805745591  0.4239095558598081  0.9003979162598625  1.0000
  C   C26       1.0  0.6152456615152886  0.5760928381378677  0.09960621758221319  1.0000
  C   C27       1.0  0.2987795475985705  0.5752060561707638  0.8803585334662215  1.0000
  C   C28       1.0  0.7012204178247359  0.4247974388403223  0.1196448457015791  1.0000
  C   C29       1.0  0.14137301533396138  0.6180027331886822  0.8473050241571157  1.0000
  C   C30       1.0  0.8586289980667985  0.38200189498551423  0.15269600293207466  1.0000
  C   C31       1.0  0.07261123454069465  0.5026061849873217  0.8348839891963705  1.0000
  C   C32       1.0  0.9273951998333914  0.49739623577194453  0.16511064688506846  1.0000
  I   I1        1.0  0.778885142291692  0.0200736213730934  0.9049674423293437  1.0000
  I   I2        1.0  0.2211239508510801  0.9799243694846215  0.09503469294023147  1.0000
  N   N1        1.0  0.275662527551667  0.9333260820825375  0.7417975847138506  1.0000
  N   N2        1.0  0.7243461097825233  0.06666967039743812  0.2582057352508116  1.0000
  N   N3        1.0  0.540949552744891  0.8412503940772356  0.626908780751762  1.0000
  N   N4        1.0  0.4590510937198999  0.1587441450491553  0.37308738059936525  1.0000
  N   N5        1.0  0.9236099594809629  0.4997400549881874  0.8060098278420894  1.0000
  N   N6        1.0  0.07639805155966437  0.5002612647576541  0.19398556291363178  1.0000
  N   N7        1.0  0.9127022862936516  0.35882816031114134  0.8103290259411152  1.0000
  N   N8        1.0  0.08730414032926603  0.6411742625487307  0.18966657116921937  1.0000
  N   N9        1.0  0.05009194990011423  0.26879308827872705  0.8424194750638845  1.0000
  N   N10       1.0  0.9499161536646525  0.7312115801744313  0.15757280316842076  1.0000
