data_image0
_chemical_formula_structural       CuSiH4C8S4N4F6
_chemical_formula_sum              "Cu1 Si1 H4 C8 S4 N4 F6"
_cell_length_a       7.730349019428067
_cell_length_b       8.543436970517245
_cell_length_c       8.543418664660791
_cell_angle_alpha    92.11805942825212
_cell_angle_beta     84.46549509882233
_cell_angle_gamma    84.46472620656972

_space_group_name_H-M_alt    "P 1"
_space_group_IT_number       1

loop_
  _space_group_symop_operation_xyz
  'x, y, z'

loop_
  _atom_site_type_symbol
  _atom_site_label
  _atom_site_symmetry_multiplicity
  _atom_site_fract_x
  _atom_site_fract_y
  _atom_site_fract_z
  _atom_site_occupancy
  Cu  Cu1       1.0  0.5000328830215892  0.4999824054512844  0.49997498203430973  1.0000
  Si  Si1       1.0  2.439099857549765e-05  0.49999776876897783  0.5000038400613391  1.0000
  H   H1        1.0  0.24237493732891832  0.5764111986609136  0.2499292080241204  1.0000
  H   H2        1.0  0.7576109143203879  0.42358481357190675  0.7500615305236662  1.0000
  H   H3        1.0  0.24236461581381966  0.24993531637359473  0.5764204028978596  1.0000
  H   H4        1.0  0.7576186071416514  0.7500713544747697  0.4235742285326864  1.0000
  C   C1        1.0  0.3696645549831671  0.5395171571913906  0.18545907820958257  1.0000
  C   C2        1.0  0.630308050664901  0.4604796698896508  0.8145284562680429  1.0000
  C   C3        1.0  0.5887686593019835  0.47378257065308554  0.9795256000728612  1.0000
  C   C4        1.0  0.41120957515597917  0.5262188649794268  0.020453145899871593  1.0000
  C   C5        1.0  0.3696735024083537  0.18546295293690207  0.5395224623043546  1.0000
  C   C6        1.0  0.6303072243905274  0.8145343575757167  0.460477056473934  1.0000
  C   C7        1.0  0.588771773117621  0.9795339389307924  0.4737822549868936  1.0000
  C   C8        1.0  0.41120525231520577  0.0204634860653456  0.5262247046548154  1.0000
  S   S1        1.0  0.6928856923534994  0.44640773917687687  0.14603842262213354  1.0000
  S   S2        1.0  0.30709119096825777  0.5535734678746922  0.8539344533981674  1.0000
  S   S3        1.0  0.6928808637761463  0.1460449022847925  0.44641280706400716  1.0000
  S   S4        1.0  0.30710138515237156  0.8539405801906523  0.5535841038637483  1.0000
  N   N1        1.0  0.5068575472203777  0.4994221863571013  0.26311350044501575  1.0000
  N   N2        1.0  0.49312765151207555  0.5005556955345156  0.736860765580303  1.0000
  N   N3        1.0  0.5068463759111096  0.2631153205620791  0.49943151186442947  1.0000
  N   N4        1.0  0.4931406497120675  0.7368711858776111  0.5005555050795252  1.0000
  F   F1        1.0  0.20316591951906549  0.5499648595764627  0.5499622217133078  1.0000
  F   F2        1.0  0.7969058486275883  0.4499901146299409  0.45001276345336544  1.0000
  F   F3        1.0  3.8802101812504085e-05  0.36022243988966807  0.6398241205783533  1.0000
  F   F4        1.0  1.2159577167401964e-05  0.6398263740106529  0.3602352861205914  1.0000
  F   F5        1.0  0.8981299655199775  0.6360766992999063  0.6360923654858296  1.0000
  F   F6        1.0  0.10193557775523489  0.3639321205508281  0.36391771677126167  1.0000
