data_image0
_chemical_formula_structural       Zn6H48C36N12O24
_chemical_formula_sum              "Zn6 H48 C36 N12 O24"
_cell_length_a       9.762932790304841
_cell_length_b       9.728964481009658
_cell_length_c       16.1639
_cell_angle_alpha    77.59291102546177
_cell_angle_beta     77.6367631382569
_cell_angle_gamma    64.50808840544106

_space_group_name_H-M_alt    "P 1"
_space_group_IT_number       1

loop_
  _space_group_symop_operation_xyz
  'x, y, z'

loop_
  _atom_site_type_symbol
  _atom_site_label
  _atom_site_symmetry_multiplicity
  _atom_site_fract_x
  _atom_site_fract_y
  _atom_site_fract_z
  _atom_site_occupancy
  Zn  Zn1       1.0  1.0485995503e-06  0.0  4.830568727e-07  1.0000
  Zn  Zn2       1.0  0.9999990554215259  0.0  0.5000002458861275  1.0000
  Zn  Zn3       1.0  0.06890813627030914  0.5593195684012999  0.8208766472540177  1.0000
  Zn  Zn4       1.0  0.4415547146489516  0.930574078182815  0.6793682690896076  1.0000
  Zn  Zn5       1.0  0.9310903879650921  0.440681320132164  0.179123057489619  1.0000
  Zn  Zn6       1.0  0.5584433479594894  0.0694279602580679  0.32063072798248976  1.0000
  H   H1        1.0  0.6676500681563766  0.2166736053057789  0.9975837183043198  1.0000
  H   H2        1.0  0.7837910745741539  0.3324704323416938  0.5022734189627229  1.0000
  H   H3        1.0  0.3323550839576725  0.7833238335054276  0.00241557543768779  1.0000
  H   H4        1.0  0.2162095468603411  0.6675304561917699  0.497725395906933  1.0000
  H   H5        1.0  0.33689691354382495  0.46731202605688094  0.6648648863023395  1.0000
  H   H6        1.0  0.5338467913320741  0.6627721392904959  0.8352027631938838  1.0000
  H   H7        1.0  0.6631011490646089  0.5326900123840019  0.3351347294323403  1.0000
  H   H8        1.0  0.4661496357042408  0.3372287492429679  0.16479845008630883  1.0000
  H   H9        1.0  0.37145770648037046  0.33243363530427683  0.5944268536250519  1.0000
  H   H10       1.0  0.6680949229839968  0.6282588180061381  0.9057539008100476  1.0000
  H   H11       1.0  0.6285418663545812  0.667567253229187  0.40557209685030665  1.0000
  H   H12       1.0  0.3319036012514047  0.3717420705273184  0.0942464225961643  1.0000
  H   H13       1.0  0.5010371339909057  0.2882173952154474  0.6662352005687424  1.0000
  H   H14       1.0  0.7122439690938904  0.4980145541535137  0.8341200280636015  1.0000
  H   H15       1.0  0.49896139024449593  0.7117834933180163  0.33376512283746956  1.0000
  H   H16       1.0  0.2877530449150001  0.5019874842873691  0.16588034193934934  1.0000
  H   H17       1.0  0.333496631731144  0.29399912971993564  0.9386730949806364  1.0000
  H   H18       1.0  0.7054821855703681  0.6675741526737013  0.561498888918571  1.0000
  H   H19       1.0  0.6665049129572934  0.70599945899869  0.061327135232090775  1.0000
  H   H20       1.0  0.2945200714362528  0.3324278857671815  0.4385001843932983  1.0000
  H   H21       1.0  0.4410511648363311  0.3554248842467516  0.8465385094730989  1.0000
  H   H22       1.0  0.6450829727521353  0.5589021520080735  0.6536371904138389  1.0000
  H   H23       1.0  0.5589488696255883  0.6445748543792933  0.15346176733636696  1.0000
  H   H24       1.0  0.35491869728191  0.44109873652539033  0.3463621075126965  1.0000
  H   H25       1.0  0.4585466168942247  0.3776962911447157  0.9497502480542933  1.0000
  H   H26       1.0  0.6229006625318332  0.5413706634926712  0.5504055981300197  1.0000
  H   H27       1.0  0.5414549277942129  0.6223022975739099  0.050250600821009066  1.0000
  H   H28       1.0  0.3770994972757009  0.4586313749482117  0.4495943650558302  1.0000
  H   H29       1.0  0.5918146339735983  0.0742690704935285  0.8051390185665994  1.0000
  H   H30       1.0  0.9255762129392053  0.4083953695190914  0.6949054281443877  1.0000
  H   H31       1.0  0.4081843518887709  0.9257306681325163  0.19486139384856935  1.0000
  H   H32       1.0  0.07442487012225746  0.5916043691069532  0.3050940943968  1.0000
  H   H33       1.0  0.4622682032919699  0.0267123493514916  0.889774761001611  1.0000
  H   H34       1.0  0.9726392621643569  0.538643083093973  0.6102595411875098  1.0000
  H   H35       1.0  0.5377303209434316  0.9732885391819721  0.11022618106717628  1.0000
  H   H36       1.0  0.02736228252408072  0.46135550562465266  0.3897413076877854  1.0000
  H   H37       1.0  0.6660715894772906  0.9279511393592799  0.8915193522155248  1.0000
  H   H38       1.0  0.0711729098394827  0.3341561966184656  0.6084979008504091  1.0000
  H   H39       1.0  0.3339283196390213  0.0720462994519266  0.10848123821756418  1.0000
  H   H40       1.0  0.9288271246224368  0.665843542007579  0.3915023759590566  1.0000
  H   H41       1.0  0.11004674151372028  0.5916986615153449  0.9680307311463849  1.0000
  H   H42       1.0  0.4079475967919777  0.8899397997052604  0.5322632306717239  1.0000
  H   H43       1.0  0.8899558517742603  0.4082999272032808  0.03196936346063954  1.0000
  H   H44       1.0  0.5920519760429741  0.11006108882820342  0.46773571980363465  1.0000
  H   H45       1.0  0.14242332017773413  0.7225178790776428  0.8969313836909976  1.0000
  H   H46       1.0  0.2775057117493419  0.8580160699292776  0.6033888495441886  1.0000
  H   H47       1.0  0.8575792731102538  0.277480709640983  0.1030687109160269  1.0000
  H   H48       1.0  0.7224952459665133  0.1419813688819289  0.396610367958047  1.0000
  C   C1        1.0  0.20804536898693732  0.9439865983221055  0.8238695687203474  1.0000
  C   C2        1.0  0.05455954456341774  0.7932509842566731  0.6761955909720143  1.0000
  C   C3        1.0  0.7919546654749894  0.05601314030393921  0.176131326751694  1.0000
  C   C4        1.0  0.9454393159533508  0.2067464545545334  0.3238057537293457  1.0000
  C   C5        1.0  0.1213533545436007  0.2420900089956604  0.8336666374315413  1.0000
  C   C6        1.0  0.7576716803818256  0.8790961727407949  0.666188130780192  1.0000
  C   C7        1.0  0.8786462182913508  0.7579108795378036  0.166333550368968  1.0000
  C   C8        1.0  0.24232579525403247  0.12090471579266901  0.3338123282317227  1.0000
  C   C9        1.0  0.9976771034079307  0.29720507160508464  0.9045540700492722  1.0000
  C   C10       1.0  0.7026271168244023  0.002835671696118401  0.5950699633255283  1.0000
  C   C11       1.0  0.002323979653539365  0.7027946670209602  0.09544607115449816  1.0000
  C   C12       1.0  0.2973709457840314  0.9971663667447643  0.4049296524091516  1.0000
  C   C13       1.0  0.20052630294161128  0.10328698422081573  0.7999214656779826  1.0000
  C   C14       1.0  0.8959923962106799  0.8001941252547056  0.7000355001551809  1.0000
  C   C15       1.0  0.7994732698933403  0.896713904312648  0.20007748479737592  1.0000
  C   C16       1.0  0.1040055410521461  0.1998056133713391  0.2999644292031148  1.0000
  C   C17       1.0  0.6805285186853212  0.1192270008678378  0.9676160236281746  1.0000
  C   C18       1.0  0.8808130503209313  0.31993184184111106  0.532197015018447  1.0000
  C   C19       1.0  0.3194736129756919  0.8807727377582069  0.032384600632468584  1.0000
  C   C20       1.0  0.11918803274053855  0.6800678967849338  0.4678018888601655  1.0000
  C   C21       1.0  0.2879581532235634  0.2728856795932586  0.7244651620361253  1.0000
  C   C22       1.0  0.7274769484739493  0.7119571293383373  0.7756439128548677  1.0000
  C   C23       1.0  0.7120418812383634  0.727114059032786  0.2755344961107724  1.0000
  C   C24       1.0  0.27251947856235853  0.2880437591951264  0.22435606310017417  1.0000
  C   C25       1.0  0.3786838874953843  0.34518495867744303  0.6589936019473797  1.0000
  C   C26       1.0  0.6555187447037409  0.6208649132997266  0.8411812434457601  1.0000
  C   C27       1.0  0.6213156853395674  0.6548159298560209  0.34100596719055426  1.0000
  C   C28       1.0  0.34447722070559905  0.3791371251411563  0.15881926216289344  1.0000
  C   C29       1.0  0.4438628512614289  0.3026004372166753  0.9137984574961563  1.0000
  C   C30       1.0  0.6974986887033552  0.5565241434648558  0.5863622616620673  1.0000
  C   C31       1.0  0.5561397420265592  0.6973981515019503  0.086201637110868  1.0000
  C   C32       1.0  0.3025034429576578  0.4434755951611821  0.413637125273425  1.0000
  C   C33       1.0  0.5724492183466695  0.0379952409501456  0.8743391665555362  1.0000
  C   C34       1.0  0.9615110952475308  0.4280081904635153  0.6256997958746452  1.0000
  C   C35       1.0  0.4275518647147933  0.9620044976758991  0.12566159331080934  1.0000
  C   C36       1.0  0.03848893921438905  0.5719915481625293  0.37430048093482066  1.0000
  N   N1        1.0  0.3042298266685107  0.12586771621457876  0.7315001369335548  1.0000
  N   N2        1.0  0.8737986017083511  0.6961436025074406  0.7686341694854592  1.0000
  N   N3        1.0  0.6957686975668977  0.8741331723188779  0.2684995678100819  1.0000
  N   N4        1.0  0.12619979718144234  0.3038549862111851  0.23136584888179357  1.0000
  N   N5        1.0  0.1789044581066079  0.3459404478519588  0.7857851135813405  1.0000
  N   N6        1.0  0.654475458249493  0.8210626451010585  0.7141575602112977  1.0000
  N   N7        1.0  0.8210946531013761  0.654061590588924  0.21421374788506128  1.0000
  N   N8        1.0  0.3455215557593903  0.17893939333982442  0.28584342845422844  1.0000
  N   N9        1.0  0.5692212077291997  0.15125997184865986  0.9214600447203551  1.0000
  N   N10       1.0  0.8485718378063537  0.4312336807747883  0.5786033500550827  1.0000
  N   N11       1.0  0.43078033695923773  0.848738616869966  0.07854018549237204  1.0000
  N   N12       1.0  0.15142924525511603  0.5687660578512563  0.4213961724861122  1.0000
  O   O1        1.0  0.3143475687841429  0.8428234931048311  0.7816654970980892  1.0000
  O   O2        1.0  0.1553701521219749  0.6870938311171602  0.7187184990530537  1.0000
  O   O3        1.0  0.6856520040508087  0.1571773954286328  0.21833469070242728  1.0000
  O   O4        1.0  0.8446288337403943  0.31290590750888475  0.2812812946995392  1.0000
  O   O5        1.0  0.9209938651724272  0.2194161345009249  0.9433910780320857  1.0000
  O   O6        1.0  0.7802456585771509  0.0794597525844765  0.5559310381341971  1.0000
  O   O7        1.0  0.07900721788904264  0.7805836041251197  0.05660906317168468  1.0000
  O   O8        1.0  0.2197528656582577  0.9205411359489872  0.44406990393459006  1.0000
  O   O9        1.0  0.1142358544525095  0.9102460148235565  0.8843099043646561  1.0000
  O   O10       1.0  0.08841364968665744  0.8871409250465663  0.6156714008937881  1.0000
  O   O11       1.0  0.8857677874350216  0.0897525738950691  0.11569129196181645  1.0000
  O   O12       1.0  0.911583700603586  0.11285766367205953  0.3843293717417495  1.0000
  O   O13       1.0  0.9681956901134682  0.4296778560364133  0.9234482882239802  1.0000
  O   O14       1.0  0.5705047072113486  0.03218705857501191  0.5762969658688417  1.0000
  O   O15       1.0  0.03180690317451252  0.5703207326822124  0.07655180638304418  1.0000
  O   O16       1.0  0.4294928937701171  0.9678161297732899  0.4237031795194568  1.0000
  O   O17       1.0  0.791598170378144  0.9912834403873775  0.9768931166569814  1.0000
  O   O18       1.0  0.008641822008669914  0.2089657758738781  0.5227252547425678  1.0000
  O   O19       1.0  0.2084038359372542  0.0087139984238291  0.023107202564709394  1.0000
  O   O20       1.0  0.9913577508262819  0.7910351126595856  0.4772743143953662  1.0000
  O   O21       1.0  0.15075922958637736  0.6136043978539476  0.9068689677231275  1.0000
  O   O22       1.0  0.38596418059934484  0.8494205119696405  0.5935078035840178  1.0000
  O   O23       1.0  0.8492408048755422  0.3863953407720899  0.09313069042376299  1.0000
  O   O24       1.0  0.6140369024621251  0.1505792266564043  0.4064911002946018  1.0000
