data_image0
_chemical_formula_structural       Ni2H16C24N8
_chemical_formula_sum              "Ni2 H16 C24 N8"
_cell_length_a       6.723102586424013
_cell_length_b       13.236377633038398
_cell_length_c       13.635095629019789
_cell_angle_alpha    119.036676207501
_cell_angle_beta     104.25640268569023
_cell_angle_gamma    89.98811865167787

_space_group_name_H-M_alt    "P 1"
_space_group_IT_number       1

loop_
  _space_group_symop_operation_xyz
  'x, y, z'

loop_
  _atom_site_type_symbol
  _atom_site_label
  _atom_site_symmetry_multiplicity
  _atom_site_fract_x
  _atom_site_fract_y
  _atom_site_fract_z
  _atom_site_occupancy
  Ni  Ni1       1.0  0.9999987214256832  0.5000010140584052  0.5000002088085935  1.0000
  Ni  Ni2       1.0  0.4999980464054801  0.5000003851032132  0.5000004561802953  1.0000
  H   H1        1.0  0.8677949853372623  0.09033050185755796  0.09405443562985741  1.0000
  H   H2        1.0  0.7735897197259475  0.9095671994895084  0.9056861591109853  1.0000
  H   H3        1.0  0.7264538256521645  0.5039660395644886  0.09437520426868676  1.0000
  H   H4        1.0  0.6321729734920184  0.4963777466042102  0.9059713119621763  1.0000
  H   H5        1.0  0.13220287828077196  0.909671164476556  0.9059449223422931  1.0000
  H   H6        1.0  0.22641120248383118  0.09043444490856699  0.0943150291141421  1.0000
  H   H7        1.0  0.27354841297157145  0.49603473828213396  0.9056249961556802  1.0000
  H   H8        1.0  0.3678327828881223  0.5036247805708882  0.09402942338711996  1.0000
  H   H9        1.0  0.31352465457035805  0.2654840689222624  0.27074713528168814  1.0000
  H   H10       1.0  0.042026865676192036  0.7351757326814478  0.7292331404103082  1.0000
  H   H11       1.0  0.4578759189449074  0.5058844907653608  0.2707176201069005  1.0000
  H   H12       1.0  0.1865415588261214  0.4946216270393506  0.7293374300684832  1.0000
  H   H13       1.0  0.6864760452144125  0.7345167027216275  0.7292536074969218  1.0000
  H   H14       1.0  0.9579755858294589  0.26482590074861173  0.27076896294131103  1.0000
  H   H15       1.0  0.542119938076489  0.4941093121957039  0.729278457586908  1.0000
  H   H16       1.0  0.8134580517412503  0.5053808924955516  0.2706640172170438  1.0000
  C   C1        1.0  0.4799409494346705  0.2807816689948126  0.2879090706228951  1.0000
  C   C2        1.0  0.1912940628789457  0.7195669088497709  0.7120497138510304  1.0000
  C   C3        1.0  0.30870369374580525  0.5075973029348688  0.2880015264380233  1.0000
  C   C4        1.0  0.020085264276431834  0.492692384740785  0.7120708977947816  1.0000
  C   C5        1.0  0.5200597455785497  0.7192190940636962  0.7120924008960757  1.0000
  C   C6        1.0  0.8087083886267051  0.2804347245802886  0.2879523895005889  1.0000
  C   C7        1.0  0.6912956667173518  0.4923982235985278  0.7119972724018101  1.0000
  C   C8        1.0  0.9799114776734542  0.5073049006516328  0.28792769042548383  1.0000
  C   C9        1.0  0.6113970919593682  0.214689017142689  0.22222606146572593  1.0000
  C   C10       1.0  0.3886036078254023  0.7853117545012012  0.7777746813128772  1.0000
  C   C11       1.0  0.11142949242555743  0.507686193967622  0.22227911967551256  1.0000
  C   C12       1.0  0.8885694327306766  0.49230760422816644  0.7777173307905444  1.0000
  C   C13       1.0  0.5551714983102727  0.10568194219099776  0.11025225637479959  1.0000
  C   C14       1.0  0.444827894603634  0.8943197131751005  0.8897480167238428  1.0000
  C   C15       1.0  0.055233701281565614  0.5047091502427462  0.11029896138096972  1.0000
  C   C16       1.0  0.9447687320879794  0.4952863801107484  0.8896994814907516  1.0000
  C   C17       1.0  0.7054191953199691  0.051368019963483405  0.05354459702993349  1.0000
  C   C18       1.0  0.6517791425461185  0.948577367706761  0.9462757502159747  1.0000
  C   C19       1.0  0.8482263440286815  0.5023751523785833  0.053760596136548544  1.0000
  C   C20       1.0  0.7945161359630575  0.49777609693404656  0.946430309192806  1.0000
  C   C21       1.0  0.29458019759393755  0.9486336354026151  0.946455676068702  1.0000
  C   C22       1.0  0.34822025513933147  0.0514242962447113  0.05372379414230013  1.0000
  C   C23       1.0  0.15177500012346457  0.4976221258659235  0.9462385512420896  1.0000
  C   C24       1.0  0.20548674702805414  0.5022211875132001  0.053568295831595905  1.0000
  N   N1        1.0  0.5917737293401544  0.3775993068316765  0.3846811480014339  1.0000
  N   N2        1.0  0.2062504996586085  0.6226045799925614  0.6152941029667148  1.0000
  N   N3        1.0  0.2936895099771987  0.5073455142997786  0.38472151778178443  1.0000
  N   N4        1.0  0.9083019974201676  0.49282518936603026  0.6153143566100782  1.0000
  N   N5        1.0  0.40822543637719383  0.6224014671948481  0.6153194083910449  1.0000
  N   N6        1.0  0.7937486612871966  0.37739618544858194  0.3847071821661317  1.0000
  N   N7        1.0  0.7063094285435981  0.4926543783871793  0.6152793219045308  1.0000
  N   N8        1.0  0.09169563900131548  0.5071755956285172  0.38468528465590884  1.0000
