data_image0
_chemical_formula_structural       ZnH26C28S2N2O10
_chemical_formula_sum              "Zn1 H26 C28 S2 N2 O10"
_cell_length_a       5.576510864852191
_cell_length_b       11.28458666062503
_cell_length_c       10.96289751201592
_cell_angle_alpha    88.53642631576767
_cell_angle_beta     93.61787614371525
_cell_angle_gamma    100.71483309037032

_space_group_name_H-M_alt    "P 1"
_space_group_IT_number       1

loop_
  _space_group_symop_operation_xyz
  'x, y, z'

loop_
  _atom_site_type_symbol
  _atom_site_label
  _atom_site_symmetry_multiplicity
  _atom_site_fract_x
  _atom_site_fract_y
  _atom_site_fract_z
  _atom_site_occupancy
  Zn  Zn1       1.0  0.4999967265918314  0.4999915998439661  0.5000029180927612  1.0000
  H   H1        1.0  0.3830235152540951  0.7291597345589338  0.0866157984669584  1.0000
  H   H2        1.0  0.616988218919971  0.2708460391703865  0.9133860843846477  1.0000
  H   H3        1.0  0.0834286569126093  0.503532959187261  0.6321485013772801  1.0000
  H   H4        1.0  0.9165684432766951  0.496454705621808  0.36785836878954103  1.0000
  H   H5        1.0  0.3213440711658677  0.4663022588689287  0.7055863748423903  1.0000
  H   H6        1.0  0.6786526291190212  0.5336843554097825  0.294425955944682  1.0000
  H   H7        1.0  0.7530131401206644  0.8548773411326778  0.2435163971542309  1.0000
  H   H8        1.0  0.2470063688307391  0.14514298778091467  0.7564802799741486  1.0000
  H   H9        1.0  0.6293695720281817  0.051289088011912995  0.27334744766415037  1.0000
  H   H10       1.0  0.3706247708259056  0.9487226335198498  0.7266411371837478  1.0000
  H   H11       1.0  0.27576203421698864  0.2326113862995101  0.10056878418023266  1.0000
  H   H12       1.0  0.7242402572485318  0.7674064443135575  0.8994255329918345  1.0000
  H   H13       1.0  0.39287275397074234  0.037801417740183786  0.069730492710157  1.0000
  H   H14       1.0  0.6071273797975535  0.9622155536274376  0.9302628437765251  1.0000
  H   H15       1.0  0.0962737576857577  0.3865516476764839  0.05861647489414419  1.0000
  H   H16       1.0  0.9037188025241318  0.6134642681496629  0.9413848390354288  1.0000
  H   H17       1.0  0.9247011924253385  0.4809704567072616  0.1280799868972906  1.0000
  H   H18       1.0  0.07530164520137822  0.5190398292717688  0.8719252816461491  1.0000
  H   H19       1.0  0.1452038353294967  0.6674430009201018  0.4100292626791884  1.0000
  H   H20       1.0  0.8547914905524364  0.3325406285722464  0.5899602067110266  1.0000
  H   H21       1.0  0.1351137673301038  0.8840108535163291  0.4088727846790832  1.0000
  H   H22       1.0  0.8648953137364261  0.11598008219656458  0.5911098229348539  1.0000
  H   H23       1.0  0.8630480643126716  0.9417554543137281  0.5867116671827189  1.0000
  H   H24       1.0  0.13693307890293477  0.058219669366273805  0.4132955985482525  1.0000
  H   H25       1.0  0.8435851775561644  0.7217994685767831  0.5774771795251823  1.0000
  H   H26       1.0  0.15639640965573418  0.2781810812966441  0.4225301111122802  1.0000
  C   C1        1.0  0.08164900433393996  0.9319645774759447  0.15498977572337935  1.0000
  C   C2        1.0  0.9183481949093988  0.0680495578033771  0.8450089396982249  1.0000
  C   C3        1.0  0.8667650030271826  0.9382210069718153  0.21323426850678828  1.0000
  C   C4        1.0  0.13324182362905648  0.0617903444649244  0.7867638248430565  1.0000
  C   C5        1.0  0.7979343782749522  0.0481725222977403  0.22964839267722678  1.0000
  C   C6        1.0  0.2020612342837609  0.9518292060926257  0.7703411230430601  1.0000
  C   C7        1.0  0.9404897483999617  0.15653544269941483  0.18739496036089065  1.0000
  C   C8        1.0  0.05949986077040146  0.8434734104368077  0.8126007730326421  1.0000
  C   C9        1.0  0.1587408503318528  0.15096240746203188  0.1323023763604922  1.0000
  C   C10       1.0  0.8412606477913582  0.8490492197065578  0.8676873409609129  1.0000
  C   C11       1.0  0.22688915534997986  0.03984983634739339  0.11604446176264818  1.0000
  C   C12       1.0  0.77311410516225  0.9601616243798644  0.883950784540346  1.0000
  C   C13       1.0  0.1372445066792025  0.8110670274738467  0.1348340695605472  1.0000
  C   C14       1.0  0.8627590983903488  0.1889669823452067  0.8651639716271547  1.0000
  C   C15       1.0  0.03455234750730093  0.4100414906847192  0.146328748338405  1.0000
  C   C16       1.0  0.9654520924630032  0.5899771494866569  0.8536683741671208  1.0000
  C   C17       1.0  0.2530502358618847  0.4632969312829117  0.23315853626471747  1.0000
  C   C18       1.0  0.7469350930059518  0.5366927326540107  0.7668452383163639  1.0000
  C   C19       1.0  0.3014208899034968  0.7311637063811459  0.44818704987748953  1.0000
  C   C20       1.0  0.6985904859245905  0.26881944372566113  0.5518147750615228  1.0000
  C   C21       1.0  0.29753292314105534  0.8537602152344943  0.4481070631953443  1.0000
  C   C22       1.0  0.7024724465727629  0.1462259075472545  0.5518872829738228  1.0000
  C   C23       1.0  0.4993552026702517  0.9346405982757061  0.498075255075932  1.0000
  C   C24       1.0  0.5006691101487205  0.0653476576166412  0.5019342786234589  1.0000
  C   C25       1.0  0.7000768803736364  0.8858035907985098  0.5449739954382693  1.0000
  C   C26       1.0  0.29993190567928707  0.11417747562747846  0.4550386957038768  1.0000
  C   C27       1.0  0.6911551840889983  0.7623840534727435  0.5409998704029135  1.0000
  C   C28       1.0  0.3088396775414494  0.23759817767923144  0.4590078321440743  1.0000
  S   S1        1.0  0.8175965545891086  0.2862542424171649  0.20598380321335696  1.0000
  S   S2        1.0  0.18237592714943673  0.7137567365173325  0.794005932510224  1.0000
  N   N1        1.0  0.49485414511689635  0.6858815893698136  0.49442086289558757  1.0000
  N   N2        1.0  0.5051439287153343  0.314099730397011  0.505586024078127  1.0000
  O   O1        1.0  0.21272442631979516  0.46787306314695337  0.3469974937246221  1.0000
  O   O2        1.0  0.7872744151477418  0.532110183775579  0.6530048582768584  1.0000
  O   O3        1.0  0.4533981574550765  0.5017934557917485  0.1861097768541669  1.0000
  O   O4        1.0  0.5465900278020043  0.49819862189273306  0.8139041283006347  1.0000
  O   O5        1.0  0.9951524750312472  0.7157019478387736  0.1519884417712163  1.0000
  O   O6        1.0  0.00486218447534273  0.2843066122917008  0.848009886793534  1.0000
  O   O7        1.0  0.364627838931625  0.8134591107087484  0.09523470460638349  1.0000
  O   O8        1.0  0.6353743394987318  0.1865539715876636  0.9047678118995037  1.0000
  O   O9        1.0  0.22058910323699624  0.4594361108634075  0.625486728463855  1.0000
  O   O10       1.0  0.7794022639186409  0.5405507543035809  0.3745181386188036  1.0000
