data_image0
_chemical_formula_structural       Zn8H84C100N4O32
_chemical_formula_sum              "Zn8 H84 C100 N4 O32"
_cell_length_a       10.169712949203696
_cell_length_b       11.094589268370136
_cell_length_c       29.528017203742998
_cell_angle_alpha    89.99928778632147
_cell_angle_beta     90.0004107287523
_cell_angle_gamma    89.9994037911904

_space_group_name_H-M_alt    "P 1"
_space_group_IT_number       1

loop_
  _space_group_symop_operation_xyz
  'x, y, z'

loop_
  _atom_site_type_symbol
  _atom_site_label
  _atom_site_symmetry_multiplicity
  _atom_site_fract_x
  _atom_site_fract_y
  _atom_site_fract_z
  _atom_site_occupancy
  Zn  Zn1       1.0  0.6595717092329919  0.6821799042143014  0.9900270740746182  1.0000
  Zn  Zn2       1.0  0.8404291582439853  0.3178240047287346  0.4900294679819341  1.0000
  Zn  Zn3       1.0  0.3404376541031481  0.1821995931154348  0.5099698915852642  1.0000
  Zn  Zn4       1.0  0.15956338939446368  0.8177941092120308  0.009972856870547303  1.0000
  Zn  Zn5       1.0  0.9653322775362626  0.5651501572772517  0.9943798680125797  1.0000
  Zn  Zn6       1.0  0.5346657301514952  0.43485090569690493  0.4943762083990323  1.0000
  Zn  Zn7       1.0  0.03468923005745949  0.0651765114705611  0.5056142650051855  1.0000
  Zn  Zn8       1.0  0.46531958969616477  0.934820938280751  0.005620482564232501  1.0000
  H   H1        1.0  0.752325538596196  0.9973326574079306  0.021960764969556103  1.0000
  H   H2        1.0  0.7476774299802356  0.0026639941307565005  0.521962822091034  1.0000
  H   H3        1.0  0.2476472722543903  0.49735688366204295  0.47803698473158124  1.0000
  H   H4        1.0  0.2523408539302636  0.5026341611242842  0.9780542971551969  1.0000
  H   H5        1.0  0.8791944371757126  0.14253037752347814  0.9802003308147393  1.0000
  H   H6        1.0  0.6208140931890186  0.8574729507442884  0.48020335085199417  1.0000
  H   H7        1.0  0.1208016097047988  0.6425600195585163  0.5198042730413805  1.0000
  H   H8        1.0  0.3791652218245929  0.3574198417177428  0.019816396749952506  1.0000
  H   H9        1.0  0.9161213550495686  0.2506219066734445  0.9079856545818573  1.0000
  H   H10       1.0  0.5838935454892252  0.7493810743578209  0.4079904493567881  1.0000
  H   H11       1.0  0.083885265226904  0.750632418713764  0.5920208082998216  1.0000
  H   H12       1.0  0.41608797928398633  0.24934057892195938  0.09203319649652293  1.0000
  H   H13       1.0  0.8305965582378149  0.1639064522347766  0.8355047610462735  1.0000
  H   H14       1.0  0.6693863576276229  0.8361169213338684  0.33550664806818287  1.0000
  H   H15       1.0  0.16937958017950183  0.6638804331539845  0.6645004190538091  1.0000
  H   H16       1.0  0.33064138177342534  0.33610822550740954  0.16451658719384454  1.0000
  H   H17       1.0  0.7117037023692704  0.9670985185415405  0.8366920914996927  1.0000
  H   H18       1.0  0.7882782547954932  0.0329221122709384  0.33669333411830143  1.0000
  H   H19       1.0  0.28824342978976597  0.4670542123760484  0.6633089441246159  1.0000
  H   H20       1.0  0.211812906604905  0.5329534131346421  0.16332591774988717  1.0000
  H   H21       1.0  0.6740088173657243  0.8606474184896701  0.9097551097348104  1.0000
  H   H22       1.0  0.8259923533857148  0.13936451831428803  0.40975661930706064  1.0000
  H   H23       1.0  0.3259434557317604  0.360628571995214  0.5902433817804678  1.0000
  H   H24       1.0  0.17410055023935198  0.6393814381977518  0.09025975811103142  1.0000
  H   H25       1.0  0.963483891819074  0.5081093971604247  0.13217920258203725  1.0000
  H   H26       1.0  0.536493827664394  0.4919152042627745  0.6321804521079388  1.0000
  H   H27       1.0  0.0365269196447784  0.0080842537214352  0.3678188311047705  1.0000
  H   H28       1.0  0.4634943217760182  0.9919130923214895  0.8678211433177696  1.0000
  H   H29       1.0  0.942654452011368  0.4761312957810092  0.2150483453138819  1.0000
  H   H30       1.0  0.5573249845812142  0.5238933050868939  0.7150494951275519  1.0000
  H   H31       1.0  0.0573451491956334  0.9760897960301734  0.2849491662735204  1.0000
  H   H32       1.0  0.4426674920316458  0.0238913264651188  0.7849532997502566  1.0000
  H   H33       1.0  0.5238132929433165  0.5333000633335203  0.20498267347484506  1.0000
  H   H34       1.0  0.9761620020848196  0.4666788977221685  0.7049831007707683  1.0000
  H   H35       1.0  0.47618346611498197  0.0332992392117859  0.29500846766604394  1.0000
  H   H36       1.0  0.02383725035360129  0.9666283758581073  0.7950131956594293  1.0000
  H   H37       1.0  0.5478640267926879  0.5727223084661189  0.12273259017977985  1.0000
  H   H38       1.0  0.9520987475446034  0.427260238286685  0.6227372083517722  1.0000
  H   H39       1.0  0.4521421180746684  0.07271812814138913  0.37725667106425237  1.0000
  H   H40       1.0  0.0478871856954939  0.9272302374427567  0.8772606292513886  1.0000
  H   H41       1.0  0.8798918885888438  0.3524091569762717  0.2682722491647027  1.0000
  H   H42       1.0  0.6201024173206378  0.6475956799680987  0.7682733077053998  1.0000
  H   H43       1.0  0.1201248494518694  0.8523769072063203  0.23173160531792555  1.0000
  H   H44       1.0  0.3799142218982894  0.1475735038778652  0.7317282243690431  1.0000
  H   H45       1.0  0.8674549982905402  0.3243500359601086  0.35157352498965383  1.0000
  H   H46       1.0  0.6325420169356947  0.6756619970706339  0.8515727882325026  1.0000
  H   H47       1.0  0.1325443584060793  0.8243330050550174  0.14842843028775127  1.0000
  H   H48       1.0  0.3674821702428872  0.175650770356782  0.6484272563248511  1.0000
  H   H49       1.0  0.5365013967408458  0.5634590563445343  0.3579177088958688  1.0000
  H   H50       1.0  0.9634898502022436  0.43654375613252233  0.8579246820160196  1.0000
  H   H51       1.0  0.46348322041335877  0.06345613387828311  0.1420763374268503  1.0000
  H   H52       1.0  0.036514660321124395  0.9365602973303526  0.6420690476185629  1.0000
  H   H53       1.0  0.5549659363051588  0.6017654776741352  0.2751291496697021  1.0000
  H   H54       1.0  0.9450206452488458  0.3982355300998748  0.7751338876935848  1.0000
  H   H55       1.0  0.4450172628453189  0.1017753522204501  0.22486776324617355  1.0000
  H   H56       1.0  0.054960700566681495  0.8982356730145753  0.7248613779327828  1.0000
  H   H57       1.0  0.9703524466426573  0.3534018095621434  0.05914453446894902  1.0000
  H   H58       1.0  0.5296503090756702  0.6466044444558321  0.5591497759701838  1.0000
  H   H59       1.0  0.029666246318676304  0.8534266918277496  0.4408481393554526  1.0000
  H   H60       1.0  0.4703506084156785  0.14656646821979544  0.9408446489246247  1.0000
  H   H61       1.0  0.0326296481591157  0.05566367523438491  0.06992062116373893  1.0000
  H   H62       1.0  0.4673775540546997  0.9443379852512805  0.5699214749296004  1.0000
  H   H63       1.0  0.9673884898559918  0.5556934805783484  0.43007244603911243  1.0000
  H   H64       1.0  0.5326032687781322  0.44431508917212875  0.9300732338583801  1.0000
  H   H65       1.0  0.9982404876321809  0.1943829720748766  0.09897694605229652  1.0000
  H   H66       1.0  0.5017680099768924  0.8056201793081927  0.5989779790585248  1.0000
  H   H67       1.0  0.001781976231058  0.6944193351741104  0.40101715780495795  1.0000
  H   H68       1.0  0.49821045359074384  0.3055949543916796  0.9010156930604226  1.0000
  H   H69       1.0  0.16341973075770255  0.14188215842746388  0.09432282732522881  1.0000
  H   H70       1.0  0.3365899437081339  0.8581277189755809  0.5943278287742899  1.0000
  H   H71       1.0  0.836597428933544  0.6419185150124846  0.405670509059398  1.0000
  H   H72       1.0  0.6633948073098211  0.3580980619036254  0.9056683041042322  1.0000
  H   H73       1.0  0.25493583898798994  0.1263772574799802  0.015132424885706503  1.0000
  H   H74       1.0  0.24506334475933764  0.873630697839801  0.5151337393565427  1.0000
  H   H75       1.0  0.7450873965750519  0.6264010867848172  0.48486098493019386  1.0000
  H   H76       1.0  0.7549005807648257  0.373611102869937  0.9848643520558158  1.0000
  H   H77       1.0  0.18932091332945328  0.23185296985923293  0.9749320630154588  1.0000
  H   H78       1.0  0.310673048152303  0.7681562032517916  0.4749363153898543  1.0000
  H   H79       1.0  0.8107006694459429  0.7318686457785543  0.5250633128907083  1.0000
  H   H80       1.0  0.6892777805518334  0.2681378193821828  0.0250642125229774  1.0000
  H   H81       1.0  0.1131505342110231  0.0876405718851174  0.9824174044142355  1.0000
  H   H82       1.0  0.386844565719464  0.9123584422169626  0.4824194697662279  1.0000
  H   H83       1.0  0.886867768299517  0.5876566666045734  0.5175752675174297  1.0000
  H   H84       1.0  0.6131065933024472  0.4123446349494628  0.01757427963418221  1.0000
  C   C1        1.0  0.8757111685075571  0.8501480286323471  0.0024685927730275004  1.0000
  C   C2        1.0  0.6242963127048639  0.1498609764060106  0.5024743884180654  1.0000
  C   C3        1.0  0.12427806219390188  0.3501538679486345  0.497530869690273  1.0000
  C   C4        1.0  0.37571538438135826  0.6498374420879218  0.9975389860798674  1.0000
  C   C5        1.0  0.7533291471442496  0.9293629341803609  0.9946953915271808  1.0000
  C   C6        1.0  0.7466708337742176  0.07063811837819152  0.49469838432573  1.0000
  C   C7        1.0  0.2466498787599036  0.429379163648818  0.5052993880519595  1.0000
  C   C8        1.0  0.2533491014564929  0.5706146909293041  0.005313915822718201  1.0000
  C   C9        1.0  0.7741479730556974  0.994829714795728  0.9497135763289466  1.0000
  C   C10       1.0  0.7258540256934792  0.0051791151967109  0.449716150051657  1.0000
  C   C11       1.0  0.22584800970310684  0.4948365627181843  0.550282586706537  1.0000
  C   C12       1.0  0.2741656689168935  0.5051603304404891  0.050294089312743005  1.0000
  C   C13       1.0  0.8426888721778952  0.10420157257095751  0.9486093624285704  1.0000
  C   C14       1.0  0.6573199869263178  0.8958018853515667  0.44861398487397264  1.0000
  C   C15       1.0  0.15731449282625218  0.6042163151451092  0.5513906816455788  1.0000
  C   C16       1.0  0.34267265942693115  0.3957670218439162  0.051403887960191214  1.0000
  C   C17       1.0  0.8634241871813727  0.16493895228160227  0.9078526980966546  1.0000
  C   C18       1.0  0.6365739942761336  0.8350658358702746  0.4078562019629005  1.0000
  C   C19       1.0  0.1365775054153104  0.6649471544891697  0.5921504450981914  1.0000
  C   C20       1.0  0.36340852479733593  0.3350330495744345  0.09216297433854952  1.0000
  C   C21       1.0  0.8155318372831745  0.11623952498083409  0.8674142107470859  1.0000
  C   C22       1.0  0.6844674728484961  0.8837710896447248  0.3674176028508996  1.0000
  C   C23       1.0  0.18445074178154638  0.6162261209649458  0.6325898403219342  1.0000
  C   C24       1.0  0.3155636590544688  0.383766283223146  0.1326047295072499  1.0000
  C   C25       1.0  0.7481333192902042  0.006417832219270301  0.868197710944635  1.0000
  C   C26       1.0  0.7518571572190281  0.993599066281803  0.36819973433527053  1.0000
  C   C27       1.0  0.2518465726048619  0.5064011066545504  0.6318017800603501  1.0000
  C   C28       1.0  0.2481845281280073  0.49360664594153303  0.1318176755259231  1.0000
  C   C29       1.0  0.7273225162103855  0.9458986406316113  0.909111178727173  1.0000
  C   C30       1.0  0.7726766745873946  0.0541115145125701  0.40911295962797584  1.0000
  C   C31       1.0  0.2726425558832232  0.44588839390905843  0.5908865705765152  1.0000
  C   C32       1.0  0.22737884723525068  0.5541161874162412  0.0908994187285188  1.0000
  C   C33       1.0  0.7709022943811519  0.5654338219237331  0.072785744309833  1.0000
  C   C34       1.0  0.7290761612100312  0.4345638749976358  0.572787742857308  1.0000
  C   C35       1.0  0.22909508329778563  0.06545447609762078  0.4272093086093776  1.0000
  C   C36       1.0  0.27091952221956467  0.9345508463795228  0.9272137854207757  1.0000
  C   C37       1.0  0.7569900567317518  0.5427436402585855  0.12240035494489383  1.0000
  C   C38       1.0  0.7429874603087043  0.4572470294008468  0.622400587296987  1.0000
  C   C39       1.0  0.2430174115264876  0.0427639781908056  0.3775948053939616  1.0000
  C   C40       1.0  0.2570069823681536  0.9572375554892152  0.8775967696610822  1.0000
  C   C41       1.0  0.867620950365513  0.5136951929728325  0.14855368842305694  1.0000
  C   C42       1.0  0.6323649750570014  0.48630183380205255  0.6485545248843041  1.0000
  C   C43       1.0  0.1323897975617285  0.013697610667797702  0.3514443187574798  1.0000
  C   C44       1.0  0.367633071167802  0.9862984671433921  0.8514437105140119  1.0000
  C   C45       1.0  0.8551029938113713  0.4947230869751635  0.19487514841664225  1.0000
  C   C46       1.0  0.6448838914050653  0.5052769347266164  0.6948755874488556  1.0000
  C   C47       1.0  0.14489737954772156  0.9947170482869935  0.3051219364201644  1.0000
  C   C48       1.0  0.3551117463360923  0.005274231988828098  0.8051228929587925  1.0000
  C   C49       1.0  0.7315460988541248  0.5018718564526665  0.21630479511482295  1.0000
  C   C50       1.0  0.7684382805376941  0.4981202551032879  0.7163079450552632  1.0000
  C   C51       1.0  0.26845200012415665  0.0018823975360576005  0.28369292933640383  1.0000
  C   C52       1.0  0.23155963179132746  0.9980852459322023  0.7836926051039157  1.0000
  C   C53       1.0  0.621167915376475  0.5299712013055142  0.18953442310367316  1.0000
  C   C54       1.0  0.8788129594753186  0.4700019544915719  0.6895366251900372  1.0000
  C   C55       1.0  0.3788367479012181  0.029984322079279504  0.31045978172424793  1.0000
  C   C56       1.0  0.12118035527731051  0.9699761383482153  0.8104627033969934  1.0000
  C   C57       1.0  0.6336022793692493  0.5510551464664886  0.1433030419437245  1.0000
  C   C58       1.0  0.8663707543168329  0.44892222224071787  0.6433042969918078  1.0000
  C   C59       1.0  0.3664031279299635  0.0510740878241691  0.3566886924383682  1.0000
  C   C60       1.0  0.1336208329816344  0.9488947785389498  0.8566927607501998  1.0000
  C   C61       1.0  0.7192602477305668  0.48037144349025607  0.26547101724116123  1.0000
  C   C62       1.0  0.7807241670087136  0.5196352875992644  0.7654724025346198  1.0000
  C   C63       1.0  0.28074520507900047  0.9803583003631287  0.23452681287660232  1.0000
  C   C64       1.0  0.2192703245305623  0.0196316784980155  0.7345283805368512  1.0000
  C   C65       1.0  0.80622110021239  0.4014294812952813  0.2878026454217846  1.0000
  C   C66       1.0  0.693767710491599  0.5985756196356533  0.7878020867343241  1.0000
  C   C67       1.0  0.1937763985352277  0.901419699524382  0.2121989449724282  1.0000
  C   C68       1.0  0.3062485015650935  0.09855568531047254  0.7121945974547546  1.0000
  C   C69       1.0  0.7985243161686385  0.383784122517639  0.3342859884084604  1.0000
  C   C70       1.0  0.7014693908440465  0.6162374881586885  0.8342840106043286  1.0000
  C   C71       1.0  0.20147043291075312  0.8837640669551449  0.16571500821001456  1.0000
  C   C72       1.0  0.29854563743826645  0.11622545375516317  0.6657112353146106  1.0000
  C   C73       1.0  0.7015215113163366  0.44232351368724204  0.35988243641591583  1.0000
  C   C74       1.0  0.7984579765148823  0.5576828401782877  0.8598836855926282  1.0000
  C   C75       1.0  0.29845782375279123  0.942310578705488  0.14011218715875637  1.0000
  C   C76       1.0  0.20154001636961988  0.0577014098086011  0.64011082142315  1.0000
  C   C77       1.0  0.6121918788868898  0.5186885493016646  0.33792300028886774  1.0000
  C   C78       1.0  0.8878019035547027  0.4813275345762732  0.8379244938199052  1.0000
  C   C79       1.0  0.38779422961615506  0.0186766831954515  0.16207024199857764  1.0000
  C   C80       1.0  0.1122060321465526  0.9813291806372533  0.6620683465425901  1.0000
  C   C81       1.0  0.6220037550061122  0.5385025219783018  0.2914813101459189  1.0000
  C   C82       1.0  0.8779772654894201  0.4614979521725431  0.7914842278016467  1.0000
  C   C83       1.0  0.37797721196882617  0.038514471376871015  0.20851082230300483  1.0000
  C   C84       1.0  0.1220210621415987  0.9614952848077891  0.7085110770544604  1.0000
  C   C85       1.0  0.697592816774211  0.4246870900674367  0.41005888675194063  1.0000
  C   C86       1.0  0.8024054102765916  0.5753365542485867  0.9100610781545486  1.0000
  C   C87       1.0  0.30239458498584787  0.9246667416809871  0.08993954560969543  1.0000
  C   C88       1.0  0.19761204867528898  0.0753378708670098  0.5899374092974199  1.0000
  C   C89       1.0  0.025895970964811003  0.3210207421125517  0.029544432564058806  1.0000
  C   C90       1.0  0.4741133445020296  0.6789885455110181  0.5295438498186372  1.0000
  C   C91       1.0  0.9741339058827094  0.8210464613149284  0.4704524584883958  1.0000
  C   C92       1.0  0.525868522631896  0.17895177711638868  0.9704531310474069  1.0000
  C   C93       1.0  0.0680530140177567  0.1471503294194534  0.07695241411722982  1.0000
  C   C94       1.0  0.43195040065620566  0.8528556082472536  0.5769559837093683  1.0000
  C   C95       1.0  0.9319650692433967  0.647182504963908  0.4230419133252284  1.0000
  C   C96       1.0  0.5680285103299808  0.3528244915748999  0.9230411901056998  1.0000
  C   C97       1.0  0.16478400133770066  0.16160042229478216  0.9995623660365143  1.0000
  C   C98       1.0  0.33521342045126795  0.838403440274881  0.4995649920862065  1.0000
  C   C99       1.0  0.8352393618365924  0.6616211746227164  0.5004316491006692  1.0000
  C   C100      1.0  0.6647454609943679  0.3383806863448413  0.00043351001714600013  1.0000
  N   N1        1.0  0.0822512234210961  0.21370140856156894  0.0347526916427654  1.0000
  N   N2        1.0  0.41774640027716  0.7863068077196474  0.5347568796985201  1.0000
  N   N3        1.0  0.917769054686637  0.7137269342852973  0.4652419981143865  1.0000
  N   N4        1.0  0.5822253992823788  0.2862813890235074  0.9652399317872169  1.0000
  O   O1        1.0  0.8638259648644108  0.7382440372747114  0.9936627249169235  1.0000
  O   O2        1.0  0.63618874429541  0.26176065430765766  0.49366386168669163  1.0000
  O   O3        1.0  0.1361886621932697  0.2382558793549876  0.5063288954613654  1.0000
  O   O4        1.0  0.3638103393097508  0.7617343363665723  0.006337035240179002  1.0000
  O   O5        1.0  0.9797926172915793  0.9011072912937976  0.0157332914102426  1.0000
  O   O6        1.0  0.5202102222568  0.09890308345508458  0.5157438114033043  1.0000
  O   O7        1.0  0.020188168602935295  0.40112086628098353  0.4842611885434352  1.0000
  O   O8        1.0  0.4798000863259446  0.5988798903795997  0.9842620150942099  1.0000
  O   O9        1.0  0.6375789913299527  0.8594438016717303  0.9957158003151891  1.0000
  O   O10       1.0  0.8624278939428154  0.1405536121797937  0.495719426546522  1.0000
  O   O11       1.0  0.3624165607666114  0.3594787893034876  0.5042752462727266  1.0000
  O   O12       1.0  0.13758534813622697  0.6405214080550082  0.0042905106935223  1.0000
  O   O13       1.0  0.6728823396416601  0.6116165918369987  0.052489873698007714  1.0000
  O   O14       1.0  0.8271094615237188  0.3884187224135118  0.5524886085997096  1.0000
  O   O15       1.0  0.3271213972728759  0.11162122677135497  0.4475032673489069  1.0000
  O   O16       1.0  0.1729034619381622  0.888384334560584  0.9475144928289227  1.0000
  O   O17       1.0  0.8800066368343094  0.5350413047369216  0.054664518037711204  1.0000
  O   O18       1.0  0.6199773431764086  0.4649497728584961  0.554666102160823  1.0000
  O   O19       1.0  0.11998616910189952  0.0350642114197655  0.4453283081068166  1.0000
  O   O20       1.0  0.38001406213556516  0.9649558424989593  0.9453369755389435  1.0000
  O   O21       1.0  0.7985754786290895  0.3753109044481349  0.42747580793219  1.0000
  O   O22       1.0  0.7014083597377834  0.6246905393761751  0.9274758218962589  1.0000
  O   O23       1.0  0.20141150020799614  0.8752794692958903  0.0725296314108164  1.0000
  O   O24       1.0  0.29858690614710776  0.12472661292070339  0.5725220931621922  1.0000
  O   O25       1.0  0.5964847508672477  0.4633682453092122  0.4311731928813388  1.0000
  O   O26       1.0  0.9035139137845859  0.5366384857786671  0.931175479514238  1.0000
  O   O27       1.0  0.40350319526893236  0.9633611411832346  0.06882912028522273  1.0000
  O   O28       1.0  0.09649513441739539  0.0366531737812394  0.5688269163525987  1.0000
  O   O29       1.0  0.03304740341027209  0.3833515778423049  0.9939470102908604  1.0000
  O   O30       1.0  0.466973501405228  0.6166677906933345  0.49394796477194813  1.0000
  O   O31       1.0  0.9669999931299811  0.8833618761987695  0.5060483258481414  1.0000
  O   O32       1.0  0.532997729062913  0.11664520951051571  0.006045829711517601  1.0000
