data_image0
_chemical_formula_structural       Dy4H44C64N8O20
_chemical_formula_sum              "Dy4 H44 C64 N8 O20"
_cell_length_a       8.299958725276436
_cell_length_b       14.01844786413576
_cell_length_c       13.95146896503942
_cell_angle_alpha    84.9478174932998
_cell_angle_beta     72.69503164333358
_cell_angle_gamma    72.77920005076962

_space_group_name_H-M_alt    "P 1"
_space_group_IT_number       1

loop_
  _space_group_symop_operation_xyz
  'x, y, z'

loop_
  _atom_site_type_symbol
  _atom_site_label
  _atom_site_symmetry_multiplicity
  _atom_site_fract_x
  _atom_site_fract_y
  _atom_site_fract_z
  _atom_site_occupancy
  Dy  Dy1       1.0  0.9187855907820642  0.8617513600716153  0.976729964014595  1.0000
  Dy  Dy2       1.0  0.7569852495131927  0.1383004704777591  0.0232110378919614  1.0000
  Dy  Dy3       1.0  0.21943335378850282  0.023415430463060695  0.8612258274322715  1.0000
  Dy  Dy4       1.0  0.10416654058536089  0.976653326963678  0.1387422015908939  1.0000
  H   H1        1.0  0.7476362419783273  0.9706497358805419  0.15347798616712544  1.0000
  H   H2        1.0  0.8717872718217876  0.029460082589807313  0.8463443967276589  1.0000
  H   H3        1.0  0.28127616367265773  0.8474798107894586  0.9699048663183234  1.0000
  H   H4        1.0  0.09855659302180439  0.15245887232646277  0.030057907432166103  1.0000
  H   H5        1.0  0.38582118942904486  0.7167315995538885  0.1385485072552157  1.0000
  H   H6        1.0  0.2401382877534602  0.28306781397596126  0.8614900925724172  1.0000
  H   H7        1.0  0.8989705037636784  0.8619502623055268  0.7167245977445589  1.0000
  H   H8        1.0  0.47720713275595733  0.13818204007289842  0.2830640012544663  1.0000
  H   H9        1.0  0.6874819975242019  0.6340325070889747  0.1477437329272036  1.0000
  H   H10       1.0  0.46844290478696854  0.3655641098828823  0.8522498217060887  1.0000
  H   H11       1.0  0.6797291258488438  0.8528805370793079  0.6340478972932857  1.0000
  H   H12       1.0  0.1660330401037911  0.14741678802646868  0.3656791399401413  1.0000
  H   H13       1.0  0.7562864574646683  0.46876924171023393  0.23267419460212585  1.0000
  H   H14       1.0  0.45701933963763974  0.5309034029840092  0.7674867780034731  1.0000
  H   H15       1.0  0.775510222830398  0.767271425543953  0.4686044060020507  1.0000
  H   H16       1.0  0.010889875978804812  0.23285136120996697  0.5312472562690616  1.0000
  H   H17       1.0  0.5168173770584019  0.3924136341270028  0.3180851383500496  1.0000
  H   H18       1.0  0.22666923334651298  0.607380247197561  0.6819819901006667  1.0000
  H   H19       1.0  0.09093332475910663  0.6812438810231426  0.392156705175239  1.0000
  H   H20       1.0  0.16405785770632525  0.31858025879922275  0.6078533660293104  1.0000
  H   H21       1.0  0.20097551561786275  0.4003196400885117  0.3711491280399173  1.0000
  H   H22       1.0  0.971947013618518  0.5994880505495459  0.628655236777135  1.0000
  H   H23       1.0  0.39919972548084826  0.6283022720449054  0.3997941178761764  1.0000
  H   H24       1.0  0.4267143454794536  0.37145489973644885  0.6002677553018643  1.0000
  H   H25       1.0  0.8960616762570768  0.4842596873183779  0.36424670276002064  1.0000
  H   H26       1.0  0.7439408255365406  0.5156787762314963  0.6356057102643293  1.0000
  H   H27       1.0  0.6203486138034857  0.6353259347190913  0.4837065581589428  1.0000
  H   H28       1.0  0.738828204400853  0.3645988607587966  0.5162704799030919  1.0000
  H   H29       1.0  0.8331527613377219  0.6400851402882992  0.2639813554240931  1.0000
  H   H30       1.0  0.736195612063142  0.35995306555172846  0.7360407278322897  1.0000
  H   H31       1.0  0.5280428258821319  0.7359368500556371  0.6398069253901044  1.0000
  H   H32       1.0  0.9031907871808187  0.2640892078342958  0.3601205629581514  1.0000
  H   H33       1.0  0.989812505799627  0.5941091655674383  0.9842675265347438  1.0000
  H   H34       1.0  0.5675339596254291  0.4061046534951202  0.0158348873182135  1.0000
  H   H35       1.0  0.41718972205786287  0.015466088073516477  0.5928022650926721  1.0000
  H   H36       1.0  0.02565316046205629  0.9844319205229155  0.4074255245512077  1.0000
  H   H37       1.0  0.8316911349752163  0.47248783252952364  0.9643455385830961  1.0000
  H   H38       1.0  0.26776875032570774  0.5278156510119985  0.0356930612445368  1.0000
  H   H39       1.0  0.6975228507483777  0.035160334477986055  0.4706126709165304  1.0000
  H   H40       1.0  0.20362660493067633  0.9645836565337049  0.5296008544158042  1.0000
  H   H41       1.0  0.47469068794589486  0.7017520165807554  0.8605426419847293  1.0000
  H   H42       1.0  0.036069705649310994  0.29864290213000527  0.1396228351403082  1.0000
  H   H43       1.0  0.8237607153944569  0.13951157938917194  0.7009317526077368  1.0000
  H   H44       1.0  0.6644312889726223  0.860415515330601  0.2991346250897493  1.0000
  C   C1        1.0  0.09928581065100428  0.6477952537460893  0.2196103374892786  1.0000
  C   C2        1.0  0.9656669395245674  0.35219069622385757  0.7804380221304683  1.0000
  C   C3        1.0  0.2543595591698633  0.7803401732445749  0.6474616054155362  1.0000
  C   C4        1.0  0.6817232822165951  0.2195800507488457  0.35243209903696043  1.0000
  C   C5        1.0  0.27498854136068496  0.6028041178929369  0.22444218533585314  1.0000
  C   C6        1.0  0.10128594986485956  0.3971106368852091  0.7755986667514989  1.0000
  C   C7        1.0  0.12342121857393801  0.7754961142411503  0.6025515466550787  1.0000
  C   C8        1.0  0.5010426762728885  0.22442747984405292  0.39734891457656835  1.0000
  C   C9        1.0  0.41415317197826346  0.6457109238768481  0.1776417299194506  1.0000
  C   C10       1.0  0.23655620171164318  0.3540816769641851  0.8223735965577745  1.0000
  C   C11       1.0  0.9415616564611253  0.8226423724433687  0.6455914790970427  1.0000
  C   C12       1.0  0.4092912527806261  0.177430803507832  0.3542203932523976  1.0000
  C   C13       1.0  0.5830241020243105  0.5990831618768552  0.1824930973502461  1.0000
  C   C14       1.0  0.36377472751711787  0.4005951697806864  0.8175019587895278  1.0000
  C   C15       1.0  0.8190535049228912  0.8178797035960984  0.5989787119904051  1.0000
  C   C16       1.0  0.2353664934696553  0.18232379592529915  0.4007715985934368  1.0000
  C   C17       1.0  0.6211211062819829  0.5062395999583486  0.2321651839060479  1.0000
  C   C18       1.0  0.358774938827672  0.4934869909766846  0.7679267194015651  1.0000
  C   C19       1.0  0.8733789771100149  0.7678336021399303  0.5060474730468343  1.0000
  C   C20       1.0  0.14678214489502758  0.23223238400820628  0.4937869218997761  1.0000
  C   C21       1.0  0.4882134208631897  0.4634236160296581  0.2793049797865024  1.0000
  C   C22       1.0  0.23023173129374894  0.5363636754980803  0.720762148664214  1.0000
  C   C23       1.0  0.04890157250028442  0.7203049586527257  0.463201985693786  1.0000
  C   C24       1.0  0.23198713977815538  0.2795964197858822  0.5367457729919209  1.0000
  C   C25       1.0  0.3120485329081788  0.5105866106818339  0.2781728439020057  1.0000
  C   C26       1.0  0.10008211126842062  0.4892620323558319  0.7218094494326976  1.0000
  C   C27       1.0  0.17816625799544297  0.7215080678020341  0.5102674570035788  1.0000
  C   C28       1.0  0.4095119612418331  0.27833502640228147  0.489674295656215  1.0000
  C   C29       1.0  0.17220943430903193  0.4694354824801649  0.3289335226544382  1.0000
  C   C30       1.0  0.9699662751160717  0.5304220661211971  0.6709526742656635  1.0000
  C   C31       1.0  0.35900448945546537  0.6706380873431569  0.4690225755562025  1.0000
  C   C32       1.0  0.4981554417577387  0.3291726815687639  0.5310062644793234  1.0000
  C   C33       1.0  0.0029652455205280304  0.5162291611298784  0.3249004762542214  1.0000
  C   C34       1.0  0.8433771803100499  0.48368676986439135  0.6750014864839073  1.0000
  C   C35       1.0  0.4816220203935302  0.6747450504154457  0.51581477268698  1.0000
  C   C36       1.0  0.6716316546808159  0.3251516062195136  0.4841885417384191  1.0000
  C   C37       1.0  0.9667992200286546  0.6047906320174192  0.2684363251446626  1.0000
  C   C38       1.0  0.8390402206681531  0.3952111518520808  0.7316075299556462  1.0000
  C   C39       1.0  0.4296413359856218  0.7313831789664745  0.604489991518328  1.0000
  C   C40       1.0  0.7649513820848172  0.26859490773034617  0.3954502596349911  1.0000
  C   C41       1.0  0.06170804669530157  0.7420021699223438  0.159760289271567  1.0000
  C   C42       1.0  0.9627319283738274  0.25802164825660867  0.8403015839064807  1.0000
  C   C43       1.0  0.19749962528658216  0.8403925146199853  0.7416728786316968  1.0000
  C   C44       1.0  0.7792799538170602  0.1594790460234634  0.2582343393791007  1.0000
  C   C45       1.0  0.6780426039335551  0.744532645874031  0.8986711467367741  1.0000
  C   C46       1.0  0.3204527155437944  0.2557682571840942  0.101373459116779  1.0000
  C   C47       1.0  0.577824025133836  0.10113549396503166  0.7439041172581824  1.0000
  C   C48       1.0  0.42299885262533393  0.8989314231469621  0.2562268252178583  1.0000
  C   C49       1.0  0.8759588187300907  0.6180944561768628  0.9551157782621118  1.0000
  C   C50       1.0  0.4484271131534427  0.3821904341366462  0.0449536024483237  1.0000
  C   C51       1.0  0.5069547534414127  0.044570824751936286  0.6168879305081347  1.0000
  C   C52       1.0  0.1686186581350028  0.955345789194226  0.3833255948241999  1.0000
  C   C53       1.0  0.7865108375672489  0.5509571346338262  0.9444806078776155  1.0000
  C   C54       1.0  0.2812100852849184  0.44934211004352415  0.0555602442097367  1.0000
  C   C55       1.0  0.6638318284322792  0.05511721032937796  0.5494537730694589  1.0000
  C   C56       1.0  0.2686831028219173  0.9446831748576514  0.45074173418514374  1.0000
  C   C57       1.0  0.5907721638692821  0.6765174156278277  0.887987177391736  1.0000
  C   C58       1.0  0.15444265875445504  0.3238081431653228  0.11212124248713452  1.0000
  C   C59       1.0  0.7332505146906599  0.11186592295102567  0.6755923292830417  1.0000
  C   C60       1.0  0.520945692644482  0.8880546763787008  0.3245198443620154  1.0000
  C   C61       1.0  0.6170305810994493  0.8544585550595655  0.8757604101404368  1.0000
  C   C62       1.0  0.3467658766406032  0.1458034347075383  0.12416557670134412  1.0000
  C   C63       1.0  0.5284340586019171  0.123983697243176  0.854344423243063  1.0000
  C   C64       1.0  0.5068297349778351  0.8762268787044575  0.14576249512932551  1.0000
  N   N1        1.0  0.8202262049193649  0.7149122261449321  0.9336142054954877  1.0000
  N   N2        1.0  0.46796217816952884  0.28537357604749036  0.0664364063839713  1.0000
  N   N3        1.0  0.4654819173442279  0.0661420259094285  0.7141690337188038  1.0000
  N   N4        1.0  0.24593132242549853  0.933904995746772  0.2860039509386212  1.0000
  N   N5        1.0  0.643063529879505  0.57964212913474  0.9119226921593864  1.0000
  N   N6        1.0  0.13387761443497226  0.4206676328422887  0.0881504423172501  1.0000
  N   N7        1.0  0.7783236325281419  0.08776078184713036  0.5782774421766135  1.0000
  N   N8        1.0  0.44466238963186555  0.9120329749955471  0.4218722691304038  1.0000
  O   O1        1.0  0.038562405682583366  0.7337643181798156  0.0749229209982829  1.0000
  O   O2        1.0  0.8468648389657787  0.2662363565202667  0.9252553189318178  1.0000
  O   O3        1.0  0.22814151913836866  0.9250554906809613  0.7330444716552053  1.0000
  O   O4        1.0  0.8860798808294632  0.07488010289783625  0.2669355694197861  1.0000
  O   O5        1.0  0.05870819718277427  0.8224627814104509  0.19677467621684744  1.0000
  O   O6        1.0  0.07732240836613609  0.17760859110366306  0.8032038633516622  1.0000
  O   O7        1.0  0.11997290592995546  0.8036076915730349  0.8226416154641143  1.0000
  O   O8        1.0  0.7460448181247868  0.19619911082064323  0.17722506187177342  1.0000
  O   O9        1.0  0.7081015019356725  0.9085162315233928  0.8883527942191594  1.0000
  O   O10       1.0  0.5045063026628611  0.09183157274870267  0.1115889584406418  1.0000
  O   O11       1.0  0.38349655621140505  0.11104902351168991  0.9086674261148318  1.0000
  O   O12       1.0  0.40329998927759214  0.8891404544009089  0.0914259786992559  1.0000
  O   O13       1.0  0.48190334532567647  0.8847336876132273  0.8449134610540129  1.0000
  O   O14       1.0  0.21118036948496405  0.11539574073858457  0.15493219519117932  1.0000
  O   O15       1.0  0.6329584114011553  0.15505425395636513  0.8847176470356359  1.0000
  O   O16       1.0  0.6728021188173656  0.8451787037654482  0.1153449768956492  1.0000
  O   O17       1.0  0.8438902414202264  0.9835711639963732  0.09931038921584451  1.0000
  O   O18       1.0  0.9267026766594809  0.016498775726276425  0.9005525343538494  1.0000
  O   O19       1.0  0.1720057284973394  0.9012592668289158  0.983446953244453  1.0000
  O   O20       1.0  0.05656985983539904  0.0987266469408681  0.016459514013107  1.0000
