data_image0
_chemical_formula_structural       Zn6H24C44N12O24
_chemical_formula_sum              "Zn6 H24 C44 N12 O24"
_cell_length_a       7.740968522
_cell_length_b       8.729483410080304
_cell_length_c       19.38
_cell_angle_alpha    90.0
_cell_angle_beta     90.0
_cell_angle_gamma    110.59696829740139

_space_group_name_H-M_alt    "P 1"
_space_group_IT_number       1

loop_
  _space_group_symop_operation_xyz
  'x, y, z'

loop_
  _atom_site_type_symbol
  _atom_site_label
  _atom_site_symmetry_multiplicity
  _atom_site_fract_x
  _atom_site_fract_y
  _atom_site_fract_z
  _atom_site_occupancy
  Zn  Zn1       1.0  0.4999994411303844  0.9999902098502602  0.49999845201238463  1.0000
  Zn  Zn2       1.0  4.534030601599998e-06  1.46852246061e-05  0.9999969040247693  1.0000
  Zn  Zn3       1.0  0.9762847928027725  0.2916901688491365  0.4747972136222884  1.0000
  Zn  Zn4       1.0  0.5237105113398997  0.7083075434376198  0.9747966976264166  1.0000
  Zn  Zn5       1.0  0.02370249605823461  0.7082989770566002  0.525201754385968  1.0000
  Zn  Zn6       1.0  0.47629068362108734  0.2917036303050295  0.0252022703818398  1.0000
  H   H1        1.0  0.4623814593966883  0.868053416722276  0.308760577915379  1.0000
  H   H2        1.0  0.03761752929784729  0.1319442955644803  0.80875799793602  1.0000
  H   H3        1.0  0.5376121323894549  0.1319418480270471  0.6912342621259029  1.0000
  H   H4        1.0  0.9623852783427294  0.8680644306407359  0.1912389060887492  1.0000
  H   H5        1.0  0.3999025155850404  0.8004695655393235  0.1838900928792597  1.0000
  H   H6        1.0  0.1001047011441116  0.1995195803664203  0.6838869969040218  1.0000
  H   H7        1.0  0.6001103142497826  0.1995513983530657  0.8161057791537658  1.0000
  H   H8        1.0  0.899896476973481  0.8004720130767566  0.3161109391124839  1.0000
  H   H9        1.0  0.8979457555566838  0.1916336147519786  0.1302342621259029  1.0000
  H   H10       1.0  0.6020477712697598  0.8083628737660646  0.6302399380804928  1.0000
  H   H11       1.0  0.10204702988966124  0.8083628737660646  0.8697698658410715  1.0000
  H   H12       1.0  0.3979666628229593  0.1916458524391516  0.3697667698658407  1.0000
  H   H13       1.0  0.9576746996913383  0.2657634048039057  0.2547430340557284  1.0000
  H   H14       1.0  0.5423094634874133  0.7342355312515707  0.7547445820433438  1.0000
  H   H15       1.0  0.0423095031820253  0.7342049370336383  0.7452585139318871  1.0000
  H   H16       1.0  0.4576917314735667  0.2657756424910787  0.24525541795665623  1.0000
  H   H17       1.0  0.37175499666110307  0.2770673564458264  0.5818095975232184  1.0000
  H   H18       1.0  0.12824883849391713  0.7229328033783631  0.0818085655314746  1.0000
  H   H19       1.0  0.6282440917103713  0.7229352509157962  0.4181888544891663  1.0000
  H   H20       1.0  0.8717505707291405  0.2770673564458264  0.9181940144478844  1.0000
  H   H21       1.0  0.6182537503771073  0.5996173010397357  0.5999989680082578  1.0000
  H   H22       1.0  0.8817459231595279  0.4003914251654805  0.1000025799793605  1.0000
  H   H23       1.0  0.3817390350692378  0.4003791874783076  0.4000036119711012  1.0000
  H   H24       1.0  0.11825091082919668  0.5996185248084558  0.9000056759545956  1.0000
  C   C1        1.0  0.7448537372269755  0.1097145368142805  0.3639932920536637  1.0000
  C   C2        1.0  0.7551511036217207  0.8902941893909286  0.8639948400412791  1.0000
  C   C3        1.0  0.2551563274717807  0.8902831754724758  0.6360087719298235  1.0000
  C   C4        1.0  0.24484976206598924  0.1097096417394141  0.1360051599587209  1.0000
  C   C5        1.0  0.7135473460726158  0.0709639003802067  0.2891284829721386  1.0000
  C   C6        1.0  0.7864387506373092  0.9290301406004033  0.789127450980395  1.0000
  C   C7        1.0  0.286438971811954  0.9290227979880967  0.7108694530443742  1.0000
  C   C8        1.0  0.21356664065929454  0.0709785856048128  0.2108704850361178  1.0000
  C   C9        1.0  0.5572577126247465  0.938498439166338  0.2693235294117642  1.0000
  C   C10       1.0  0.9427429150449311  0.0614931542768318  0.769324045407636  1.0000
  C   C11       1.0  0.4427256923305194  0.061480916589658804  0.7306749226006204  1.0000
  C   C12       1.0  0.05727346100065493  0.9385204670032508  0.2306738906088768  1.0000
  C   C13       1.0  0.5232028382240869  0.9001724504771715  0.200051599587205  1.0000
  C   C14       1.0  0.9767916595787864  0.0998264855783049  0.7000536635706922  1.0000
  C   C15       1.0  0.47677752285201785  0.0998350519593245  0.799948400412795  1.0000
  C   C16       1.0  0.023222766092232037  0.9001724504771715  0.2999468524251796  1.0000
  C   C17       1.0  0.6460228295795929  0.9918816781534615  0.1498224974200184  1.0000
  C   C18       1.0  0.8539769917502794  0.0081111390584283  0.649823529411762  1.0000
  C   C19       1.0  0.3539832034201708  0.0081221529768811  0.8501795665634687  1.0000
  C   C20       1.0  0.14602644917175667  0.9918829019221816  0.3501780185758534  1.0000
  C   C21       1.0  0.8001073636250594  0.1260959048643855  0.1696666666666644  1.0000
  C   C22       1.0  0.699890688810285  0.8739054787285241  0.6696692466460235  1.0000
  C   C23       1.0  0.1999044868116258  0.8739128213408307  0.8303343653250793  1.0000
  C   C24       1.0  0.30010259054597554  0.12610202370797202  0.3303353973168228  1.0000
  C   C25       1.0  0.8339513290560062  0.1659026537015151  0.23890092879256744  1.0000
  C   C26       1.0  0.6660391286261883  0.834092611047808  0.7389029927760546  1.0000
  C   C27       1.0  0.1660492073584265  0.8340938348165281  0.7610975232198172  1.0000
  C   C28       1.0  0.3339555987730236  0.1659087725451016  0.2610985552115608  1.0000
  C   C29       1.0  0.6229367816954506  0.9405041960940324  0.0761744066047498  1.0000
  C   C30       1.0  0.8770601267051175  0.059481278505551  0.576173890608878  1.0000
  C   C31       1.0  0.37705955838335825  0.0594947399614441  0.9238183694530449  1.0000
  C   C32       1.0  0.12294606250959111  0.9405164337812053  0.4238199174406602  1.0000
  C   C33       1.0  0.5128729069691997  0.3370320235947233  0.5646429308565502  1.0000
  C   C34       1.0  0.9871296710750457  0.6629742550730597  0.0646429308565502  1.0000
  C   C35       1.0  0.4871252104258446  0.6629681362294662  0.4353575851393217  1.0000
  C   C36       1.0  0.012869581933067331  0.3370320235947233  0.9353596491228089  1.0000
  C   C37       1.0  0.6335191250475987  0.49675342150503354  0.5729664602683187  1.0000
  C   C38       1.0  0.866480383852398  0.5032516333940293  0.0729685242518059  1.0000
  C   C39       1.0  0.3664697849146989  0.5032430670130098  0.42703405572755326  1.0000
  C   C40       1.0  0.13351886915571504  0.49675464527375374  0.9270356037151687  1.0000
  C   C41       1.0  0.9200131197949373  0.5207429596707485  0.3224251805985574  1.0000
  C   C42       1.0  0.579997538490673  0.4792706616093412  0.8224220846233266  1.0000
  C   C43       1.0  0.08001243841830068  0.4792449624662751  0.6775753353973144  1.0000
  C   C44       1.0  0.4199841059917516  0.5207270506774222  0.17758565531475773  1.0000
  N   N1        1.0  0.6008360371829937  0.2576008674593524  0.5264530443756428  1.0000
  N   N2        1.0  0.8991644342717392  0.7423968448274111  0.026449948400411902  1.0000
  N   N3        1.0  0.3991635282550021  0.7423931735212577  0.47354643962848547  1.0000
  N   N4        1.0  0.1008346540997351  0.2576057625342187  0.9735490196078446  1.0000
  N   N5        1.0  0.7680475901453859  0.3633785403100021  0.5111867905056755  1.0000
  N   N6        1.0  0.7319546586255752  0.6366203957454744  0.0111867905056755  1.0000
  N   N7        1.0  0.2319514898043877  0.6366142769018879  0.4888111455108373  1.0000
  N   N8        1.0  0.2680462070621275  0.3633834353848684  0.9888137254901963  1.0000
  N   N9        1.0  0.7908597296748922  0.5096935519220267  0.5392781217750269  1.0000
  N   N10       1.0  0.7091431692209299  0.4903102792083232  0.0392822497420013  1.0000
  N   N11       1.0  0.2091324056465922  0.4902980415211502  0.4607198142414859  1.0000
  N   N12       1.0  0.29086254292725755  0.5096959994594599  0.9607208462332295  1.0000
  O   O1        1.0  0.608819627259841  0.0454005956440184  0.403152734778125  1.0000
  O   O2        1.0  0.8911806879799469  0.9546032354863314  0.9031455108359125  1.0000
  O   O3        1.0  0.39116151489096757  0.9545763125745452  0.5968457172342596  1.0000
  O   O4        1.0  0.10882939356220327  0.0454140570999115  0.096852941176472  1.0000
  O   O5        1.0  0.9064028295483408  0.2071681348496952  0.3820237358101153  1.0000
  O   O6        1.0  0.5935929600825531  0.7928308012057812  0.8820227038183717  1.0000
  O   O7        1.0  0.09360755600199161  0.7928271298996279  0.6179809081527381  1.0000
  O   O8        1.0  0.40639530817658437  0.2071705823871284  0.1179803921568663  1.0000
  O   O9        1.0  0.48342762142296175  0.8108263201940389  0.0611867905056727  1.0000
  O   O10       1.0  0.016559567761099504  0.1891579306368314  0.5611847265221854  1.0000
  O   O11       1.0  0.5165662912147511  0.189166497017851  0.9388039215686276  1.0000
  O   O12       1.0  0.9834427543912623  0.8108495717996647  0.4388101135190894  1.0000
  O   O13       1.0  0.7413558982970939  0.0195484814905384  0.0321646026831814  1.0000
  O   O14       1.0  0.758640047548738  0.9804443357213514  0.5321589267285844  1.0000
  O   O15       1.0  0.25865950677205524  0.980462692252111  0.9678312693498442  1.0000
  O   O16       1.0  0.2413512898546486  0.0195582716402782  0.4678359133126904  1.0000
  O   O17       1.0  0.07566821718422291  0.5566250822314132  0.3063735810113499  1.0000
  O   O18       1.0  0.4243294965256935  0.4433922103548227  0.8063689370485037  1.0000
  O   O19       1.0  0.9243726783285595  0.4433591685994571  0.6936217750257967  1.0000
  O   O20       1.0  0.5756237361620933  0.5566152920816734  0.1936398348813242  1.0000
  O   O21       1.0  0.7638537625884038  0.4860650255279211  0.3378477812177536  1.0000
  O   O22       1.0  0.7361423647374605  0.5139510432895946  0.8378374613003103  1.0000
  O   O23       1.0  0.23619118988845142  0.513942476908575  0.6621553147574843  1.0000
  O   O24       1.0  0.26380891757575836  0.4860417739222953  0.1621609907120742  1.0000
