data_image0
_chemical_formula_structural       CoH36C32N4O6
_chemical_formula_sum              "Co1 H36 C32 N4 O6"
_cell_length_a       8.132566161067155
_cell_length_b       8.982703589173918
_cell_length_c       11.229310233033644
_cell_angle_alpha    84.15355707303601
_cell_angle_beta     89.5266812760671
_cell_angle_gamma    64.66424536083898

_space_group_name_H-M_alt    "P 1"
_space_group_IT_number       1

loop_
  _space_group_symop_operation_xyz
  'x, y, z'

loop_
  _atom_site_type_symbol
  _atom_site_label
  _atom_site_symmetry_multiplicity
  _atom_site_fract_x
  _atom_site_fract_y
  _atom_site_fract_z
  _atom_site_occupancy
  Co  Co1       1.0  1.0591970251991127e-06  1.0940211439022324e-06  0.9999991223270613  1.0000
  H   H1        1.0  0.23012727550251816  0.0995818600716234  0.07296859552494792  1.0000
  H   H2        1.0  0.7698725199868194  0.9004189505042459  0.9270318173186  1.0000
  H   H3        1.0  0.23295098395421118  0.1384453244001165  0.9275581528633126  1.0000
  H   H4        1.0  0.7670566396737117  0.8615492569393622  0.07244186860800991  1.0000
  H   H5        1.0  0.3111613977774187  0.8309495963812166  0.16230120763233202  1.0000
  H   H6        1.0  0.6888432577370412  0.16904865979523007  0.8376958316031421  1.0000
  H   H7        1.0  0.5176019350157617  0.5412022640809511  0.23375940235958131  1.0000
  H   H8        1.0  0.4823971411179216  0.4587947766123506  0.766237802749778  1.0000
  H   H9        1.0  0.23098770858052833  0.3869400936812681  0.9891019084364815  1.0000
  H   H10       1.0  0.7690097033365364  0.6130630903958404  0.010892074154163822  1.0000
  H   H11       1.0  0.03643281189969393  0.6846543825822519  0.9248818865440429  1.0000
  H   H12       1.0  0.9635645953858543  0.3153488638595973  0.0751156527719701  1.0000
  H   H13       1.0  0.42726404760193065  0.2124510900373195  0.22756637307877983  1.0000
  H   H14       1.0  0.5727326403279706  0.7875483865219621  0.7724279585030445  1.0000
  H   H15       1.0  0.6293157511353089  0.24384110331767764  0.2128207310248627  1.0000
  H   H16       1.0  0.37068144466550745  0.7561546610262153  0.7871739381150178  1.0000
  H   H17       1.0  0.5449614028020663  0.17973818937795022  0.09238570566976283  1.0000
  H   H18       1.0  0.4550358650375019  0.8202600482103432  0.9076087346203752  1.0000
  H   H19       1.0  0.17219175485995916  0.05461120319315431  0.6583225426861219  1.0000
  H   H20       1.0  0.8277968853414709  0.945387129642846  0.3416755343611798  1.0000
  H   H21       1.0  0.7780179155755108  0.8857636299427225  0.5590242960437806  1.0000
  H   H22       1.0  0.22197615992919145  0.11423097188761491  0.44097407282912837  1.0000
  H   H23       1.0  0.4853509253897173  0.061542730766369395  0.7688059468528721  1.0000
  H   H24       1.0  0.51465916774378  0.9384517632220548  0.2311896058455219  1.0000
  H   H25       1.0  0.5330311771188576  0.18125457244126153  0.5691720329294371  1.0000
  H   H26       1.0  0.46697564225195287  0.8187549154269644  0.43083018360189124  1.0000
  H   H27       1.0  0.034288568177437646  0.6149777586342394  0.6098196351289857  1.0000
  H   H28       1.0  0.965717369234156  0.3850232623215675  0.3901940582690954  1.0000
  H   H29       1.0  0.002275245172590765  0.473907414405815  0.8050244340811831  1.0000
  H   H30       1.0  0.9977289711620897  0.5260760958513087  0.19497931334080223  1.0000
  H   H31       1.0  0.21319987200546112  0.4785616010494849  0.3831249627962309  1.0000
  H   H32       1.0  0.7867988961632478  0.5214467898690102  0.6168836667445987  1.0000
  H   H33       1.0  0.44436482527025595  0.4250336225645341  0.4193986700968893  1.0000
  H   H34       1.0  0.5556322798397134  0.5749808961465916  0.5806058477438896  1.0000
  H   H35       1.0  0.2692149810474975  0.6192875141944753  0.45134439750619765  1.0000
  H   H36       1.0  0.7307813942858986  0.38072337495474773  0.5486649152324646  1.0000
  C   C1        1.0  0.2948867736338272  0.729404398735241  0.1277270059572473  1.0000
  C   C2        1.0  0.7051148405705449  0.270595074624957  0.8722681690734576  1.0000
  C   C3        1.0  0.4100379519746797  0.5661592795615673  0.16703445763702268  1.0000
  C   C4        1.0  0.5899618446725369  0.43384151542311133  0.8329650660251816  1.0000
  C   C5        1.0  0.3888629168071987  0.436021214431399  0.12127391511766922  1.0000
  C   C6        1.0  0.6111361639580084  0.5639757638971545  0.8787197332663298  1.0000
  C   C7        1.0  0.25147120813369384  0.48152296206131945  0.03193694692141242  1.0000
  C   C8        1.0  0.7485256901230528  0.518484012187102  0.9680611440178809  1.0000
  C   C9        1.0  0.14217970509694322  0.6472659593944955  0.9951597395038833  1.0000
  C   C10       1.0  0.8578195151142441  0.352736027787614  0.004837007905990701  1.0000
  C   C11       1.0  0.5047416944573869  0.2589750011490821  0.1656753383974561  1.0000
  C   C12       1.0  0.4952555722242951  0.7410232520303949  0.8343199910740252  1.0000
  C   C13       1.0  0.9399278112114617  0.9333039487831271  0.7525468433732814  1.0000
  C   C14       1.0  0.060067565874319905  0.0666931527764234  0.2474530635794423  1.0000
  C   C15       1.0  0.972956276697133  0.9658688037130218  0.621927246090877  1.0000
  C   C16       1.0  0.02703903066565521  0.034125793419754295  0.37807111134891624  1.0000
  C   C17       1.0  0.09786536721830431  0.030574685299463097  0.5883097091786668  1.0000
  C   C18       1.0  0.902128781483029  0.9694223741841057  0.41168754166315574  1.0000
  C   C19       1.0  0.8753091167587  0.9357772586058529  0.532360590562341  1.0000
  C   C20       1.0  0.12468553633991064  0.06421613543587058  0.4676396653815615  1.0000
  C   C21       1.0  0.3858879717837383  0.1830560398662868  0.7296996940024062  1.0000
  C   C22       1.0  0.6141184931827229  0.8169410038239845  0.27029922087094604  1.0000
  C   C23       1.0  0.41221562663908884  0.2508476462635514  0.6179037083383179  1.0000
  C   C24       1.0  0.5877910498121042  0.7491568795246762  0.38209807671115936  1.0000
  C   C25       1.0  0.2851796609916733  0.40871508320555705  0.5704548221731756  1.0000
  C   C26       1.0  0.7148228085406958  0.591293215664322  0.4295493271616095  1.0000
  C   C27       1.0  0.13601443798030746  0.4904754843460353  0.6403610151434479  1.0000
  C   C28       1.0  0.8639915063785608  0.5095254430626638  0.3596473431665927  1.0000
  C   C29       1.0  0.11886075839942836  0.412572377487315  0.750279710452027  1.0000
  C   C30       1.0  0.8811449047517146  0.5874185633966533  0.24972422816895098  1.0000
  C   C31       1.0  0.30559386385149884  0.4867686179270904  0.45029248384372533  1.0000
  C   C32       1.0  0.6944092541556516  0.5132409619897588  0.5497142128936545  1.0000
  N   N1        1.0  0.15974704831962347  0.7717794281344154  0.04387129552170421  1.0000
  N   N2        1.0  0.8402527471697141  0.228221382441447  0.9561291173218436  1.0000
  N   N3        1.0  0.24134776855351714  0.26135093411552635  0.7954413426550887  1.0000
  N   N4        1.0  0.7586615227646549  0.7386374570665948  0.2045592337909312  1.0000
  O   O1        1.0  0.03158809213882572  0.9707446139921528  0.8265623240623796  1.0000
  O   O2        1.0  0.9684123552989308  0.029257430857129  0.1734379686397389  1.0000
  O   O3        1.0  0.8245599661840545  0.8756438320689169  0.7786472805055311  1.0000
  O   O4        1.0  0.1754404080570709  0.12435575512714787  0.22135413022767383  1.0000
  O   O5        1.0  0.24217849474997885  0.052708420271798694  0.9949948994066986  1.0000
  O   O6        1.0  0.7578267337268726  0.9472886904807822  0.005007583625129524  1.0000
