data_image0
_chemical_formula_structural       U4Ag4H36C48O32
_chemical_formula_sum              "U4 Ag4 H36 C48 O32"
_cell_length_a       8.174711815520961
_cell_length_b       10.17327972135205
_cell_length_c       18.324587756636607
_cell_angle_alpha    82.63735065521637
_cell_angle_beta     77.1204869557332
_cell_angle_gamma    66.32182651004253

_space_group_name_H-M_alt    "P 1"
_space_group_IT_number       1

loop_
  _space_group_symop_operation_xyz
  'x, y, z'

loop_
  _atom_site_type_symbol
  _atom_site_label
  _atom_site_symmetry_multiplicity
  _atom_site_fract_x
  _atom_site_fract_y
  _atom_site_fract_z
  _atom_site_occupancy
  U   U1        1.0  0.6642387936181605  0.7076098330961855  0.024968420219636276  1.0000
  U   U2        1.0  0.39704748909633725  0.7921772782982827  0.475050938804806  1.0000
  U   U3        1.0  0.33575370460530946  0.29239090620519187  0.9750312381151147  1.0000
  U   U4        1.0  0.6029532491102424  0.20782241346829267  0.5249447406727725  1.0000
  Ag  Ag1       1.0  0.11043692737771238  0.0022235929486456  0.0731257748079415  1.0000
  Ag  Ag2       1.0  0.18585175840052415  0.4977344154902068  0.4268335189052975  1.0000
  Ag  Ag3       1.0  0.8895608546134066  0.9977814350419151  0.9268752006066591  1.0000
  Ag  Ag4       1.0  0.8141536021546611  0.5022641795930127  0.5731656513151934  1.0000
  H   H1        1.0  0.17060352149768204  0.8614188968705252  0.30336162785970794  1.0000
  H   H2        1.0  0.3354874146343007  0.6386302407266699  0.19660881190367974  1.0000
  H   H3        1.0  0.8293991289881502  0.13858292189855353  0.6966373525022577  1.0000
  H   H4        1.0  0.6645125240979506  0.36137048202158434  0.8033934681513202  1.0000
  H   H5        1.0  0.6344971963916635  0.0531973442082716  0.2511809000798593  1.0000
  H   H6        1.0  0.9387168833081884  0.4469218502453885  0.2487969380096828  1.0000
  H   H7        1.0  0.3655063445689777  0.9467980300415063  0.7488179684807079  1.0000
  H   H8        1.0  0.0612856728087079  0.5530767426479528  0.7512025326793719  1.0000
  H   H9        1.0  0.0385190164356644  0.22323758344246866  0.1447302654654621  1.0000
  H   H10       1.0  0.40646607024330417  0.2766532989202092  0.3551583624121974  1.0000
  H   H11       1.0  0.9614781590239474  0.7767663709369474  0.8552706093958307  1.0000
  H   H12       1.0  0.5935342073197627  0.7233442174589869  0.6448414310717255  1.0000
  H   H13       1.0  0.3839083192954221  0.9833728492195916  0.2547533056303664  1.0000
  H   H14       1.0  0.6221723173445142  0.5164482180416883  0.2453113881134215  1.0000
  H   H15       1.0  0.6160898272860464  0.016626808575921397  0.7452475356565316  1.0000
  H   H16       1.0  0.37782907891264  0.48354821968406003  0.7546890968042064  1.0000
  H   H17       1.0  0.3468023321646215  0.11323754239895577  0.1793599442905389  1.0000
  H   H18       1.0  0.6391653633084785  0.3865893218531085  0.320678362899578  1.0000
  H   H19       1.0  0.6532008167619096  0.8867610461651764  0.8206401955059164  1.0000
  H   H20       1.0  0.36083704523618826  0.6134060531097774  0.679320382781377  1.0000
  H   H21       1.0  0.9547690281180932  0.7592278122055589  0.3581990429626813  1.0000
  H   H22       1.0  0.07211148420647367  0.7409336237958895  0.1418160880563946  1.0000
  H   H23       1.0  0.04523733100271691  0.24076864217445149  0.6417989565752293  1.0000
  H   H24       1.0  0.9278852185719656  0.25907139696248294  0.8581859798137758  1.0000
  H   H25       1.0  0.7592551318476383  0.8011529865615827  0.3210770467806228  1.0000
  H   H26       1.0  0.8814582531603105  0.6989235701117309  0.1788987370630082  1.0000
  H   H27       1.0  0.2407495552508579  0.1988434649154414  0.678921376105464  1.0000
  H   H28       1.0  0.11853677759581412  0.30108144774364837  0.8211037541553452  1.0000
  H   H29       1.0  0.7020116011011127  0.3548374088491641  0.1350656396297936  1.0000
  H   H30       1.0  0.1914694147287931  0.14524253577582874  0.36489268858599644  1.0000
  H   H31       1.0  0.2979866793307053  0.6451643889364505  0.8649364952192897  1.0000
  H   H32       1.0  0.8085330607410487  0.8547539091821078  0.6351067038760547  1.0000
  H   H33       1.0  0.5467997531590498  0.2754553458955442  0.17625550133665507  1.0000
  H   H34       1.0  0.9981546451060123  0.2247531027234331  0.3236905699262849  1.0000
  H   H35       1.0  0.4531974617819683  0.7245475225982289  0.8237471574139121  1.0000
  H   H36       1.0  0.0018467648730223199  0.7752444129426549  0.6763093464372503  1.0000
  C   C1        1.0  0.13159838009506325  0.03315057766800321  0.2183701147314778  1.0000
  C   C2        1.0  0.3831366947469946  0.4667920003352819  0.2815307007047636  1.0000
  C   C3        1.0  0.8683987284393665  0.9668523067163548  0.7816301133487116  1.0000
  C   C4        1.0  0.6168620446441008  0.533207653131022  0.7184708096895278  1.0000
  C   C5        1.0  0.074719732143393  0.9404274932297624  0.2710318829326043  1.0000
  C   C6        1.0  0.2861822089001577  0.5596488435365573  0.2289155560420255  1.0000
  C   C7        1.0  0.9252795210945163  0.05957432767863929  0.7289667287905317  1.0000
  C   C8        1.0  0.7138182025132592  0.4403508128327403  0.7710855310040899  1.0000
  C   C9        1.0  0.8961251956585274  0.9484078275605582  0.28404855815249164  1.0000
  C   C10       1.0  0.128500314180549  0.551730059562061  0.2159261367815546  1.0000
  C   C11       1.0  0.10387676764873538  0.0515907696619777  0.7159502434291696  1.0000
  C   C12       1.0  0.8714985865046712  0.4482738897750453  0.7840755300667438  1.0000
  C   C13       1.0  0.7729014646198136  0.04908457231580599  0.24230039264299563  1.0000
  C   C14       1.0  0.06419074992185617  0.451041499477533  0.2576345355724783  1.0000
  C   C15       1.0  0.22709937999334762  0.9509151035601775  0.7576977175049606  1.0000
  C   C16       1.0  0.9358101478946069  0.5489581684531614  0.7423647899106598  1.0000
  C   C17       1.0  0.8221304677805463  0.14534843167977124  0.1897306657249018  1.0000
  C   C18       1.0  0.15719554640209302  0.35465718718825917  0.3101599969626676  1.0000
  C   C19       1.0  0.17786763931950822  0.8546523120013776  0.8102683916727074  1.0000
  C   C20       1.0  0.8428058240955348  0.6453414143634718  0.689838135511586  1.0000
  C   C21       1.0  0.0032664545300490505  0.13815664503434277  0.1785409033749374  1.0000
  C   C22       1.0  0.3200208731314548  0.36172903301561377  0.3213108176429742  1.0000
  C   C23       1.0  0.9967306008010868  0.861846247295311  0.8214581093700702  1.0000
  C   C24       1.0  0.6799799440379526  0.6382684869796762  0.6786884296131676  1.0000
  C   C25       1.0  0.32895293533718456  0.013655775489184003  0.20269783686529763  1.0000
  C   C26       1.0  0.5452623094081019  0.4862106573530128  0.2973137008444269  1.0000
  C   C27       1.0  0.6710463436602583  0.9863438815932212  0.7973031273012056  1.0000
  C   C28       1.0  0.454739679658687  0.5137857760435267  0.7026874531806016  1.0000
  C   C29       1.0  0.4510155336140257  0.8980939678990365  0.1469823203531178  1.0000
  C   C30       1.0  0.49606749646308407  0.6017182324701622  0.3530589694985409  1.0000
  C   C31       1.0  0.5489809272232408  0.10190460905312898  0.8530195128360418  1.0000
  C   C32       1.0  0.503939494948767  0.3982771316950108  0.6469414830360449  1.0000
  C   C33       1.0  0.8367180258635613  0.850324421871541  0.3420494995390229  1.0000
  C   C34       1.0  0.02903361273774162  0.6497985884813743  0.1579266577074279  1.0000
  C   C35       1.0  0.1632855288189532  0.14967203031858392  0.6579488004674516  1.0000
  C   C36       1.0  0.97095869422715  0.35020857511951675  0.8420762122064929  1.0000
  C   C37       1.0  0.7204242634619286  0.9209117501084306  0.4143168648221547  1.0000
  C   C38       1.0  0.05565766973367646  0.5791470718897785  0.08567092729271758  1.0000
  C   C39       1.0  0.2795831474278004  0.07908255562308142  0.5856811793683647  1.0000
  C   C40       1.0  0.9443367682128139  0.4208579502948028  0.9143308948182353  1.0000
  C   C41       1.0  0.6863871927157064  0.25100175296234534  0.14528895174065323  1.0000
  C   C42       1.0  0.08245104943782873  0.24915873986625306  0.35462472521373206  1.0000
  C   C43       1.0  0.3136088366060431  0.7490011241898245  0.8547123687951128  1.0000
  C   C44       1.0  0.9175514397538862  0.7508387830320303  0.6453740986942335  1.0000
  C   C45       1.0  0.6934195532418457  0.2071983904082373  0.0676770437796606  1.0000
  C   C46       1.0  0.9682169427987758  0.2930443252835887  0.4322355565170212  1.0000
  C   C47       1.0  0.30657375228867034  0.7928066324894446  0.93232465545168  1.0000
  C   C48       1.0  0.03178564076188184  0.706956423490439  0.5677627770638481  1.0000
  O   O1        1.0  0.6649211296982999  0.5572974520577104  0.0900041034953247  1.0000
  O   O2        1.0  0.31243321041030475  0.9424849901289318  0.4100303013609619  1.0000
  O   O3        1.0  0.3350795278612253  0.44270009177346736  0.9099914977552501  1.0000
  O   O4        1.0  0.6875732276733261  0.05750929247979289  0.5899712659555121  1.0000
  O   O5        1.0  0.6731753105279308  0.8614262320829129  0.9636601052082696  1.0000
  O   O6        1.0  0.49853644068168973  0.6383749689656285  0.5363609182443128  1.0000
  O   O7        1.0  0.32680484872758336  0.1385884531633792  0.0363422944920373  1.0000
  O   O8        1.0  0.5014610719244884  0.36162145933803913  0.4636409595974555  1.0000
  O   O9        1.0  0.38046752067005934  0.840982149764578  0.11012560967503758  1.0000
  O   O10       1.0  0.3315109498395117  0.6589450923275564  0.38981479841491057  1.0000
  O   O11       1.0  0.6195256235663389  0.15901857726230154  0.8898759331022958  1.0000
  O   O12       1.0  0.6684962165883447  0.34105564564876545  0.6101852420195897  1.0000
  O   O13       1.0  0.6225688463060307  0.8571619211273216  0.1351158538026596  1.0000
  O   O14       1.0  0.6148411213674477  0.6425644389133751  0.3650150872831617  1.0000
  O   O15       1.0  0.3774297987161288  0.1428345064632381  0.8648861469187281  1.0000
  O   O16       1.0  0.3851709513523004  0.3574276842491387  0.6349882315395448  1.0000
  O   O17       1.0  0.6509224537400013  0.8444887991741014  0.46186681446021544  1.0000
  O   O18       1.0  0.9572152303374609  0.6554797906935261  0.038122016737560216  1.0000
  O   O19       1.0  0.34908501035302214  0.1555054986121149  0.5381324450654859  1.0000
  O   O20       1.0  0.042776511261557175  0.34452953311726014  0.9618790469607746  1.0000
  O   O21       1.0  0.6983748987087209  0.04761457353900061  0.4252303181143944  1.0000
  O   O22       1.0  0.17133007979322917  0.45251057678468937  0.07475194928182562  1.0000
  O   O23       1.0  0.30163365831886313  0.9523808094197577  0.5747672804016446  1.0000
  O   O24       1.0  0.8286615828429691  0.5475009187973753  0.925245546637953  1.0000
  O   O25       1.0  0.560556955177461  0.2843402640496818  0.03468887500292082  1.0000
  O   O26       1.0  0.8790428042949185  0.21619217569070776  0.4651820878787163  1.0000
  O   O27       1.0  0.4394367149433972  0.7156593886529448  0.9653126901007171  1.0000
  O   O28       1.0  0.12096042527866756  0.7838085608088291  0.5348181301447354  1.0000
  O   O29       1.0  0.8274401120055755  0.1020174894713435  0.0377386510466593  1.0000
  O   O30       1.0  0.9675804259415058  0.39797442153414414  0.46224233394218567  1.0000
  O   O31       1.0  0.17255651012580783  0.8979853833516247  0.9622633385965075  1.0000
  O   O32       1.0  0.032422777872554126  0.6020284787913824  0.5377555316378988  1.0000
