data_image0
_chemical_formula_structural       Gd2H18C18N6O18
_chemical_formula_sum              "Gd2 H18 C18 N6 O18"
_cell_length_a       6.136774334666202
_cell_length_b       7.6740651887919356
_cell_length_c       13.375627922174651
_cell_angle_alpha    81.24713389672294
_cell_angle_beta     85.88506515070058
_cell_angle_gamma    76.91312589522383

_space_group_name_H-M_alt    "P 1"
_space_group_IT_number       1

loop_
  _space_group_symop_operation_xyz
  'x, y, z'

loop_
  _atom_site_type_symbol
  _atom_site_label
  _atom_site_symmetry_multiplicity
  _atom_site_fract_x
  _atom_site_fract_y
  _atom_site_fract_z
  _atom_site_occupancy
  Gd  Gd1       1.0  0.7735399625671847  0.7929980202157765  0.2681018622440519  1.0000
  Gd  Gd2       1.0  0.22645891683357894  0.20700000336898938  0.7318992832524742  1.0000
  H   H1        1.0  0.095449069407799  0.09598153278718512  0.9943418101555679  1.0000
  H   H2        1.0  0.904553511933976  0.9040260398628278  0.005659210182976377  1.0000
  H   H3        1.0  0.8820835854993945  0.8836819747752926  0.6700455451008693  1.0000
  H   H4        1.0  0.11792462998371181  0.11631220922435401  0.32995262477686543  1.0000
  H   H5        1.0  0.1509495257524023  0.7101674551322361  0.955952867469236  1.0000
  H   H6        1.0  0.8490396157833473  0.2898357406615163  0.044051908024762595  1.0000
  H   H7        1.0  0.561328295356688  0.2000373244245282  0.19144494515514052  1.0000
  H   H8        1.0  0.4386697542774485  0.7999579335125162  0.8085579410277858  1.0000
  H   H9        1.0  0.5075493322251035  0.1635137371006508  0.3090388554558814  1.0000
  H   H10       1.0  0.4924556203757147  0.8364802822794177  0.690963914916061  1.0000
  H   H11       1.0  0.17816058260136458  0.4940483394869588  0.3615807253016072  1.0000
  H   H12       1.0  0.8218448074374649  0.5059498686155665  0.6384172127795011  1.0000
  H   H13       1.0  0.22724132478617065  0.6888271903386852  0.3304714328630994  1.0000
  H   H14       1.0  0.772764872599623  0.31116838869643715  0.6695236980674153  1.0000
  H   H15       1.0  0.8438504018491244  0.39921707321534683  0.2633143531232491  1.0000
  H   H16       1.0  0.15615212898089942  0.6007796557339019  0.7366867818767703  1.0000
  H   H17       1.0  0.6316947702972656  0.4177935599720469  0.3441188794259347  1.0000
  H   H18       1.0  0.36830653276509645  0.5822017721337148  0.6558831522458987  1.0000
  C   C1        1.0  0.25550601542052936  0.9075156158971467  0.18107506831586306  1.0000
  C   C2        1.0  0.7444981282126121  0.09247583682711283  0.8189212015795987  1.0000
  C   C3        1.0  0.3817422362466303  0.9630982219024348  0.08573836867405049  1.0000
  C   C4        1.0  0.6182579027955056  0.036906683691810806  0.914259200631747  1.0000
  C   C5        1.0  0.2760858271244899  0.05240747871666681  0.9973633260324705  1.0000
  C   C6        1.0  0.7239130822591735  0.9475960119439082  0.002635889141757274  1.0000
  C   C7        1.0  0.6777811168626897  0.779567278253957  0.5143886598676843  1.0000
  C   C8        1.0  0.322226689274494  0.2204281660088725  0.4856131611752161  1.0000
  C   C9        1.0  0.8504024592746477  0.8947530569614273  0.5081239347407163  1.0000
  C   C10       1.0  0.1496057543176406  0.1052411089480501  0.4918749843336414  1.0000
  C   C11       1.0  0.9343437936586908  0.9367742473804057  0.594097840894463  1.0000
  C   C12       1.0  0.06566362204070232  0.0632226380473355  0.4059001393473665  1.0000
  C   C13       1.0  0.11717941411794193  0.48034536306467157  0.13530575042478427  1.0000
  C   C14       1.0  0.8827996442244127  0.5196700579001858  0.8646908903703121  1.0000
  C   C15       1.0  0.31956236378679387  0.48707918106670434  0.06339610414915599  1.0000
  C   C16       1.0  0.6804317017851889  0.5129349063652812  0.9366098971049155  1.0000
  C   C17       1.0  0.3082093067870487  0.6170111456449164  0.9768301813767764  1.0000
  C   C18       1.0  0.691783133016223  0.3830029137478021  0.023175872534530115  1.0000
  N   N1        1.0  0.6056858306343004  0.9117773238388907  0.0878849163714293  1.0000
  N   N2        1.0  0.39431307307692265  0.08822611255116897  0.9121165463926745  1.0000
  N   N3        1.0  0.9172051332136564  0.9575593055792311  0.4143453030425093  1.0000
  N   N4        1.0  0.08280350458095141  0.042438922421489195  0.5856540281173821  1.0000
  N   N5        1.0  0.5139325595319804  0.36938367493733887  0.08533566036361148  1.0000
  N   N6        1.0  0.48605700998771784  0.6306236191280093  0.9146680288226676  1.0000
  O   O1        1.0  0.3757931310510613  0.8147641160962636  0.25276763645152295  1.0000
  O   O2        1.0  0.6242167120915596  0.18523011403282652  0.7472297315723607  1.0000
  O   O3        1.0  0.044822931775307495  0.9487227272843199  0.18225177266177184  1.0000
  O   O4        1.0  0.9551904598822674  0.0512485027175487  0.817746563385171  1.0000
  O   O5        1.0  0.606508932119837  0.7592209759980548  0.4314999279716076  1.0000
  O   O6        1.0  0.3934931931458863  0.24077704939472264  0.5685033598003315  1.0000
  O   O7        1.0  0.6146410901004131  0.712077170350284  0.601545137828616  1.0000
  O   O8        1.0  0.3853630646075032  0.2879195685480552  0.3984566937107985  1.0000
  O   O9        1.0  0.9784831618735341  0.632250095523297  0.1352941505486456  1.0000
  O   O10       1.0  0.02148083683663766  0.36775579718349866  0.8646939936455666  1.0000
  O   O11       1.0  0.10064390220632899  0.3330699801910272  0.18754691813135338  1.0000
  O   O12       1.0  0.8993419934644463  0.6669332137947064  0.8124557150872319  1.0000
  O   O13       1.0  0.5999709071313575  0.10847757221522163  0.253094885073466  1.0000
  O   O14       1.0  0.4000320497917972  0.8915232369154467  0.7469059128154568  1.0000
  O   O15       1.0  0.10499322389765098  0.6233827968055721  0.35298088181048126  1.0000
  O   O16       1.0  0.8950117457204742  0.376611385386056  0.6470151457918476  1.0000
  O   O17       1.0  0.7262517747560363  0.48401935470288754  0.2978772704965422  1.0000
  O   O18       1.0  0.2737515763865446  0.5159800494432147  0.7021258698002057  1.0000
