data_image0
_chemical_formula_structural       CdH14C20N4O6F4
_chemical_formula_sum              "Cd1 H14 C20 N4 O6 F4"
_cell_length_a       6.919104149276654
_cell_length_b       7.984409127400073
_cell_length_c       11.021466203122971
_cell_angle_alpha    104.2169382390097
_cell_angle_beta     106.81306610984198
_cell_angle_gamma    102.98037976758803

_space_group_name_H-M_alt    "P 1"
_space_group_IT_number       1

loop_
  _space_group_symop_operation_xyz
  'x, y, z'

loop_
  _atom_site_type_symbol
  _atom_site_label
  _atom_site_symmetry_multiplicity
  _atom_site_fract_x
  _atom_site_fract_y
  _atom_site_fract_z
  _atom_site_occupancy
  Cd  Cd1       1.0  0.9999949279729281  0.4999950080654613  0.4999961071493858  1.0000
  H   H1        1.0  0.3567871380688246  0.3481159306207147  0.9482490083920965  1.0000
  H   H2        1.0  0.6432099946216995  0.6518980653280905  0.0517528084373921  1.0000
  H   H3        1.0  0.31804606765840054  0.9642333808374561  0.5820833584312126  1.0000
  H   H4        1.0  0.6819591129917344  0.0357685446785325  0.4179248918730353  1.0000
  H   H5        1.0  0.4345814006783045  0.8956956813563862  0.789692129394325  1.0000
  H   H6        1.0  0.5654221235758002  0.10431432911089901  0.21031913205960956  1.0000
  H   H7        1.0  0.15884402723308008  0.15274805652681783  0.45782708111762105  1.0000
  H   H8        1.0  0.8411656699648732  0.8472499152914992  0.5421757778169435  1.0000
  H   H9        1.0  0.20019999541464276  0.5241723304060173  0.8088924710276686  1.0000
  H   H10       1.0  0.7997967086999437  0.47583220475690513  0.19110209378480647  1.0000
  H   H11       1.0  0.4593347550118239  0.6576386319904015  0.5957628093208314  1.0000
  H   H12       1.0  0.5406569306704655  0.34235087548061227  0.40423721199353935  1.0000
  H   H13       1.0  0.351699074712215  0.5863193243001134  0.4394367113241131  1.0000
  H   H14       1.0  0.6482976244176798  0.4136716337664765  0.5605635316488319  1.0000
  C   C1        1.0  0.31583055608965793  0.301996828022773  0.839806154755145  1.0000
  C   C2        1.0  0.6841691396907948  0.6980158612388934  0.16019586398213895  1.0000
  C   C3        1.0  0.9053560527732859  0.023938110022392302  0.8798930406605194  1.0000
  C   C4        1.0  0.09464596028847436  0.9760516460269741  0.12009610042833421  1.0000
  C   C5        1.0  0.029019411424641747  0.8345746926261555  0.9994444488126248  1.0000
  C   C6        1.0  0.9709805132427435  0.1654217781422105  0.0005491928237902162  1.0000
  C   C7        1.0  0.9321211936394821  0.8558130077259067  0.8771341635882237  1.0000
  C   C8        1.0  0.06786920445487972  0.14417787559096237  0.1228559063443981  1.0000
  C   C9        1.0  0.8682414520636782  0.7037402866449154  0.7452999163936624  1.0000
  C   C10       1.0  0.13175066732815577  0.29624654578160664  0.2546942448153899  1.0000
  C   C11       1.0  0.29423653170564995  0.08746566325834237  0.6359992818210713  1.0000
  C   C12       1.0  0.7057649981045343  0.9125389111431159  0.36400701034965266  1.0000
  C   C13       1.0  0.34645931613581377  0.1401718099741558  0.7755771283669618  1.0000
  C   C14       1.0  0.6535401509066149  0.8598313848541038  0.22442583350932918  1.0000
  C   C15       1.0  0.4222450808907612  0.023095864928116303  0.8475388619583626  1.0000
  C   C16       1.0  0.5777582845114468  0.9769222622630452  0.1524747669002267  1.0000
  C   C17       1.0  0.2061541220325012  0.1922841807336084  0.5666177609192786  1.0000
  C   C18       1.0  0.7938550748432719  0.8077164773450463  0.4333882264019309  1.0000
  C   C19       1.0  0.22786359098527953  0.3988662903621646  0.7629189910062237  1.0000
  C   C20       1.0  0.7721337688809771  0.6011355323701294  0.23707881942984693  1.0000
  N   N1        1.0  0.468387424794031  0.0659631274797405  0.9759347367545389  1.0000
  N   N2        1.0  0.5316227059645513  0.9340578822207917  0.02406969603656958  1.0000
  N   N3        1.0  0.16974037397065442  0.34344887723266027  0.627773821726457  1.0000
  N   N4        1.0  0.8302625884822276  0.6565516948804272  0.37222472427310993  1.0000
  O   O1        1.0  0.3485433006279736  0.6712289027533132  0.5220725014510066  1.0000
  O   O2        1.0  0.6514523329561186  0.32876339377299507  0.4779268958691105  1.0000
  O   O3        1.0  0.01760417439341212  0.6984413454802053  0.7010916929217714  1.0000
  O   O4        1.0  0.9823857917026119  0.3015481676043735  0.2988998664087319  1.0000
  O   O5        1.0  0.6778586799930651  0.5986538834824987  0.6926484882089242  1.0000
  O   O6        1.0  0.32213511457660365  0.4013329508076923  0.3073523138382228  1.0000
  F   F1        1.0  0.06268445415872041  0.6741070174003879  0.0011887442753177658  1.0000
  F   F2        1.0  0.937325519608088  0.3258923508205245  0.9988062512511392  1.0000
  F   F3        1.0  0.8117071711971422  0.050507497078385206  0.7622356014563254  1.0000
  F   F4        1.0  0.18829717777881433  0.9494931255003467  0.23775774793374177  1.0000
