data_image0
_chemical_formula_structural       V2H14C14N2Cl6
_chemical_formula_sum              "V2 H14 C14 N2 Cl6"
_cell_length_a       5.800813864585997
_cell_length_b       9.837009191371932
_cell_length_c       10.072262775832469
_cell_angle_alpha    111.76064920239774
_cell_angle_beta     103.15282944133168
_cell_angle_gamma    104.87450667135393

_space_group_name_H-M_alt    "P 1"
_space_group_IT_number       1

loop_
  _space_group_symop_operation_xyz
  'x, y, z'

loop_
  _atom_site_type_symbol
  _atom_site_label
  _atom_site_symmetry_multiplicity
  _atom_site_fract_x
  _atom_site_fract_y
  _atom_site_fract_z
  _atom_site_occupancy
  V   V1        1.0  0.8139173232014089  0.6384102687550597  0.5234342978626075  1.0000
  V   V2        1.0  0.18612216271769466  0.36160374952604724  0.47657674459349414  1.0000
  H   H1        1.0  0.4165495635342324  0.8816250630549122  0.5476688649831872  1.0000
  H   H2        1.0  0.5834788589815291  0.11837129458418623  0.45231938579637193  1.0000
  H   H3        1.0  0.36232569701311235  0.1285926478598469  0.6955775284593528  1.0000
  H   H4        1.0  0.6376690349122639  0.871397638475635  0.3044053983978898  1.0000
  H   H5        1.0  0.07742947083863781  0.28013905912282416  0.056131297066478736  1.0000
  H   H6        1.0  0.9225474368801728  0.7198616361849945  0.9438751958344586  1.0000
  H   H7        1.0  0.1365140784902508  0.034020040312015  0.9067718949732111  1.0000
  H   H8        1.0  0.8634897482935172  0.9659843392613112  0.09323722559882708  1.0000
  H   H9        1.0  0.498439214715603  0.34185334795196815  0.996194489812197  1.0000
  H   H10       1.0  0.5015134848826223  0.65811307903644  0.003791385362973307  1.0000
  H   H11       1.0  0.6671966516768891  0.43779230282560644  0.9109375014907358  1.0000
  H   H12       1.0  0.33275246289693433  0.5621976625441648  0.08905768200694565  1.0000
  H   H13       1.0  0.8346246577919559  0.4452658804938921  0.08691724524545222  1.0000
  H   H14       1.0  0.16533387964105362  0.554721750600592  0.9130841645509875  1.0000
  C   C1        1.0  0.7800476013432346  0.9423392719069529  0.7180800864632675  1.0000
  C   C2        1.0  0.21996728115804132  0.0576663892994347  0.2819209128556253  1.0000
  C   C3        1.0  0.5606766416982367  0.969880083508457  0.658591154509047  1.0000
  C   C4        1.0  0.4393370356858385  0.030120881894987402  0.3414029894519715  1.0000
  C   C5        1.0  0.5314703649287794  0.107810513596263  0.7425357213532423  1.0000
  C   C6        1.0  0.46852731723748786  0.8921844822437566  0.2574532832844058  1.0000
  C   C7        1.0  0.7158163219654055  0.22174720780110851  0.8868357586739036  1.0000
  C   C8        1.0  0.2841708894587428  0.7782477058293441  0.11315791142851615  1.0000
  C   C9        1.0  0.9333551918355384  0.19315404758173574  0.9442103735256069  1.0000
  C   C10       1.0  0.06663011046452981  0.8068490661036805  0.05579405786229333  1.0000
  C   C11       1.0  0.9682396580634677  0.05621311799274051  0.8619827871757907  1.0000
  C   C12       1.0  0.031760871377223075  0.9437947922894382  0.13802426904368312  1.0000
  C   C13       1.0  0.6793654663328256  0.3696372738232299  0.9757686110680055  1.0000
  C   C14       1.0  0.3205963798588344  0.6303386348532031  0.024219904139499798  1.0000
  N   N1        1.0  0.8053569158398447  0.8057149244789203  0.6365419131853616  1.0000
  N   N2        1.0  0.19467503047663118  0.1942955337974155  0.363463918527728  1.0000
  Cl  Cl1       1.0  0.3775175677577494  0.5151733307947381  0.3557278524544501  1.0000
  Cl  Cl2       1.0  0.6225151610878613  0.4848441863825528  0.6442836758507015  1.0000
  Cl  Cl3       1.0  0.9285824643587616  0.7109353437736772  0.35772881368959736  1.0000
  Cl  Cl4       1.0  0.07143953515706869  0.2890762405355076  0.6422762376064953  1.0000
  Cl  Cl5       1.0  0.1921031627808816  0.6534077718685084  0.6638706364376079  1.0000
  Cl  Cl6       1.0  0.8079339464571548  0.3466109280407609  0.33614583139119963  1.0000
