data_image0
_chemical_formula_structural       Cd2H12C12Br4N4O2
_chemical_formula_sum              "Cd2 H12 C12 Br4 N4 O2"
_cell_length_a       7.491228116807421
_cell_length_b       7.300867630760399
_cell_length_c       9.130858443706144
_cell_angle_alpha    110.35540881626606
_cell_angle_beta     91.73547539053747
_cell_angle_gamma    99.03846522868896

_space_group_name_H-M_alt    "P 1"
_space_group_IT_number       1

loop_
  _space_group_symop_operation_xyz
  'x, y, z'

loop_
  _atom_site_type_symbol
  _atom_site_label
  _atom_site_symmetry_multiplicity
  _atom_site_fract_x
  _atom_site_fract_y
  _atom_site_fract_z
  _atom_site_occupancy
  Cd  Cd1       1.0  0.23153035675980493  0.4399121451667795  0.4077835013893959  1.0000
  Cd  Cd2       1.0  0.7684469239346897  0.560113450909995  0.5922425804006506  1.0000
  H   H1        1.0  0.2068542849349768  0.9366648429291047  0.8062286221131527  1.0000
  H   H2        1.0  0.7931538118490451  0.063334110584762  0.1937738329379854  1.0000
  H   H3        1.0  0.3273897388680778  0.6711852800971624  0.8627392441748822  1.0000
  H   H4        1.0  0.6725805536675933  0.328797325109896  0.13726893700223997  1.0000
  H   H5        1.0  0.4059565349508815  0.7139133291736569  0.14580040003409778  1.0000
  H   H6        1.0  0.5940423615616693  0.2860871044701839  0.8542053393485745  1.0000
  H   H7        1.0  0.3651029592233782  0.0276135910484783  0.3566124251467285  1.0000
  H   H8        1.0  0.6349180764044886  0.9723973089668404  0.6433852183266494  1.0000
  H   H9        1.0  0.13018048279598557  0.17369838037271987  0.7878114698621559  1.0000
  H   H10       1.0  0.8698292003403478  0.8263109119447802  0.21219835074344218  1.0000
  H   H11       1.0  0.033092222638813985  0.3860974569223146  0.8663203143403067  1.0000
  H   H12       1.0  0.9669250074518486  0.6139088482391701  0.13368791346479014  1.0000
  C   C1        1.0  0.22195880116318986  0.12558629779114477  0.05262595867589678  1.0000
  C   C2        1.0  0.778027427274864  0.8744172261243005  0.9473745957261456  1.0000
  C   C3        1.0  0.24393637824299214  0.9564740682709144  0.9279335077242405  1.0000
  C   C4        1.0  0.7560662113614214  0.04353230790123062  0.07207297748185938  1.0000
  C   C5        1.0  0.31022654074190115  0.8047057805522826  0.9592501791919259  1.0000
  C   C6        1.0  0.6897665551429667  0.1952726108007923  0.040731560455171185  1.0000
  C   C7        1.0  0.35407246405005577  0.8277360615236162  0.1143745894873334  1.0000
  C   C8        1.0  0.6459294873651442  0.1722672901787377  0.8856353974199536  1.0000
  C   C9        1.0  0.33136100519010364  0.0023259769200266018  0.23321814823844986  1.0000
  C   C10       1.0  0.6686394772766276  0.9976745475085452  0.7667800198770962  1.0000
  C   C11       1.0  0.1404806390180866  0.29057267769865547  0.030033803894404805  1.0000
  C   C12       1.0  0.8595244342645926  0.7094247602846409  0.9699713734520184  1.0000
  Br  Br1       1.0  0.08685951262271627  0.7710878461219224  0.5177299896934855  1.0000
  Br  Br2       1.0  0.9131333001944881  0.22896041923424804  0.48226812372651295  1.0000
  Br  Br3       1.0  0.4263625811005766  0.3649507466556796  0.633704325291518  1.0000
  Br  Br4       1.0  0.5736332655256149  0.6349628833604654  0.36621000451078334  1.0000
  N   N1        1.0  0.2664167316330365  0.1474224526278789  0.20277834745303377  1.0000
  N   N2        1.0  0.7335804491579052  0.8525839169529021  0.7972300806424356  1.0000
  N   N3        1.0  0.1007303959531285  0.2818674336829616  0.8842719523212421  1.0000
  N   N4        1.0  0.899292701331909  0.7181418339728226  0.11573628131235135  1.0000
  O   O1        1.0  0.10732874498307857  0.43013077128433247  0.14812633724444876  1.0000
  O   O2        1.0  0.8926747828674448  0.5698652008130268  0.8518772613815669  1.0000
