data_image0
_chemical_formula_structural       Zn2H40C40N4O14
_chemical_formula_sum              "Zn2 H40 C40 N4 O14"
_cell_length_a       5.481365990248408
_cell_length_b       8.215871207563756
_cell_length_c       22.664431851776104
_cell_angle_alpha    85.43466253728799
_cell_angle_beta     83.06132217876919
_cell_angle_gamma    70.54052794244171

_space_group_name_H-M_alt    "P 1"
_space_group_IT_number       1

loop_
  _space_group_symop_operation_xyz
  'x, y, z'

loop_
  _atom_site_type_symbol
  _atom_site_label
  _atom_site_symmetry_multiplicity
  _atom_site_fract_x
  _atom_site_fract_y
  _atom_site_fract_z
  _atom_site_occupancy
  Zn  Zn1       1.0  0.962690378024476  0.7491670800326632  0.24999925236655693  1.0000
  Zn  Zn2       1.0  0.037253194600516855  0.2509150743847073  0.7500002279291209  1.0000
  H   H1        1.0  0.19303640676871944  0.0457442358979776  0.2484219207515181  1.0000
  H   H2        1.0  0.48795899478491817  0.45272873569962974  0.25175454562060656  1.0000
  H   H3        1.0  0.8070149322253853  0.9542827222893564  0.7515572352824336  1.0000
  H   H4        1.0  0.5119453757346123  0.5473577713110416  0.7482247390986316  1.0000
  H   H5        1.0  0.12572999757417586  0.33800955768672497  0.19670573665830196  1.0000
  H   H6        1.0  0.6603717261966437  0.1604280025739726  0.3035102027606556  1.0000
  H   H7        1.0  0.874322095094321  0.6620148639113311  0.8032739276368873  1.0000
  H   H8        1.0  0.3395627966085259  0.8396563740064947  0.6964610326513991  1.0000
  H   H9        1.0  0.8065236754572356  0.4381889681980907  0.12168349310520922  1.0000
  H   H10       1.0  0.3659097981415654  0.06047856010791011  0.37846703831067435  1.0000
  H   H11       1.0  0.19349690736665795  0.5618516178489869  0.8783022100380293  1.0000
  H   H12       1.0  0.6340624141216792  0.9395684487310305  0.6215058973607199  1.0000
  H   H13       1.0  0.5697736467460714  0.23613967836778474  0.09792121169959249  1.0000
  H   H14       1.0  0.9038661203489934  0.26279191844189853  0.4021922224426931  1.0000
  H   H15       1.0  0.4302369404517774  0.7638995743435119  0.9020641465807274  1.0000
  H   H16       1.0  0.09608315115129062  0.7372382769956901  0.5977809662417002  1.0000
  H   H17       1.0  0.6561500332506752  0.9520462811356513  0.1531218061196285  1.0000
  H   H18       1.0  0.7619564245338136  0.5468370324198304  0.3469408392359342  1.0000
  H   H19       1.0  0.34385783990058627  0.047996361066793704  0.8468711986278379  1.0000
  H   H20       1.0  0.23796128497022545  0.4532165129734978  0.6530451793797383  1.0000
  H   H21       1.0  0.8748658712513797  0.9985766600096186  0.43602735413792015  1.0000
  H   H22       1.0  0.30969073002986375  0.5009565739657732  0.06388566746933584  1.0000
  H   H23       1.0  0.12515157358376428  0.001421024975343192  0.563981510585208  1.0000
  H   H24       1.0  0.6903245525610658  0.4989399523421483  0.9361341365831918  1.0000
  H   H25       1.0  0.867480873187709  0.7845485353220313  0.4454356042884343  1.0000
  H   H26       1.0  0.097428003442147  0.71494960442174  0.05464432211258702  1.0000
  H   H27       1.0  0.13251931879790407  0.21544836401428574  0.5545657901590814  1.0000
  H   H28       1.0  0.902634496460308  0.2849632604583406  0.9453582636294018  1.0000
  H   H29       1.0  0.14462851087348827  0.53025434428492  0.4370310074704094  1.0000
  H   H30       1.0  0.1116053504297837  0.9694644555100284  0.06273827064154601  1.0000
  H   H31       1.0  0.8553611715727099  0.4697238251537572  0.5629770485716109  1.0000
  H   H32       1.0  0.8884757857369935  0.030405881548837485  0.9372909960921163  1.0000
  H   H33       1.0  0.5755166937677955  0.7590845727282274  0.532154510038339  1.0000
  H   H34       1.0  0.8666746328180398  0.7409519710775785  0.9679214250622014  1.0000
  H   H35       1.0  0.42447900546699907  0.24088054015782498  0.467852512180727  1.0000
  H   H36       1.0  0.13342063189880798  0.25890558067368374  0.032109382273958424  1.0000
  H   H37       1.0  0.525504827114787  0.7377604274378413  0.21223577710573951  1.0000
  H   H38       1.0  0.4762505648458273  0.7607995105279246  0.28768367055938177  1.0000
  H   H39       1.0  0.4744655489130664  0.2622594940710386  0.7877753111287832  1.0000
  H   H40       1.0  0.5237057148691734  0.23927857143174697  0.7123263649583579  1.0000
  C   C1        1.0  0.05588177326998074  0.09409571477684155  0.2149463911441245  1.0000
  C   C2        1.0  0.36548649250993015  0.40441818146985054  0.2851955970300751  1.0000
  C   C3        1.0  0.9441496477542298  0.9059394525718434  0.7850370063931892  1.0000
  C   C4        1.0  0.6344498628652387  0.5956546998709059  0.7147895338109933  1.0000
  C   C5        1.0  0.018979872935396734  0.2553745671707404  0.1862198858641761  1.0000
  C   C6        1.0  0.4606486668197717  0.24314269554475496  0.31393898797551867  1.0000
  C   C7        1.0  0.9810599635124077  0.7446462594407492  0.8137625757385437  1.0000
  C   C8        1.0  0.5392814239102675  0.7569280065799475  0.686037706524438  1.0000
  C   C9        1.0  0.8407861823061533  0.31079494348510656  0.14377557800629162  1.0000
  C   C10       1.0  0.2952352098646571  0.18791563262689692  0.3563828620432758  1.0000
  C   C11       1.0  0.15923627241859614  0.6892391336863998  0.8562097960928127  1.0000
  C   C12       1.0  0.7047191185116184  0.8121397368858468  0.6435957585864501  1.0000
  C   C13       1.0  0.7080388581258957  0.20120355793677905  0.1312403839008739  1.0000
  C   C14       1.0  0.0405611267649205  0.29762616331130687  0.368869396120985  1.0000
  C   C15       1.0  0.2919886695210536  0.7988307306134602  0.8687469991384447  1.0000
  C   C16       1.0  0.9593855802643314  0.7024213181670051  0.6311081116168255  1.0000
  C   C17       1.0  0.7556154468568577  0.04147525892374662  0.161829167913247  1.0000
  C   C18       1.0  0.959343012703641  0.457285998831452  0.3382479656352119  1.0000
  C   C19       1.0  0.2443805344115264  0.9585672883044014  0.8381629550980634  1.0000
  C   C20       1.0  0.040596033004930934  0.5427634153761789  0.6617356532525775  1.0000
  C   C21       1.0  0.09622768137998623  0.8315012335963418  0.3657424703900176  1.0000
  C   C22       1.0  0.2944252889526025  0.6678824149625415  0.13418243560915505  1.0000
  C   C23       1.0  0.9038037659285862  0.16849478288271064  0.6342627943583851  1.0000
  C   C24       1.0  0.7055602050477032  0.33203454891575757  0.8658347382756164  1.0000
  C   C25       1.0  0.9948679125041765  0.8627624641510113  0.43121305926067083  1.0000
  C   C26       1.0  0.28899622656118834  0.6367927201155725  0.06873095011379604  1.0000
  C   C27       1.0  0.005142287714001497  0.1372285323595221  0.5687937799626112  1.0000
  C   C28       1.0  0.7110362593102618  0.36311379365005086  0.9312852584712702  1.0000
  C   C29       1.0  0.34136227831227456  0.665868098931398  0.48268980109076415  1.0000
  C   C30       1.0  0.4897875483256724  0.8339962258014639  0.017245001487033673  1.0000
  C   C31       1.0  0.658643615264609  0.3341129134495732  0.5173206373663889  1.0000
  C   C32       1.0  0.5102911894203643  0.16587045973268033  0.9827865008353456  1.0000
  C   C33       1.0  0.29888675938245507  0.5193604818981257  0.46463314998220545  1.0000
  C   C34       1.0  0.2827264738505804  0.9804143877403605  0.03523680519431594  1.0000
  C   C35       1.0  0.7011052449768652  0.4806232540579175  0.5353785956369564  1.0000
  C   C36       1.0  0.7173594595861985  0.0194533809493507  0.9647926573160818  1.0000
  C   C37       1.0  0.5432471461949858  0.6447549482289432  0.5179784208758208  1.0000
  C   C38       1.0  0.7059797476060933  0.8552539593897068  0.9820673043929914  1.0000
  C   C39       1.0  0.4567426986475524  0.35522494588844483  0.48203374114238784  1.0000
  C   C40       1.0  0.2941197596366791  0.14461319103150327  0.01796859531091854  1.0000
  N   N1        1.0  0.925414765349579  0.9892794446274283  0.2033488147677574  1.0000
  N   N2        1.0  0.11875115473970506  0.5092966014245093  0.2967437373284199  1.0000
  N   N3        1.0  0.07460861762388774  0.010756455890557983  0.7966416065274656  1.0000
  N   N4        1.0  0.8811764612762402  0.4907674284588027  0.703243451403182  1.0000
  O   O1        1.0  0.6003287499763413  0.7478994689661606  0.2500337718659936  1.0000
  O   O2        1.0  0.3995454604516694  0.25234460062699077  0.7499662745069031  1.0000
  O   O3        1.0  0.918670052686373  0.8695678933760009  0.3303403073481662  1.0000
  O   O4        1.0  0.12071052677169558  0.6288261909294449  0.1697067894490871  1.0000
  O   O5        1.0  0.08136584675656168  0.13048453744497124  0.669659553239363  1.0000
  O   O6        1.0  0.8791378514001804  0.37120747744331334  0.8302998065034687  1.0000
  O   O7        1.0  0.3378140072659476  0.7726268427444154  0.35207785604460906  1.0000
  O   O8        1.0  0.46270853577582466  0.7276843171537026  0.14775094301892727  1.0000
  O   O9        1.0  0.662212444913635  0.22733743310745072  0.6479334754602207  1.0000
  O   O10       1.0  0.537373147039524  0.27213868394625246  0.8522714716783072  1.0000
  O   O11       1.0  0.19348487938642478  0.833865802925665  0.4697525732643798  1.0000
  O   O12       1.0  0.4968016339609488  0.6659591403435102  0.030087384991539172  1.0000
  O   O13       1.0  0.8065171731791096  0.16610220944083662  0.5302573930886397  1.0000
  O   O14       1.0  0.5032829055971748  0.33390982088461396  0.9699411016607585  1.0000
