data_image0
_chemical_formula_structural       CuH16C16N4O4
_chemical_formula_sum              "Cu1 H16 C16 N4 O4"
_cell_length_a       4.536178826442039
_cell_length_b       9.34107802351947
_cell_length_c       10.787209252296334
_cell_angle_alpha    73.67550607695303
_cell_angle_beta     85.78087994941926
_cell_angle_gamma    78.35880244178838

_space_group_name_H-M_alt    "P 1"
_space_group_IT_number       1

loop_
  _space_group_symop_operation_xyz
  'x, y, z'

loop_
  _atom_site_type_symbol
  _atom_site_label
  _atom_site_symmetry_multiplicity
  _atom_site_fract_x
  _atom_site_fract_y
  _atom_site_fract_z
  _atom_site_occupancy
  Cu  Cu1       1.0  0.49999608038787363  0.5000045869836143  0.49999932875004305  1.0000
  H   H1        1.0  0.5700307672908878  0.9649929979403846  0.6564608724881469  1.0000
  H   H2        1.0  0.42996940110121784  0.03500710770838109  0.343541583757208  1.0000
  H   H3        1.0  0.1883483366794891  0.05994955403745188  0.6188705064829777  1.0000
  H   H4        1.0  0.8116564948521583  0.9400550883405642  0.38112690580989295  1.0000
  H   H5        1.0  0.3206531629865736  0.011507186266378299  0.7801671876204567  1.0000
  H   H6        1.0  0.6793456998240257  0.9884963274238883  0.21983446686397928  1.0000
  H   H7        1.0  0.35485261528906875  0.7886449192011393  0.6059991936210808  1.0000
  H   H8        1.0  0.6451512867960859  0.211351804165531  0.3940076658913513  1.0000
  H   H9        1.0  0.9551376883878716  0.805769437955774  0.8096316701399646  1.0000
  H   H10       1.0  0.044872045344462194  0.19422389716159927  0.19037765184955194  1.0000
  H   H11       1.0  0.9747789943626088  0.39406488424813785  0.7098468502079315  1.0000
  H   H12       1.0  0.02521253410318988  0.6059397251921295  0.29015019851655677  1.0000
  H   H13       1.0  0.6917007453813968  0.7380790773373389  0.96876283182079  1.0000
  H   H14       1.0  0.3083029315828085  0.2619164465622956  0.03123321035294423  1.0000
  H   H15       1.0  0.647963193332892  0.3362347694447577  0.8506206784908557  1.0000
  H   H16       1.0  0.35204015848994163  0.6637619010442461  0.14937694386129866  1.0000
  C   C1        1.0  0.38212157075832914  0.049970433456074694  0.6774816362087677  1.0000
  C   C2        1.0  0.6178950611415461  0.9500319493604007  0.32251399636961525  1.0000
  C   C3        1.0  0.4879243643667337  0.2001210268403425  0.6507030639564206  1.0000
  C   C4        1.0  0.5120928127794357  0.7998802305378372  0.34929468330765456  1.0000
  C   C5        1.0  0.21369340957994612  0.7103436868530291  0.6580416628073992  1.0000
  C   C6        1.0  0.7863027779927947  0.2896552735652519  0.3419612474074754  1.0000
  C   C7        1.0  0.016274300893762625  0.7192123008390536  0.7588221773794788  1.0000
  C   C8        1.0  0.9837289458926292  0.280785537390379  0.24118072001520122  1.0000
  C   C9        1.0  0.029151509125966868  0.502139130037861  0.7098589957376192  1.0000
  C   C10       1.0  0.970836638792996  0.4978632140213858  0.290141545358111  1.0000
  C   C11       1.0  0.6073043218597859  0.6338659600107518  0.9806240699030796  1.0000
  C   C12       1.0  0.39268662932228426  0.36613409019032855  0.019372293761840454  1.0000
  C   C13       1.0  0.5885546368008574  0.40826016226918677  0.916177921251631  1.0000
  C   C14       1.0  0.4114385774140528  0.5917398978279849  0.08381927277137895  1.0000
  C   C15       1.0  0.6969325784663668  0.5430865294448565  0.896113270144845  1.0000
  C   C16       1.0  0.30305267410980014  0.45691124019133134  0.10388483181720437  1.0000
  N   N1        1.0  0.2211625423497382  0.5747747663177376  0.6290663418637907  1.0000
  N   N2        1.0  0.7788305118024966  0.425226456232103  0.3709352034857218  1.0000
  N   N3        1.0  0.8990478744514192  0.5867498040196039  0.7914626309957173  1.0000
  N   N4        1.0  0.1009459950622542  0.4132491412148055  0.20853852514503762  1.0000
  O   O1        1.0  0.6852747743101658  0.21442872755439873  0.7192327693041848  1.0000
  O   O2        1.0  0.3147440655963081  0.7855736598704011  0.280762769916251  1.0000
  O   O3        1.0  0.36148480280442646  0.3047995382897354  0.5526301566955638  1.0000
  O   O4        1.0  0.6385163230390136  0.6952039852966291  0.4473723281469619  1.0000
