data_image0
_chemical_formula_structural       Cu2H18C16N4Cl4
_chemical_formula_sum              "Cu2 H18 C16 N4 Cl4"
_cell_length_a       7.457835356770991
_cell_length_b       8.814395816213304
_cell_length_c       8.717489709561944
_cell_angle_alpha    93.06805299409146
_cell_angle_beta     119.41049803843592
_cell_angle_gamma    95.34458133765317

_space_group_name_H-M_alt    "P 1"
_space_group_IT_number       1

loop_
  _space_group_symop_operation_xyz
  'x, y, z'

loop_
  _atom_site_type_symbol
  _atom_site_label
  _atom_site_symmetry_multiplicity
  _atom_site_fract_x
  _atom_site_fract_y
  _atom_site_fract_z
  _atom_site_occupancy
  Cu  Cu1       1.0  0.010142883712049345  0.6885221183451975  0.014306115969567677  1.0000
  Cu  Cu2       1.0  0.9898782774133609  0.3114561210116237  0.9857177749269821  1.0000
  H   H1        1.0  0.08750233010544409  0.6613266858258272  0.4697964545937836  1.0000
  H   H2        1.0  0.9124818638551769  0.3386981537402605  0.5301959534026961  1.0000
  H   H3        1.0  0.7061609098941302  0.6182058400539107  0.25940866291770687  1.0000
  H   H4        1.0  0.2938152471810937  0.3817962308620579  0.7405832488338717  1.0000
  H   H5        1.0  0.46448476849916176  0.6661745461577413  0.3774157745770168  1.0000
  H   H6        1.0  0.5355000454522524  0.33380687791329683  0.6225923286423765  1.0000
  H   H7        1.0  0.6157750644400577  0.7253860455492005  0.7033044291318474  1.0000
  H   H8        1.0  0.3842254454331098  0.27458020624141  0.2967181294436614  1.0000
  H   H9        1.0  0.37090822852734806  0.6526228224397314  0.8031692330510863  1.0000
  H   H10       1.0  0.6290679417172526  0.34737342955556016  0.1968201460679778  1.0000
  H   H11       1.0  0.2907784098671583  0.9831901458322676  0.08775088489967686  1.0000
  H   H12       1.0  0.7092336268746562  0.0168166045547835  0.9122477656374953  1.0000
  H   H13       1.0  0.11957336159122875  0.9767691054027096  0.8558147053477183  1.0000
  H   H14       1.0  0.8804388041367018  0.0232365976664539  0.14418854863777844  1.0000
  H   H15       1.0  0.6621547579208098  0.767965087120885  0.02373713994313672  1.0000
  H   H16       1.0  0.3378585565073919  0.23203465903674209  0.9762594031825884  1.0000
  H   H17       1.0  0.6251365133614967  0.8659278646384153  0.18801173524266074  1.0000
  H   H18       1.0  0.37487274377023266  0.13407429138523239  0.8119833864132957  1.0000
  C   C1        1.0  0.051105092342758965  0.7074510398619794  0.6987009786731022  1.0000
  C   C2        1.0  0.9488993646931829  0.2925537627608392  0.30130164899520634  1.0000
  C   C3        1.0  0.9787930665849414  0.6697993334682196  0.5183786479607873  1.0000
  C   C4        1.0  0.021206846704508574  0.33021832143062113  0.48162510306882206  1.0000
  C   C5        1.0  0.76544378930965  0.6508010977679534  0.4001336315826122  1.0000
  C   C6        1.0  0.2345399285288322  0.34920549913695004  0.5998658967604698  1.0000
  C   C7        1.0  0.6318672557670977  0.6743033609160279  0.46540323891861135  1.0000
  C   C8        1.0  0.3681304625451816  0.325699281894984  0.534595625712427  1.0000
  C   C9        1.0  0.715957565208896  0.7098629469196566  0.6473014586025838  1.0000
  C   C10       1.0  0.28403097775537123  0.2901366906866372  0.3527030409528748  1.0000
  C   C11       1.0  0.27566013810216816  0.731797253741462  0.8195431789720543  1.0000
  C   C12       1.0  0.7243497578727583  0.26820140016747734  0.18045088897817854  1.0000
  C   C13       1.0  0.28328022323232455  0.9850053869918657  0.958227081347317  1.0000
  C   C14       1.0  0.7167340787980407  0.014997846717506  0.04177227382546527  1.0000
  C   C15       1.0  0.6015845756111416  0.8676600872806476  0.053197710832336056  1.0000
  C   C16       1.0  0.3984121066619153  0.13233539306487782  0.946788976849902  1.0000
  N   N1        1.0  0.9207922285078067  0.7215786650435091  0.7653336392869289  1.0000
  N   N2        1.0  0.0792222390851265  0.2784256900404857  0.2346646743786707  1.0000
  N   N3        1.0  0.37723059486378924  0.8545465024452029  0.932178926222903  1.0000
  N   N4        1.0  0.622769836987672  0.14545231289825014  0.06780815362047579  1.0000
  Cl  Cl1       1.0  0.1633459128764443  0.8400761425116628  0.26852219814401923  1.0000
  Cl  Cl2       1.0  0.8366832161317671  0.15993606911884228  0.7314888282706062  1.0000
  Cl  Cl3       1.0  0.2563062330757262  0.500941561545048  0.020151888609177597  1.0000
  Cl  Cl4       1.0  0.7436658930417861  0.49905128139558735  0.9798335364075895  1.0000
