data_image0
_chemical_formula_structural       Hf12H32C80N24O64
_chemical_formula_sum              "Hf12 H32 C80 N24 O64"
_cell_length_a       17.11489608303862
_cell_length_b       17.12061976689085
_cell_length_c       31.93259705248654
_cell_angle_alpha    89.89246392448224
_cell_angle_beta     90.05602879365011
_cell_angle_gamma    89.95621786526375

_space_group_name_H-M_alt    "P 1"
_space_group_IT_number       1

loop_
  _space_group_symop_operation_xyz
  'x, y, z'

loop_
  _atom_site_type_symbol
  _atom_site_label
  _atom_site_symmetry_multiplicity
  _atom_site_fract_x
  _atom_site_fract_y
  _atom_site_fract_z
  _atom_site_occupancy
  Hf  Hf1       1.0  0.09508395254961499  0.9445095433109859  0.5466642481333109  1.0000
  Hf  Hf2       1.0  0.08658233361356339  0.9524084069816541  0.43645432480588636  1.0000
  Hf  Hf3       1.0  0.9505533296888513  0.08832351149538908  0.5515405933876067  1.0000
  Hf  Hf4       1.0  0.9424099235749424  0.10046314013988683  0.4415094751011636  1.0000
  Hf  Hf5       1.0  0.1217802711787286  0.12356300372605493  0.4946008570920099  1.0000
  Hf  Hf6       1.0  0.9156319985447611  0.9181435055418562  0.4938986535401923  1.0000
  Hf  Hf7       1.0  0.6002225256335973  0.6065359906305477  0.04790373011779539  1.0000
  Hf  Hf8       1.0  0.5896531478840075  0.5948669916286422  0.9380291430785234  1.0000
  Hf  Hf9       1.0  0.45699712105584916  0.45968523694141794  0.052348905594094185  1.0000
  Hf  Hf10      1.0  0.4429394932841362  0.45192580482204653  0.942374830587255  1.0000
  Hf  Hf11      1.0  0.41954896269326264  0.6309007898625297  0.9957371843147056  1.0000
  Hf  Hf12      1.0  0.6260313276990814  0.42431153931855203  0.9945399052625205  1.0000
  H   H1        1.0  0.05647188788751121  0.8250074451446708  0.4934552136473157  1.0000
  H   H2        1.0  0.09574395875582549  0.10541926853340303  0.40685894780288107  1.0000
  H   H3        1.0  0.8239934733758362  0.07185373399358501  0.4946775174748551  1.0000
  H   H4        1.0  0.10155723576467318  0.09715258867907291  0.5832971765497063  1.0000
  H   H5        1.0  0.10751429458350968  0.97699981774899  0.3528010876922848  1.0000
  H   H6        1.0  0.004545441546269999  0.0340142623188768  0.3691650851312857  1.0000
  H   H7        1.0  0.8580836180268959  0.22879090888163495  0.4409546154440846  1.0000
  H   H8        1.0  0.8101567033456688  0.16084490191571632  0.5758966646873631  1.0000
  H   H9        1.0  0.9274927862332659  0.058791482172935616  0.6327153706390405  1.0000
  H   H10       1.0  0.030863223792159993  0.007556691836391803  0.6191700432720991  1.0000
  H   H11       1.0  0.22648242882032577  0.8615821735317158  0.543199022325325  1.0000
  H   H12       1.0  0.18369412025486298  0.8560513981028492  0.4846175187894488  1.0000
  H   H13       1.0  0.8760077905666392  0.22602322034386196  0.5694657766737308  1.0000
  H   H14       1.0  0.05594410833641209  0.9162718079172766  0.6282871397234826  1.0000
  H   H15       1.0  0.1712993538371634  0.8112845437443924  0.4392124198385614  1.0000
  H   H16       1.0  0.9142604353029996  0.0615111766224743  0.3603957148624132  1.0000
  H   H17       1.0  0.717824306817363  0.5779807491567583  0.9940526594127234  1.0000
  H   H18       1.0  0.43772699184375335  0.6061442464635222  0.907733758387529  1.0000
  H   H19       1.0  0.471982637002732  0.3330983996245252  0.9954119214286619  1.0000
  H   H20       1.0  0.445642644143298  0.6098340914890841  0.08402999320090737  1.0000
  H   H21       1.0  0.5596173617938333  0.6236661825617278  0.8552166572319138  1.0000
  H   H22       1.0  0.5095424760296794  0.5162219786808466  0.8699856174462894  1.0000
  H   H23       1.0  0.31479171472788886  0.367402795837208  0.9418257686764449  1.0000
  H   H24       1.0  0.3848989726822936  0.319107160160307  0.07682399940647848  1.0000
  H   H25       1.0  0.4863584171017337  0.4360728395865652  0.13336899401887334  1.0000
  H   H26       1.0  0.5378022711558899  0.5411998540183094  0.12011805830385207  1.0000
  H   H27       1.0  0.6855670605114099  0.7337551307119768  0.049986270754516185  1.0000
  H   H28       1.0  0.7287222878141293  0.6633874923421318  0.9144468820901606  1.0000
  H   H29       1.0  0.31973427607918137  0.3848918030524332  0.07004493915641768  1.0000
  H   H30       1.0  0.6284317324417116  0.5672201552056964  0.1288400501081171  1.0000
  H   H31       1.0  0.6674608586638797  0.7330455904442491  0.9205250343193541  1.0000
  H   H32       1.0  0.48360034783835465  0.4261184582155053  0.861112102949775  1.0000
  C   C1        1.0  0.24877388000633974  0.05173799746536642  0.5586346650502492  1.0000
  C   C2        1.0  0.9778458349676596  0.7989610262992672  0.4242048778655486  1.0000
  C   C3        1.0  0.24404752098356403  0.057525215632679816  0.42776540349461806  1.0000
  C   C4        1.0  0.9781770214190643  0.7968013573926671  0.5632600887748608  1.0000
  C   C5        1.0  0.7972344610998904  0.9767538972516191  0.5657532755684613  1.0000
  C   C6        1.0  0.0555006560501639  0.2530372290599845  0.43197969396971553  1.0000
  C   C7        1.0  0.7949373908073412  0.9774720659744248  0.4260014993054853  1.0000
  C   C8        1.0  0.0554933673074771  0.24877356479368032  0.5601241809386295  1.0000
  C   C9        1.0  0.0371805064545754  0.4584565833804177  0.6193067154744085  1.0000
  C   C10       1.0  0.0242247869074745  0.5208594071502547  0.6811673805033533  1.0000
  C   C11       1.0  0.0025480213062039  0.5857820098334159  0.6205644604187057  1.0000
  C   C12       1.0  0.5846572783507256  0.00042355480268699996  0.6212702461164594  1.0000
  C   C13       1.0  0.519370855258174  0.021615851313498503  0.6816280444945305  1.0000
  C   C14       1.0  0.4571720809788644  0.03457403146359181  0.6195689042165711  1.0000
  C   C15       1.0  0.5828521168014545  0.9999924782948711  0.3698195702468395  1.0000
  C   C16       1.0  0.4556054475131218  0.03537980078866811  0.37082812363343004  1.0000
  C   C17       1.0  0.518110114218821  0.02057066636487551  0.3091154242963582  1.0000
  C   C18       1.0  0.03818200572128919  0.46056138407927716  0.3706181277728503  1.0000
  C   C19       1.0  0.0220239833754263  0.5208267276921817  0.30822835083804273  1.0000
  C   C20       1.0  0.0009573593984483998  0.5871345712234872  0.3682127037489237  1.0000
  C   C21       1.0  0.5078243081721112  0.9670923259954665  0.8713530517537931  1.0000
  C   C22       1.0  0.5430733627197241  0.0942067588235957  0.8691627797690271  1.0000
  C   C23       1.0  0.5221817464607454  0.02791645660470011  0.8090639787985764  1.0000
  C   C24       1.0  0.48698607194339877  0.7589058568214783  0.0584735888342536  1.0000
  C   C25       1.0  0.7448646632580276  0.4839536619757398  0.924306660830666  1.0000
  C   C26       1.0  0.48630037452696945  0.7568248538734609  0.9299243659672098  1.0000
  C   C27       1.0  0.7460765549959304  0.48165274054591134  0.06328121680021329  1.0000
  C   C28       1.0  0.5677801706141423  0.30557367217610937  0.0660711272209582  1.0000
  C   C29       1.0  0.29064789094541504  0.5653397187371213  0.9325039752127463  1.0000
  C   C30       1.0  0.5658601047731153  0.30537417337980344  0.925850178095274  1.0000
  C   C31       1.0  0.29427696414757776  0.5621898587956553  0.06049204922113919  1.0000
  C   C32       1.0  0.08392693102769039  0.5440624965201836  0.8709310246205177  1.0000
  C   C33       1.0  0.0249281325503148  0.5226871897738264  0.8086923051671632  1.0000
  C   C34       1.0  0.9576349924182992  0.505727341580048  0.8688144094323602  1.0000
  C   C35       1.0  0.5047015515180249  0.9666526787620954  0.11922404420455729  1.0000
  C   C36       1.0  0.5202048622398082  0.026587041788808115  0.18166881343568514  1.0000
  C   C37       1.0  0.5418936349732063  0.09314905796102121  0.12169135347864567  1.0000
  C   C38       1.0  0.08455919120774522  0.5378112361420692  0.11896898450789448  1.0000
  C   C39       1.0  0.9576728141151848  0.5016745049203024  0.12001499508677677  1.0000
  C   C40       1.0  0.023185727089753496  0.5192857976879638  0.1807318788177881  1.0000
  C   C41       1.0  0.5696417644558308  0.22856848560268622  0.0848403584461437  1.0000
  C   C42       1.0  0.5596974688611097  0.16505604022738402  0.10110628282398437  1.0000
  C   C43       1.0  0.48308886835159376  0.8353585336256588  0.0777055699085807  1.0000
  C   C44       1.0  0.4895365818571237  0.8972264278540721  0.0960588339087067  1.0000
  C   C45       1.0  0.21434066986300587  0.5690824768887526  0.9129172612056917  1.0000
  C   C46       1.0  0.1529424173105411  0.5612811641984126  0.8941570043746125  1.0000
  C   C47       1.0  0.8218671097218149  0.48092116794580164  0.905633649862686  1.0000
  C   C48       1.0  0.8856177119401777  0.4893990641320941  0.889461995133729  1.0000
  C   C49       1.0  0.21689195481270218  0.5627887957778841  0.0786775374998001  1.0000
  C   C50       1.0  0.15468475814709137  0.5541418411236307  0.09646285247683288  1.0000
  C   C51       1.0  0.8226629248177061  0.47760659396666943  0.0823857856849912  1.0000
  C   C52       1.0  0.8862512276987502  0.48560981072461834  0.0988363686863138  1.0000
  C   C53       1.0  0.5600628573815739  0.1657890354028808  0.8898458301407925  1.0000
  C   C54       1.0  0.5689316820733764  0.22918509079241295  0.9062937414305949  1.0000
  C   C55       1.0  0.4931225839493223  0.8969540482767544  0.8942423376467302  1.0000
  C   C56       1.0  0.48532246788160893  0.8344647197532781  0.9119271623564202  1.0000
  C   C57       1.0  0.0240840687332096  0.5190903205797641  0.22545857670889544  1.0000
  C   C58       1.0  0.023566536637453298  0.5191812733063373  0.2635118361770025  1.0000
  C   C59       1.0  0.517764181937238  0.0226218879691871  0.26438305414479396  1.0000
  C   C60       1.0  0.5184911277266265  0.024221691882687003  0.22634260430638875  1.0000
  C   C61       1.0  0.5189175487836977  0.0242760561672526  0.7263164922047877  1.0000
  C   C62       1.0  0.520143161392319  0.025945400143768903  0.7643523854057432  1.0000
  C   C63       1.0  0.0269778866574413  0.5213695364526247  0.763946574617961  1.0000
  C   C64       1.0  0.026535899407875298  0.5204231734805378  0.7258893406675  1.0000
  C   C65       1.0  0.9837320506497277  0.6589354098323458  0.38881989261421507  1.0000
  C   C66       1.0  0.9749069057783472  0.7224707286894374  0.4051109853534385  1.0000
  C   C67       1.0  0.0598679152082511  0.3293855255799728  0.4125372839067508  1.0000
  C   C68       1.0  0.05333633044073591  0.39105200849508753  0.3938720551529258  1.0000
  C   C69       1.0  0.9760341478722337  0.7204317714974806  0.5827455196127787  1.0000
  C   C70       1.0  0.9853205946878701  0.657147813788626  0.5994003481596621  1.0000
  C   C71       1.0  0.051035863746548706  0.3879608636868214  0.596730741096337  1.0000
  C   C72       1.0  0.057791892981896395  0.3257276344934752  0.5787748161620739  1.0000
  C   C73       1.0  0.7181011628690328  0.9744158762824001  0.40709965162904627  1.0000
  C   C74       1.0  0.6543037506163073  0.983174532974296  0.3909378284023218  1.0000
  C   C75       1.0  0.32176114516217075  0.05813154079278602  0.4099596633370055  1.0000
  C   C76       1.0  0.38488879931658454  0.05030216417996769  0.3930236560208441  1.0000
  C   C77       1.0  0.6564398671154592  0.9836328770982945  0.6004434048687981  1.0000
  C   C78       1.0  0.7202020527968429  0.9744811109668562  0.5843983907735647  1.0000
  C   C79       1.0  0.3249803402658955  0.0543923055642708  0.5782734864644467  1.0000
  C   C80       1.0  0.38690009058459646  0.048200058878663306  0.5967063432661346  1.0000
  N   N1        1.0  0.042340652902574  0.4538532383015622  0.6613976850452089  1.0000
  N   N2        1.0  0.003564887028623799  0.5886389324621392  0.6627656558447511  1.0000
  N   N3        1.0  0.018098022467476903  0.5225029828133358  0.596941418589793  1.0000
  N   N4        1.0  0.5873793905398514  0.0012387004002647002  0.6634655121267059  1.0000
  N   N5        1.0  0.4524205571194742  0.039553511393762605  0.6616578734255609  1.0000
  N   N6        1.0  0.5215732457313678  0.015908681550747907  0.5974308606349723  1.0000
  N   N7        1.0  0.5195797763940249  0.0165692389243191  0.3933080702981683  1.0000
  N   N8        1.0  0.4511773558545896  0.039659481212190414  0.328681450446247  1.0000
  N   N9        1.0  0.5856698833673305  0.9997342304887837  0.3275900084831206  1.0000
  N   N10       1.0  0.04244030163251719  0.45492524695140474  0.3285386680860043  1.0000
  N   N11       1.0  5.1530199975499996e-05  0.588615015503109  0.3260106610265439  1.0000
  N   N12       1.0  0.018737532376050598  0.5250699763020708  0.3924067667947426  1.0000
  N   N13       1.0  0.5267433379537252  0.03147388600651619  0.8932329579906335  1.0000
  N   N14       1.0  0.5429586776515123  0.0959218770767265  0.8268966727991367  1.0000
  N   N15       1.0  0.5033808227124011  0.9614564727872763  0.8292830045685448  1.0000
  N   N16       1.0  0.09029542167194649  0.5450883561023901  0.8287916993641458  1.0000
  N   N17       1.0  0.9569918892943646  0.5015272524650884  0.8266469886864698  1.0000
  N   N18       1.0  0.019104562193717794  0.525943867967058  0.8928307561502249  1.0000
  N   N19       1.0  0.5000864072379158  0.9608561218205482  0.16128691604619408  1.0000
  N   N20       1.0  0.5420046596292422  0.09459680239945102  0.1638951040427017  1.0000
  N   N21       1.0  0.5245851671074816  0.031233268195833802  0.09746352795287547  1.0000
  N   N22       1.0  0.020475719963165797  0.5198801719383398  0.09648037473088067  1.0000
  N   N23       1.0  0.9554899597807778  0.49915425223872495  0.1622263484674065  1.0000
  N   N24       1.0  0.08973661612646569  0.539706482540595  0.16110794371545714  1.0000
  O   O1        1.0  0.21054600753215166  0.9897640989081823  0.5671505270988461  1.0000
  O   O2        1.0  0.22723396719327132  0.10864610372278351  0.5358313120411536  1.0000
  O   O3        1.0  0.03832253324404179  0.8381339728556157  0.4142057953502983  1.0000
  O   O4        1.0  0.9237826486945053  0.8188003379942758  0.4493572775479464  1.0000
  O   O5        1.0  0.20206602901065196  0.0005753136975883001  0.4156785955464527  1.0000
  O   O6        1.0  0.22487518036524531  0.11196492742112703  0.45289564508598795  1.0000
  O   O7        1.0  0.03582762973033479  0.8385348225860981  0.5750301747567405  1.0000
  O   O8        1.0  0.9263424671516701  0.8141471998390063  0.5362702489988037  1.0000
  O   O9        1.0  0.17535807488031446  0.8564734736663057  0.5302280440741141  1.0000
  O   O10       1.0  0.0749334817621445  0.9643892700170865  0.6155560628040602  1.0000
  O   O11       1.0  0.17959946098446267  0.8625081210271761  0.451516941642538  1.0000
  O   O12       1.0  0.06536382929503048  0.9727101009735436  0.3729381991517683  1.0000
  O   O13       1.0  0.1227097018691694  0.004004981475347302  0.49265009993987247  1.0000
  O   O14       1.0  0.04301468208952739  0.880075559213431  0.4933734408201288  1.0000
  O   O15       1.0  0.8381531391213173  0.0351661452175307  0.5777610785693879  1.0000
  O   O16       1.0  0.8163041098992921  0.9249053286888086  0.5395415562753241  1.0000
  O   O17       1.0  0.9933867342241314  0.21620887651161524  0.4228488155466151  1.0000
  O   O18       1.0  0.1115178122905647  0.23036307733524816  0.45537172449366636  1.0000
  O   O19       1.0  0.8376500919692874  0.03256546692887951  0.41282039630101497  1.0000
  O   O20       1.0  0.8114855890813927  0.9277982733443084  0.4545809063396077  1.0000
  O   O21       1.0  0.9931316200459291  0.21093875405636459  0.5685139101465282  1.0000
  O   O22       1.0  0.11295149662548448  0.22572621064109205  0.5383458597022608  1.0000
  O   O23       1.0  0.8515738983475385  0.17945193392358763  0.5574572300555545  1.0000
  O   O24       1.0  0.9728662084290958  0.07127070377827492  0.6157225708874279  1.0000
  O   O25       1.0  0.852430009509227  0.17362784906389095  0.44704400468552297  1.0000
  O   O26       1.0  0.9630131010717803  0.07919285812035784  0.373006016033024  1.0000
  O   O27       1.0  0.8769753848807157  0.0515067840938883  0.49694694495114067  1.0000
  O   O28       1.0  0.0024429079905559  0.12696878424969782  0.4965824099502853  1.0000
  O   O29       1.0  0.9768638545210988  0.9753522793874294  0.5396716676198849  1.0000
  O   O30       1.0  0.07311607369150151  0.08381273852450023  0.4322059128660668  1.0000
  O   O31       1.0  0.0793221629786274  0.07528137106232441  0.5578904963676051  1.0000
  O   O32       1.0  0.9730365344548916  0.9797326856517756  0.4491661248948445  1.0000
  O   O33       1.0  0.5492284830192061  0.7218325344650156  0.06718447928601279  1.0000
  O   O34       1.0  0.43032991282934313  0.7363298005242032  0.03560853035075699  1.0000
  O   O35       1.0  0.7051994689722391  0.543614449059362  0.9133978113156542  1.0000
  O   O36       1.0  0.7247710903804289  0.430656091492132  0.9497391549584363  1.0000
  O   O37       1.0  0.5467150054688759  0.7170818648556293  0.9196912346495834  1.0000
  O   O38       1.0  0.42996387357731436  0.7350508725743411  0.9527965555557711  1.0000
  O   O39       1.0  0.7033937241293629  0.536365670266683  0.07692356028669417  1.0000
  O   O40       1.0  0.7298411472890508  0.43306795956296906  0.034276756202352494  1.0000
  O   O41       1.0  0.6906979841038066  0.6788377701710786  0.043249347866414184  1.0000
  O   O42       1.0  0.5796263335302853  0.5856628562596172  0.11652518270246047  1.0000
  O   O43       1.0  0.6893324892582626  0.6857263935804312  0.9330767401334512  1.0000
  O   O44       1.0  0.5707387043170512  0.5801818358679328  0.8737818880250215  1.0000
  O   O45       1.0  0.5392436264801929  0.6343361616532167  0.9934063499984729  1.0000
  O   O46       1.0  0.6646464955850532  0.5579927993497906  0.9928553960968853  1.0000
  O   O47       1.0  0.5101947748452246  0.3472707730912747  0.07841901258510117  1.0000
  O   O48       1.0  0.619095238680103  0.3240661615079646  0.03934958754096839  1.0000
  O   O49       1.0  0.3278850822596126  0.503364953528454  0.9234347404190968  1.0000
  O   O50       1.0  0.31298838834189263  0.6212955659980325  0.9558278792944177  1.0000
  O   O51       1.0  0.5109323479982351  0.34858851585614303  0.9127532492996053  1.0000
  O   O52       1.0  0.6151304790533273  0.3205960883775845  0.9546870443971753  1.0000
  O   O53       1.0  0.3333776225076903  0.5007154294701693  0.06920720315045509  1.0000
  O   O54       1.0  0.3165793504209091  0.6200447913725072  0.0387058952225701  1.0000
  O   O55       1.0  0.3660465015797739  0.3599035092571087  0.0579926134070945  1.0000
  O   O56       1.0  0.47357415143116555  0.48130276604717903  0.11626745387549417  1.0000
  O   O57       1.0  0.37014740574725374  0.36181598325483594  0.9474420357894217  1.0000
  O   O58       1.0  0.4651070623904446  0.47463682473811275  0.8736194896326308  1.0000
  O   O59       1.0  0.49240015429099765  0.3860295791335987  0.9973504093424879  1.0000
  O   O60       1.0  0.4170289118938655  0.5116600753388454  0.9971722635053125  1.0000
  O   O61       1.0  0.569250775774009  0.48614892582006786  0.039343489615617996  1.0000
  O   O62       1.0  0.4600563614381982  0.5838591916326763  0.9330115266809711  1.0000
  O   O63       1.0  0.4679437076321449  0.5883834074793981  0.0585478088674023  1.0000
  O   O64       1.0  0.5640818475938971  0.4821788781209052  0.9495009129853569  1.0000
