data_image0
_chemical_formula_structural       Mn2H18C14N14O6
_chemical_formula_sum              "Mn2 H18 C14 N14 O6"
_cell_length_a       7.303263510055958
_cell_length_b       7.773343642957245
_cell_length_c       10.197743505485683
_cell_angle_alpha    79.82715082537761
_cell_angle_beta     75.70936010542167
_cell_angle_gamma    74.32576120127871

_space_group_name_H-M_alt    "P 1"
_space_group_IT_number       1

loop_
  _space_group_symop_operation_xyz
  'x, y, z'

loop_
  _atom_site_type_symbol
  _atom_site_label
  _atom_site_symmetry_multiplicity
  _atom_site_fract_x
  _atom_site_fract_y
  _atom_site_fract_z
  _atom_site_occupancy
  Mn  Mn1       1.0  7.116489157981187e-06  0.49999506151390705  0.999998171916168  1.0000
  Mn  Mn2       1.0  9.741630008259852e-07  0.9999992939469139  0.9999998403819035  1.0000
  H   H1        1.0  0.4650500780861933  0.005053374803246399  0.2528680571474666  1.0000
  H   H2        1.0  0.5349491010363963  0.9949431060344693  0.7471329155462169  1.0000
  H   H3        1.0  0.36111823660708336  0.9245872887120186  0.1437039062679801  1.0000
  H   H4        1.0  0.6388819165075432  0.075410559019204  0.8562927769408971  1.0000
  H   H5        1.0  0.3031591707038288  0.6301265044091765  0.19912750454777486  1.0000
  H   H6        1.0  0.69683254502236  0.36987673940173943  0.8008700401181057  1.0000
  H   H7        1.0  0.1719406887129793  0.41564994271378447  0.3900319451383608  1.0000
  H   H8        1.0  0.82805388314771  0.5843478981440028  0.6099687301430592  1.0000
  H   H9        1.0  0.16932678026917358  0.45280869713013067  0.6308381656647768  1.0000
  H   H10       1.0  0.8306770012739334  0.5471918149343722  0.36916042028477153  1.0000
  H   H11       1.0  0.3096571000181996  0.695050434576238  0.6700650671824988  1.0000
  H   H12       1.0  0.6903423681855259  0.30495010413348916  0.3299313835810977  1.0000
  H   H13       1.0  0.4514963996287308  0.8888118165852744  0.46657139880028353  1.0000
  H   H14       1.0  0.5485034352969079  0.1111873705779942  0.5334261451841229  1.0000
  H   H15       1.0  0.08002938593169523  0.21509336509506477  0.19231085027269051  1.0000
  H   H16       1.0  0.9199708642487747  0.7849044584073539  0.8076897409288435  1.0000
  H   H17       1.0  0.25477919479497757  0.31565465356642625  0.1566706014406449  1.0000
  H   H18       1.0  0.7452210796519622  0.6843431638787932  0.8433309667590477  1.0000
  C   C1        1.0  0.6640374144080992  0.8037610574459321  0.13384255172238826  1.0000
  C   C2        1.0  0.335959763356108  0.19623809296601286  0.8661623617881773  1.0000
  C   C3        1.0  0.460574191376807  0.8834154298490232  0.21476194795589273  1.0000
  C   C4        1.0  0.5394330293044689  0.1165824037594945  0.7852334089054196  1.0000
  C   C5        1.0  0.3039129854589291  0.6351163460476313  0.3048663124684196  1.0000
  C   C6        1.0  0.6960823635371156  0.3648841708497059  0.6951358190945315  1.0000
  C   C7        1.0  0.2284706777803294  0.5208311887608943  0.4120424718230993  1.0000
  C   C8        1.0  0.7715250573627088  0.4791733617796439  0.5879590458024209  1.0000
  C   C9        1.0  0.22734387693223101  0.5418713700138867  0.5453332895937917  1.0000
  C   C10       1.0  0.7726518582108071  0.4581331805266514  0.45466822803172835  1.0000
  C   C11       1.0  0.3049651017580856  0.6764054487604554  0.567963187161368  1.0000
  C   C12       1.0  0.695036899549784  0.3235964176750343  0.43203457083689045  1.0000
  C   C13       1.0  0.3832256583098967  0.7849844176397839  0.4577190919315299  1.0000
  C   C14       1.0  0.6167697877519984  0.21501607502874978  0.5422869476240777  1.0000
  N   N1        1.0  0.17481388554227809  0.6991332802787581  0.9978455345919881  1.0000
  N   N2        1.0  0.8251916519696036  0.3008658834719498  0.002152902310690804  1.0000
  N   N3        1.0  0.335896688596648  0.6891936229563456  0.9286939347198384  1.0000
  N   N4        1.0  0.6641004406346412  0.3108055395700049  0.07130902479440937  1.0000
  N   N5        1.0  0.49066451297384356  0.6843079420341738  0.8596634369220126  1.0000
  N   N6        1.0  0.5093381975113758  0.315691227365619  0.1403355305196925  1.0000
  N   N7        1.0  0.005777642296052901  0.006896711225294898  0.20980707098383533  1.0000
  N   N8        1.0  0.9942278418415209  0.9931078558866702  0.7901867277661198  1.0000
  N   N9        1.0  0.9046528784338577  0.9400413604426916  0.30588350110885903  1.0000
  N   N10       1.0  0.09533367613460797  0.05995512158707331  0.6941237670030915  1.0000
  N   N11       1.0  0.8068970856127533  0.8734381714487255  0.3991621404189304  1.0000
  N   N12       1.0  0.19310620303475187  0.1265691136950835  0.6008277831626002  1.0000
  N   N13       1.0  0.38031572993374835  0.7639552469746107  0.32931437853893897  1.0000
  N   N14       1.0  0.6196829050353329  0.2360492797452451  0.6706895395420459  1.0000
  O   O1        1.0  0.1114422364128629  0.33576498724271175  0.17320384504285613  1.0000
  O   O2        1.0  0.8885566487872011  0.664232826969844  0.8267989654245155  1.0000
  O   O3        1.0  0.7384382481245806  0.6367291720988889  0.14682950503299713  1.0000
  O   O4        1.0  0.26156300031438934  0.3632700122398447  0.8531677736818892  1.0000
  O   O5        1.0  0.7373509942632593  0.9236843113456388  0.053014474930392984  1.0000
  O   O6        1.0  0.26265427843394906  0.0763107884758583  0.9469894609005252  1.0000
