data_image0
_chemical_formula_structural       Zn4H48C48N4O16
_chemical_formula_sum              "Zn4 H48 C48 N4 O16"
_cell_length_a       7.554266995879929
_cell_length_b       10.93351993157178
_cell_length_c       14.432493349319065
_cell_angle_alpha    96.7323603238341
_cell_angle_beta     89.96673337765911
_cell_angle_gamma    110.19287952242284

_space_group_name_H-M_alt    "P 1"
_space_group_IT_number       1

loop_
  _space_group_symop_operation_xyz
  'x, y, z'

loop_
  _atom_site_type_symbol
  _atom_site_label
  _atom_site_symmetry_multiplicity
  _atom_site_fract_x
  _atom_site_fract_y
  _atom_site_fract_z
  _atom_site_occupancy
  Zn  Zn1       1.0  0.750184247165528  0.5521812053032135  0.9934980552859328  1.0000
  Zn  Zn2       1.0  0.19806465895619138  0.44781208395421157  0.5065796830899315  1.0000
  Zn  Zn3       1.0  0.24981504574093794  0.44781970459963116  0.006500976517955304  1.0000
  Zn  Zn4       1.0  0.8019349781166053  0.5521868665319615  0.4934198748632781  1.0000
  H   H1        1.0  0.011447209494917593  0.8185160188934331  0.9880905333796405  1.0000
  H   H2        1.0  0.19303312062420727  0.18139356628978476  0.5119975833869077  1.0000
  H   H3        1.0  0.9885511039129399  0.18148293177366528  0.011909024791506793  1.0000
  H   H4        1.0  0.8069670072813223  0.8186063663652803  0.4880020580446923  1.0000
  H   H5        1.0  0.1464504929080803  0.028753836561989498  0.09475895125644478  1.0000
  H   H6        1.0  0.11729164744831859  0.9710300305884301  0.4053446031313114  1.0000
  H   H7        1.0  0.8535483113325028  0.971246096274001  0.9052406903931  1.0000
  H   H8        1.0  0.882708478290368  0.028969896964603895  0.5946543449762416  1.0000
  H   H9        1.0  0.8837177889147582  0.8106254985819704  0.3207751829895216  1.0000
  H   H10       1.0  0.07287259579769059  0.1892300617158753  0.17941622454860348  1.0000
  H   H11       1.0  0.11628547932021857  0.1893754209821452  0.6792252348086407  1.0000
  H   H12       1.0  0.9271270412751065  0.810768888770298  0.820583333404599  1.0000
  H   H13       1.0  0.759289551151248  0.613820897366537  0.20532133836547217  1.0000
  H   H14       1.0  0.14616237215788885  0.38624817519206545  0.2947969745936874  1.0000
  H   H15       1.0  0.240709748255746  0.386180027842407  0.7946797734105573  1.0000
  H   H16       1.0  0.8538355992504805  0.6137527399937426  0.7052027507521783  1.0000
  H   H17       1.0  0.5354113359294812  0.39367519346931346  0.2590222824535218  1.0000
  H   H18       1.0  0.14234736178612908  0.6064241707316923  0.24102050774103387  1.0000
  H   H19       1.0  0.46458928064193117  0.6063257162526057  0.7409767491324216  1.0000
  H   H20       1.0  0.8576531102857246  0.39357380250668667  0.7589796598398877  1.0000
  H   H21       1.0  0.8675659513674318  0.42758842077592607  0.255824857719027  1.0000
  H   H22       1.0  0.44040928142143787  0.5723026473959719  0.24418900291878026  1.0000
  H   H23       1.0  0.13243383453860957  0.5724134763978412  0.7441749508872987  1.0000
  H   H24       1.0  0.5595913416504954  0.42769827763203944  0.7558121086393115  1.0000
  H   H25       1.0  0.7188746645194897  0.0820970417671774  0.1271660268696095  1.0000
  H   H26       1.0  0.6373143117914353  0.9178441710617379  0.3728128490087101  1.0000
  H   H27       1.0  0.28112413755425053  0.9179028859667822  0.872832921455881  1.0000
  H   H28       1.0  0.36268547628144177  0.0821577312140604  0.6271876529216626  1.0000
  H   H29       1.0  0.6227334199674458  0.16688408009951422  0.05396912995908559  1.0000
  H   H30       1.0  0.4561834535242607  0.8332008797526452  0.4460325295410286  1.0000
  H   H31       1.0  0.37726587510586257  0.8331168349053683  0.9460305951688425  1.0000
  H   H32       1.0  0.5438163345486161  0.1668010225231598  0.5539679723893443  1.0000
  H   H33       1.0  0.4736722885526774  0.055102756487599415  0.12375901361592409  1.0000
  H   H34       1.0  0.41920488893553165  0.9449945119489837  0.3762243511957236  1.0000
  H   H35       1.0  0.5263261736884103  0.9448991408671006  0.8762407952083392  1.0000
  H   H36       1.0  0.5807939174718867  0.05500542598903729  0.6237759837778611  1.0000
  H   H37       1.0  0.4973412503174117  0.1273147680874089  0.310274483371053  1.0000
  H   H38       1.0  0.3699411063840115  0.8726104975149198  0.18987485262906026  1.0000
  H   H39       1.0  0.5026575517563285  0.8726851596465507  0.6897244649544376  1.0000
  H   H40       1.0  0.6300585328556211  0.127388458073284  0.8101253986481964  1.0000
  H   H41       1.0  0.673938539317419  0.27844660155091117  0.3541395575604085  1.0000
  H   H42       1.0  0.3957333978873975  0.7215592623223017  0.14588173191867776  1.0000
  H   H43       1.0  0.3260615907549465  0.7215533362061777  0.6458607771952387  1.0000
  H   H44       1.0  0.6042667343518033  0.27844068053682486  0.8541192961610234  1.0000
  H   H45       1.0  0.7390028431354594  0.14325971086065442  0.3066508674072921  1.0000
  H   H46       1.0  0.5958013860089579  0.8568466496389605  0.1932330816902947  1.0000
  H   H47       1.0  0.260998117602284  0.8567392394445859  0.6933486903279799  1.0000
  H   H48       1.0  0.4041982532306818  0.1431523059492434  0.8067671695869618  1.0000
  C   C1        1.0  0.9874695290799874  0.8224966702827387  0.06250625350233459  1.0000
  C   C2        1.0  0.16474519096614415  0.17736634475622987  0.437630909877697  1.0000
  C   C3        1.0  0.01253011015965199  0.1775022853054651  0.9374939977749219  1.0000
  C   C4        1.0  0.8352531202748706  0.8226326008088378  0.5623679549694031  1.0000
  C   C5        1.0  0.06007875854120211  0.9389489393870181  0.12207914074326  1.0000
  C   C6        1.0  0.12064726530302038  0.06084669360348729  0.37809493463920046  1.0000
  C   C7        1.0  0.9399222000296988  0.061050005816191785  0.8779197236679648  1.0000
  C   C8        1.0  0.8793541841006058  0.9391532337686072  0.6219040132504147  1.0000
  C   C9        1.0  0.021713535312407668  0.9387653349753151  0.21740556079868156  1.0000
  C   C10       1.0  0.08265298133551369  0.0610859184294981  0.28278493070693134  1.0000
  C   C11       1.0  0.9782879162580612  0.06123459749881018  0.7825940804149809  1.0000
  C   C12       1.0  0.9173484680681125  0.9389140089425964  0.717214017182684  1.0000
  C   C13       1.0  0.9166458003924801  0.8188264112701161  0.24794659025856444  1.0000
  C   C14       1.0  0.09747810271009166  0.18103802872019506  0.25224300495751345  1.0000
  C   C15       1.0  0.08335482051261067  0.1811745086558645  0.7520538279754732  1.0000
  C   C16       1.0  0.9025215343627051  0.8189609217659778  0.747756552995696  1.0000
  C   C17       1.0  0.8471891495779713  0.706913536767459  0.1835459722001502  1.0000
  C   C18       1.0  0.14042376888015437  0.2930326823870217  0.3165971267934181  1.0000
  C   C19       1.0  0.1528109804943937  0.2930864009896368  0.8164543625554967  1.0000
  C   C20       1.0  0.859573711695489  0.7069672506299014  0.6834025150740641  1.0000
  C   C21       1.0  0.4538500413663654  0.35337466536774537  0.11265270877341037  1.0000
  C   C22       1.0  0.10082505119225961  0.6467839939502866  0.3874458327937943  1.0000
  C   C23       1.0  0.5461519053705144  0.6466262594793333  0.8873484025667436  1.0000
  C   C24       1.0  0.8991740993814901  0.353213984571056  0.6125550283291188  1.0000
  C   C25       1.0  0.5749116105160111  0.34948139258540317  0.19395733768784845  1.0000
  C   C26       1.0  0.22584747448260592  0.6505935406494247  0.3060971185775826  1.0000
  C   C27       1.0  0.42508719372457177  0.6505185402505873  0.8060423039616963  1.0000
  C   C28       1.0  0.7741526577566018  0.34940640220969493  0.6939039095021116  1.0000
  C   C29       1.0  0.7851506971603754  0.37635269128944765  0.19201358944620484  1.0000
  C   C30       1.0  0.4091823996575669  0.623603795433084  0.30799481730065986  1.0000
  C   C31       1.0  0.21485173174185937  0.6236491953183927  0.8079848320761511  1.0000
  C   C32       1.0  0.590816899749427  0.3763971297758602  0.6920062944753624  1.0000
  C   C33       1.0  0.8923511958829237  0.39802891557319947  0.10542768948736377  1.0000
  C   C34       1.0  0.49457065806676326  0.6019161175498056  0.39456898115503947  1.0000
  C   C35       1.0  0.107650257854388  0.6019710220029636  0.8945726450503458  1.0000
  C   C36       1.0  0.5054303070046586  0.39808284295949653  0.6054319632283267  1.0000
  C   C37       1.0  0.6439789684192476  0.2381598780240139  0.20272594935665467  1.0000
  C   C38       1.0  0.40629312755979186  0.7618349934530926  0.2973119242408018  1.0000
  C   C39       1.0  0.3560203288209037  0.7618410420828992  0.7972744690953205  1.0000
  C   C40       1.0  0.5937074955121416  0.23816593157491886  0.70268918731729  1.0000
  C   C41       1.0  0.613860471243143  0.13037953875711852  0.121963896159663  1.0000
  C   C42       1.0  0.48399779240400403  0.8696546310061777  0.3780208437456877  1.0000
  C   C43       1.0  0.3861401474951051  0.8696213760668314  0.8780358287503346  1.0000
  C   C44       1.0  0.5160019978357084  0.1303472763716513  0.6219803515087321  1.0000
  C   C45       1.0  0.6394269073076019  0.19493799653356092  0.2987968518922912  1.0000
  C   C46       1.0  0.4446380381494489  0.8050728011269751  0.20122611935088486  1.0000
  C   C47       1.0  0.36057503292875737  0.8050629130074185  0.7012021794757217  1.0000
  C   C48       1.0  0.5553634199215407  0.19492714665324937  0.7987756018349187  1.0000
  N   N1        1.0  0.8793971928135063  0.7087082568806906  0.09201185626192648  1.0000
  N   N2        1.0  0.17091246146708258  0.2912400029822492  0.4080954926966314  1.0000
  N   N3        1.0  0.12060112492802932  0.2912907039904765  0.9079890885573149  1.0000
  N   N4        1.0  0.8290876642716041  0.708759924570778  0.5919034554109217  1.0000
  O   O1        1.0  0.3310973048051551  0.25191170176922373  0.07389025978252309  1.0000
  O   O2        1.0  0.08027656166964177  0.7483650137864756  0.426540274238519  1.0000
  O   O3        1.0  0.6689023322676418  0.7480872487169419  0.9261092981706867  1.0000
  O   O4        1.0  0.9197222469046196  0.2516349292535764  0.5734607540591128  1.0000
  O   O5        1.0  0.4750811292853071  0.4711546967258968  0.0909325976880453  1.0000
  O   O6        1.0  0.00370695454216009  0.5289186760766426  0.4088515711321889  1.0000
  O   O7        1.0  0.5249190007870579  0.5288452410311918  0.9090677370676019  1.0000
  O   O8        1.0  0.9962938616960241  0.47107733774506483  0.5911491225980681  1.0000
  O   O9        1.0  0.8094114270635159  0.3963857249244284  0.0276095708403261  1.0000
  O   O10       1.0  0.41307008708462684  0.6034490866998964  0.4723897208312593  1.0000
  O   O11       1.0  0.19059316050272196  0.6036151842547  0.9723894600918044  1.0000
  O   O12       1.0  0.5869300408208957  0.3965508459551614  0.5276099206003407  1.0000
  O   O13       1.0  0.06714708357777245  0.4131062745273724  0.1143329791955168  1.0000
  O   O14       1.0  0.6544612658387479  0.5870809466289515  0.3856502937255044  1.0000
  O   O15       1.0  0.9328535416609965  0.586894655602677  0.8856688256866219  1.0000
  O   O16       1.0  0.34553920623310563  0.41291702660943486  0.6143498738554242  1.0000
