data_image0
_chemical_formula_structural       Zn4H20C48S6Br4O22
_chemical_formula_sum              "Zn4 H20 C48 S6 Br4 O22"
_cell_length_a       7.846510332771056
_cell_length_b       12.52076532721233
_cell_length_c       34.75399602155395
_cell_angle_alpha    89.70317668666875
_cell_angle_beta     91.25810311352579
_cell_angle_gamma    90.06563084302284

_space_group_name_H-M_alt    "P 1"
_space_group_IT_number       1

loop_
  _space_group_symop_operation_xyz
  'x, y, z'

loop_
  _atom_site_type_symbol
  _atom_site_label
  _atom_site_symmetry_multiplicity
  _atom_site_fract_x
  _atom_site_fract_y
  _atom_site_fract_z
  _atom_site_occupancy
  Zn  Zn1       1.0  0.6625687117449885  0.9956742489166146  0.5006397200133463  1.0000
  Zn  Zn2       1.0  0.3159574105785409  0.9997267494791732  0.49831724526204363  1.0000
  Zn  Zn3       1.0  0.24704137547952598  0.9910536102250873  0.9992248034779578  1.0000
  Zn  Zn4       1.0  0.593523555238491  0.9956420765072593  0.0016931289278118997  1.0000
  H   H1        1.0  0.6171318259056662  0.9957936274558891  0.8852774254918927  1.0000
  H   H2        1.0  0.650555658328983  0.9995307396629725  0.8149774752014523  1.0000
  H   H3        1.0  0.1014833901950496  0.008321796855994998  0.8014366415323693  1.0000
  H   H4        1.0  0.8077952526379376  0.009129737470921398  0.6983158732023969  1.0000
  H   H5        1.0  0.25871597586971967  0.9997275129456894  0.6848486040567751  1.0000
  H   H6        1.0  0.292045039127423  0.9976837124324903  0.6145508678443222  1.0000
  H   H7        1.0  0.25899557872983076  0.005183354029711  0.7456519609392062  1.0000
  H   H8        1.0  0.6503547344274165  0.004632022734092798  0.7541040866509335  1.0000
  H   H9        1.0  0.6093197511734659  0.9933478909049568  0.11613374886142222  1.0000
  H   H10       1.0  0.6456187211762768  0.9974109600577349  0.18647404999159536  1.0000
  H   H11       1.0  0.09685653724975649  0.9965195058822546  0.1959138641714731  1.0000
  H   H12       1.0  0.8105599732645173  0.9982591932031897  0.3038572380489483  1.0000
  H   H13       1.0  0.2619543784697171  0.9993030231041332  0.31370949489969757  1.0000
  H   H14       1.0  0.29938323392526917  0.9967543975853984  0.38407659437428526  1.0000
  H   H15       1.0  0.2579718001120098  0.9978382818063096  0.2530066221988747  1.0000
  H   H16       1.0  0.6489042117567364  0.9996640071754753  0.24697163077738787  1.0000
  H   H17       1.0  0.12737536535053806  0.6358348606533185  0.4943400264688975  1.0000
  H   H18       1.0  0.7826213833678323  0.632140256246302  0.005601334586629  1.0000
  H   H19       1.0  0.8280043015822329  0.3375736093576336  0.563588916760132  1.0000
  H   H20       1.0  0.07997823668951298  0.3353606077767708  0.9364988222117675  1.0000
  C   C1        1.0  0.3987150668193351  0.7981294367343638  0.5001112380808622  1.0000
  C   C2        1.0  0.5608315061012801  0.9999647262592786  0.5727819828900637  1.0000
  C   C3        1.0  0.42456918377098407  0.1994591880542487  0.49839215199897074  1.0000
  C   C4        1.0  0.5696964046022116  0.99459373365346  0.42766861887916713  1.0000
  C   C5        1.0  0.510752690131767  0.7939696054525242  0.0001285542931413004  1.0000
  C   C6        1.0  0.34840630467472516  0.9966770221926993  0.9270468042396091  1.0000
  C   C7        1.0  0.48564676662258693  0.1952178051773217  0.0012568800398398004  1.0000
  C   C8        1.0  0.33983922920051407  0.9903324311209686  0.0723086259873966  1.0000
  C   C9        1.0  0.34561541741511087  9.348317448139962e-05  0.8839794158021592  1.0000
  C   C10       1.0  0.5054934628400075  0.9988635349467715  0.866170816731973  1.0000
  C   C11       1.0  0.5228886902505253  0.0008379454382633995  0.8267116008752924  1.0000
  C   C12       1.0  0.376993237201269  0.0038749047262669014  0.8022916585606055  1.0000
  C   C13       1.0  0.21660264356648895  0.0056199459484176  0.819579798640433  1.0000
  C   C14       1.0  0.20041655289698204  0.004152512883294401  0.8594763886475009  1.0000
  C   C15       1.0  0.38334375505183255  0.004657633588522001  0.7604873074683098  1.0000
  C   C16       1.0  0.5259721036480299  0.004561858383595998  0.7392938011693388  1.0000
  C   C17       1.0  0.6926436255820291  0.006561031883286698  0.680193516423536  1.0000
  C   C18       1.0  0.5322689971176402  0.0041744792094605  0.6974943904151659  1.0000
  C   C19       1.0  0.38634923620416106  0.0014832666762387998  0.6730827655326408  1.0000
  C   C20       1.0  0.4037197043980214  0.0004362461168839  0.6336332323471225  1.0000
  C   C21       1.0  0.5635681785680191  0.0024664901851708  0.6158219355208914  1.0000
  C   C22       1.0  0.708798505562818  0.006328856277200097  0.6402955722710786  1.0000
  C   C23       1.0  0.3375447874923693  0.9922301836151277  0.1152306588721075  1.0000
  C   C24       1.0  0.4982045916077168  0.993896392259849  0.13426790474213132  1.0000
  C   C25       1.0  0.5173265645733666  0.9962297943890166  0.1738139652237649  1.0000
  C   C26       1.0  0.37246840195818726  0.9969694896430426  0.1971237785602611  1.0000
  C   C27       1.0  0.2111521273553905  0.9957028000016449  0.17862120760323563  1.0000
  C   C28       1.0  0.1930290192037987  0.9934076384298791  0.1385974497597573  1.0000
  C   C29       1.0  0.3813116090904103  0.9982566823979866  0.2389673645546324  1.0000
  C   C30       1.0  0.5256111625488913  0.9991297927241973  0.2610269983520865  1.0000
  C   C31       1.0  0.6965276162599282  0.9977971897853947  0.3212365243853342  1.0000
  C   C32       1.0  0.5349443067883327  0.9986186386122424  0.3028675869511375  1.0000
  C   C33       1.0  0.39040828618004747  0.9982800754470206  0.3262903025317456  1.0000
  C   C34       1.0  0.41014568597737616  0.996828883221788  0.365832508932904  1.0000
  C   C35       1.0  0.5711860940105212  0.9955979398915814  0.3847431267586288  1.0000
  C   C36       1.0  0.715269022657523  0.9961448147316433  0.36126302738086485  1.0000
  C   C37       1.0  0.5566362507874557  0.38903589282929113  0.5014321278666145  1.0000
  C   C38       1.0  0.2598774966402503  0.6108575639991116  0.49682797485409225  1.0000
  C   C39       1.0  0.4212810425539714  0.31702912591557453  0.4982226673333018  1.0000
  C   C40       1.0  0.3959509761314379  0.6808843568979412  0.4998593801711451  1.0000
  C   C41       1.0  0.31913135637419293  0.504103780977907  0.4974684361504345  1.0000
  C   C42       1.0  0.4986254265094558  0.496154129099459  0.5010209746328159  1.0000
  C   C43       1.0  0.3536527692577209  0.384664163282288  0.9983935301527681  1.0000
  C   C44       1.0  0.6501322354868081  0.6069690846293128  0.0031542278199268004  1.0000
  C   C45       1.0  0.4890990015641776  0.3127924259297075  0.0014604196568228998  1.0000
  C   C46       1.0  0.5138358442075415  0.6767709352322412  0.0002996075779221996  1.0000
  C   C47       1.0  0.5910406175834381  0.5001079373136007  0.0023815196166267994  1.0000
  C   C48       1.0  0.41151665143934923  0.4918893590953601  0.9988880196615569  1.0000
  S   S1        1.0  0.2255044862896725  0.37981324097212626  0.4947521918017515  1.0000
  S   S2        1.0  0.5946241138854163  0.6192827175287617  0.5035411139231201  1.0000
  S   S3        1.0  0.6847736051344953  0.375874012034437  0.0049376314297902  1.0000
  S   S4        1.0  0.315274941131392  0.6148896854761715  0.9966443929183981  1.0000
  S   S5        1.0  0.7774419758643204  0.3613899127035439  0.5039034070888349  1.0000
  S   S6        1.0  0.13268905189975297  0.35714239670255676  0.9961003204699993  1.0000
  Br  Br1       1.0  0.9723813343603707  0.010165003274870799  0.8770943010730292  1.0000
  Br  Br2       1.0  0.9367449838497849  0.0135735741012866  0.6226549329953883  1.0000
  Br  Br3       1.0  0.9644424099020625  0.9925558532574356  0.11915973068230559  1.0000
  Br  Br4       1.0  0.9441289470143771  0.9950386488421116  0.38051883118880886  1.0000
  O   O1        1.0  0.5453950722778345  0.8417038205545778  0.5017674892484791  1.0000
  O   O2        1.0  0.2558719613635603  0.8494808663086031  0.49867020772366294  1.0000
  O   O3        1.0  0.4156280613307927  0.0029929324017600994  0.5558783727976149  1.0000
  O   O4        1.0  0.7039794026057677  0.9945256941450537  0.5554489689599509  1.0000
  O   O5        1.0  0.27754059532563247  0.1524089130177302  0.49705847047474083  1.0000
  O   O6        1.0  0.5676100047605103  0.15329167829440138  0.5000537182420715  1.0000
  O   O7        1.0  0.7123725671793293  0.9903857465784893  0.4467550588732436  1.0000
  O   O8        1.0  0.424601589399785  0.9981141371323616  0.443315870523584  1.0000
  O   O9        1.0  0.3639952596502737  0.8372679915303253  0.9985482101379617  1.0000
  O   O10       1.0  0.6535105591493532  0.8455570358877083  0.0015289878514578993  1.0000
  O   O11       1.0  0.4935556834542609  0.9994783021411209  0.9439731649810738  1.0000
  O   O12       1.0  0.20524478702187565  0.9907611440078127  0.9444061456310209  1.0000
  O   O13       1.0  0.6325889406067378  0.14823845277152256  0.0026104041429491  1.0000
  O   O14       1.0  0.3425619850740773  0.14893360334743733  0.9995686267289868  1.0000
  O   O15       1.0  0.1974219352811986  0.9857815895536178  0.053139571800059605  1.0000
  O   O16       1.0  0.4851980962145888  0.9935129151568135  0.0567621962747609  1.0000
  O   O17       1.0  0.8020496480108362  0.2889450320920944  0.542260181797289  1.0000
  O   O18       1.0  0.8280064651993583  0.29714742676822675  0.4723220776363489  1.0000
  O   O19       1.0  0.8595152862419368  0.46304201499358294  0.511750114443025  1.0000
  O   O20       1.0  0.10665710851174028  0.28597801002498363  0.9577360678962491  1.0000
  O   O21       1.0  0.0825582819838147  0.291926399140344  0.0277243113110899  1.0000
  O   O22       1.0  0.05098112901082169  0.4590852902684546  0.9883748950929884  1.0000
