data_image0
_chemical_formula_structural       Cd2H48C68N4O12
_chemical_formula_sum              "Cd2 H48 C68 N4 O12"
_cell_length_a       8.002094096454718
_cell_length_b       12.178908495123665
_cell_length_c       15.474674149459661
_cell_angle_alpha    108.41808183578374
_cell_angle_beta     101.08041852265201
_cell_angle_gamma    97.51884037636023

_space_group_name_H-M_alt    "P 1"
_space_group_IT_number       1

loop_
  _space_group_symop_operation_xyz
  'x, y, z'

loop_
  _atom_site_type_symbol
  _atom_site_label
  _atom_site_symmetry_multiplicity
  _atom_site_fract_x
  _atom_site_fract_y
  _atom_site_fract_z
  _atom_site_occupancy
  Cd  Cd1       1.0  0.020032961427169503  0.42303946838531203  0.3059527319898194  1.0000
  Cd  Cd2       1.0  0.979967283117823  0.5769621674708604  0.6940493618895545  1.0000
  H   H1        1.0  0.3029332520963237  0.481648339960458  0.4477279279667172  1.0000
  H   H2        1.0  0.697064715972104  0.5183497454586786  0.5522711191214428  1.0000
  H   H3        1.0  0.21730178659435512  0.5909959281709691  0.48944385861412343  1.0000
  H   H4        1.0  0.7826999940565647  0.40900217655823956  0.5105562384401311  1.0000
  H   H5        1.0  0.1584677563771636  0.19037252554350215  0.7373794112789797  1.0000
  H   H6        1.0  0.8415342839801881  0.809626463507307  0.2626209295971548  1.0000
  H   H7        1.0  0.7411618024013792  0.22316277919998137  0.5132836783161565  1.0000
  H   H8        1.0  0.25883418625814875  0.7768326325505303  0.48671062909829743  1.0000
  H   H9        1.0  0.3619062660189556  0.1628411609126417  0.17366724226285157  1.0000
  H   H10       1.0  0.6380950311929183  0.8371595886661827  0.8263328058895921  1.0000
  H   H11       1.0  0.7111764953210126  0.3385973499037861  0.7723222851666733  1.0000
  H   H12       1.0  0.2888182293927599  0.6614024747775461  0.22767361732664432  1.0000
  H   H13       1.0  0.8780067833805136  0.303611546966053  0.08081660913050112  1.0000
  H   H14       1.0  0.12200055446285776  0.6963883613848056  0.9191877426054303  1.0000
  H   H15       1.0  0.5313147325399755  0.37312328403939443  0.6338771095902658  1.0000
  H   H16       1.0  0.46868478270070574  0.6268756887810626  0.3661216705509744  1.0000
  H   H17       1.0  0.13790284032366887  0.1958595823556807  0.07804977125401542  1.0000
  H   H18       1.0  0.8621007098447038  0.8041403016496392  0.9219522393795714  1.0000
  H   H19       1.0  0.6447457149377911  0.2666671338779523  0.2888556039391972  1.0000
  H   H20       1.0  0.35525043241078436  0.7333336033820074  0.7111464872884383  1.0000
  H   H21       1.0  0.6050435570900987  0.20186957794813765  0.9555418099005806  1.0000
  H   H22       1.0  0.39496790424459505  0.7981268029174589  0.04445887790452472  1.0000
  H   H23       1.0  0.575938975016065  0.46864673661219314  0.1732702858325439  1.0000
  H   H24       1.0  0.42404955962127394  0.5313539595098861  0.8267290598947737  1.0000
  H   H25       1.0  0.4025342345614221  0.02531644844346911  0.871304118658614  1.0000
  H   H26       1.0  0.5974636836920272  0.9746816470465947  0.1286975107020325  1.0000
  H   H27       1.0  0.8562200587531452  0.1150336662236384  0.9573902804442868  1.0000
  H   H28       1.0  0.1437824512020854  0.8849671015412927  0.042613130348101394  1.0000
  H   H29       1.0  0.17872676244753197  0.12137034494085705  0.40823554765658787  1.0000
  H   H30       1.0  0.8212784345230519  0.8786304063239214  0.591761031485099  1.0000
  H   H31       1.0  0.49334226313100527  0.9088703378777725  0.6935128281844811  1.0000
  H   H32       1.0  0.506659738477687  0.09113307977223432  0.3064918248423396  1.0000
  H   H33       1.0  0.16964730547493198  0.47701802618262  0.8881101321281905  1.0000
  H   H34       1.0  0.8303419861490442  0.5229764858477071  0.11188648530836784  1.0000
  H   H35       1.0  0.9696931643072163  0.3317254981159437  0.7163015714596739  1.0000
  H   H36       1.0  0.03030833034236488  0.6682761483731458  0.28370194835527235  1.0000
  H   H37       1.0  0.3283698919877908  0.5070737732101593  0.6194812571990411  1.0000
  H   H38       1.0  0.6716334344479694  0.49292963996637734  0.380520948354615  1.0000
  H   H39       1.0  0.9090336597908861  0.217394681477849  0.8186557900153346  1.0000
  H   H40       1.0  0.09096564417092891  0.7826078179960878  0.18134253947785345  1.0000
  H   H41       1.0  0.29026431136225045  0.03305239709462881  0.6536071927596652  1.0000
  H   H42       1.0  0.7097372455560563  0.9669492368057963  0.3463930992146588  1.0000
  H   H43       1.0  0.057388842877948355  0.4350917432531107  0.01499719471574682  1.0000
  H   H44       1.0  0.942596352937031  0.5648974491350033  0.9849970446227587  1.0000
  H   H45       1.0  0.7149209049156156  0.05552379301363431  0.5714924259746751  1.0000
  H   H46       1.0  0.2850821632011249  0.9444743147952938  0.4285071603107866  1.0000
  H   H47       1.0  0.11857906879389192  0.9439361771288406  0.751386317206439  1.0000
  H   H48       1.0  0.8814196410325864  0.056064568808288626  0.24861539805172583  1.0000
  C   C1        1.0  0.9751768591063624  0.2794995132616266  0.4178179461202376  1.0000
  C   C2        1.0  0.024823139573364027  0.7204968147092148  0.5821808829228061  1.0000
  C   C3        1.0  0.36370476185518197  0.2700507673956026  0.6889831718432331  1.0000
  C   C4        1.0  0.6362980451677132  0.7299508771377392  0.3110185460666629  1.0000
  C   C5        1.0  0.200003723028189  0.2578528647716567  0.7091132106803926  1.0000
  C   C6        1.0  0.7999988367420203  0.7421478929223544  0.29088761783950196  1.0000
  C   C7        1.0  0.3108318908423442  0.4518603005723137  0.10281082513887435  1.0000
  C   C8        1.0  0.68916024787346  0.548135099421316  0.8971843690138499  1.0000
  C   C9        1.0  0.8315142487267694  0.16328116418966235  0.5040110954548283  1.0000
  C   C10       1.0  0.16848426504942188  0.8367142637912084  0.495984772694527  1.0000
  C   C11       1.0  0.4850076763191213  0.19505792246481243  0.7096796374961017  1.0000
  C   C12       1.0  0.5149966778760273  0.8049446094698427  0.2903218134668819  1.0000
  C   C13       1.0  0.29097306065359874  0.11854194276812541  0.9827551803644992  1.0000
  C   C14       1.0  0.7090320615945205  0.8814588236030476  0.017245272185924403  1.0000
  C   C15       1.0  0.47311159672941744  0.1902802237778048  0.14890548265234574  1.0000
  C   C16       1.0  0.5268912227472242  0.8097214182377998  0.8510955896894288  1.0000
  C   C17       1.0  0.9739381076897262  0.02884168466106731  0.8472487004482758  1.0000
  C   C18       1.0  0.026063696481259058  0.9711608360786886  0.15275248091605678  1.0000
  C   C19       1.0  0.661248892004707  0.24457919079501525  0.7547645990647495  1.0000
  C   C20       1.0  0.338752714728578  0.7554224330344823  0.24523311063708766  1.0000
  C   C21       1.0  0.45852602316168867  0.17116235655429793  0.0532591024898892  1.0000
  C   C22       1.0  0.5414788269262518  0.8288375280130114  0.9467417518067762  1.0000
  C   C23       1.0  0.7616814589179345  0.26736524233490405  0.09762055249734657  1.0000
  C   C24       1.0  0.2383246163671018  0.7326346579007748  0.9023830188711415  1.0000
  C   C25       1.0  0.40817730372609173  0.35944548663917447  0.6531692745963441  1.0000
  C   C26       1.0  0.5918234989804109  0.6405534892609952  0.3468289947760966  1.0000
  C   C27       1.0  0.13480314838925278  0.14169835386670837  0.006383714696930615  1.0000
  C   C28       1.0  0.8652032239634481  0.8583024231373744  0.9936181637890654  1.0000
  C   C29       1.0  0.5580824121340555  0.4987993163871352  0.04114144514106501  1.0000
  C   C30       1.0  0.4419043654395766  0.5011995979411098  0.9588553414387917  1.0000
  C   C31       1.0  0.6306893568547951  0.24810799357728552  0.213814081463525  1.0000
  C   C32       1.0  0.3693108876901974  0.751893642278887  0.7861880124158489  1.0000
  C   C33       1.0  0.2351436268581112  0.4350152566544952  0.18042218739026342  1.0000
  C   C34       1.0  0.7648472230044521  0.5649845613054156  0.8195758929775749  1.0000
  C   C35       1.0  0.7125144999549776  0.05545209514329492  0.759548729773911  1.0000
  C   C36       1.0  0.28748397368514844  0.944552182482781  0.24045382597244475  1.0000
  C   C37       1.0  0.6092211704495227  0.21005525073445602  0.02823273470524867  1.0000
  C   C38       1.0  0.3907852143569244  0.7899455237518966  0.9717684982126258  1.0000
  C   C39       1.0  0.4883381189825046  0.47183225525179057  0.11125847731398154  1.0000
  C   C40       1.0  0.5116558252245653  0.528169337510754  0.8887390691600245  1.0000
  C   C41       1.0  0.28368443291946477  0.046958514425277514  0.8904485574637845  1.0000
  C   C42       1.0  0.7163165921322378  0.9530413533496831  0.10955189243490089  1.0000
  C   C43       1.0  0.9634451674806997  0.18189688422086192  0.45741713770404147  1.0000
  C   C44       1.0  0.03655384080087036  0.8181003174386635  0.5425805092253171  1.0000
  C   C45       1.0  0.9771163121456897  0.09757187526523134  0.9390465827730097  1.0000
  C   C46       1.0  0.022887757435540813  0.9024297773832829  0.06095591550433707  1.0000
  C   C47       1.0  0.07897395048915  0.10612048985547774  0.4446255080515229  1.0000
  C   C48       1.0  0.9210311717589621  0.893880276515695  0.5553749444989008  1.0000
  C   C49       1.0  0.538589260930138  0.003593016762089001  0.7120156309405203  1.0000
  C   C50       1.0  0.46140613081922077  0.9964094835436232  0.2879868131315533  1.0000
  C   C51       1.0  0.25981004423546494  0.47601114092804414  0.9502729880950795  1.0000
  C   C52       1.0  0.740178491789287  0.5239851341480347  0.0497239821859097  1.0000
  C   C53       1.0  0.09425435624575584  0.33648362526115255  0.6977671854721664  1.0000
  C   C54       1.0  0.9057476951779151  0.6635197823179342  0.3022348852821679  1.0000
  C   C55       1.0  0.2942664260657751  0.4343178340933422  0.643827062102929  1.0000
  C   C56       1.0  0.7057363809571201  0.5656838104399998  0.3561746558069743  1.0000
  C   C57       1.0  0.06710574566840675  0.0093244212365065  0.4766251635770971  1.0000
  C   C58       1.0  0.9328988820743336  0.9906745714560047  0.5233735101933163  1.0000
  C   C59       1.0  0.7741256110821981  0.17642054876119326  0.7811456890212368  1.0000
  C   C60       1.0  0.22587464591654086  0.8235810845772494  0.2188557592900082  1.0000
  C   C61       1.0  0.4259257418093441  0.07371356730202902  0.6893215831499333  1.0000
  C   C62       1.0  0.5740745525506272  0.9262880584832164  0.310677928456947  1.0000
  C   C63       1.0  0.1966916837170487  0.4529266104942877  0.020729652299877374  1.0000
  C   C64       1.0  0.803296839853964  0.5470696670995211  0.9792679635492406  1.0000
  C   C65       1.0  0.8168231487760739  0.07002843928420792  0.5361517012558821  1.0000
  C   C66       1.0  0.18317892894251042  0.9299705422134114  0.4638467029158875  1.0000
  C   C67       1.0  0.1259663251625583  0.001159947118040301  0.8227044027556049  1.0000
  C   C68       1.0  0.8740352193020017  0.9988416893001146  0.1772965347868477  1.0000
  N   N1        1.0  0.7735681627981351  0.2873991511959702  0.1895750254609396  1.0000
  N   N2        1.0  0.22643361646536425  0.7126033745792456  0.8104274470396361  1.0000
  N   N3        1.0  0.1405253334932439  0.42519220695022863  0.6671137084596879  1.0000
  N   N4        1.0  0.8594810499257906  0.5748129885821317  0.332889899904508  1.0000
  O   O1        1.0  0.26408445755770077  0.5487140631774354  0.43471531718364526  1.0000
  O   O2        1.0  0.7359163326950553  0.4512849152404644  0.5652835977569168  1.0000
  O   O3        1.0  0.8172978186263793  0.9804989392636828  0.7790449068057724  1.0000
  O   O4        1.0  0.18270038285357512  0.019504456558522103  0.2209580506868321  1.0000
  O   O5        1.0  0.09367269083610107  0.47495643068026555  0.18703368217551744  1.0000
  O   O6        1.0  0.9063224896343913  0.525049596278933  0.8129683112484969  1.0000
  O   O7        1.0  0.30526865999767255  0.38683855001537665  0.2346174125905094  1.0000
  O   O8        1.0  0.6947226857576753  0.6131586205771883  0.7653800711110108  1.0000
  O   O9        1.0  0.09438558435756052  0.28919659807911563  0.3748257578780354  1.0000
  O   O10       1.0  0.905613683630435  0.7108014879020036  0.6251721328731961  1.0000
  O   O11       1.0  0.8635481261508177  0.34586507269192174  0.424086518359772  1.0000
  O   O12       1.0  0.13645470716699046  0.6541321457599454  0.5759115329675595  1.0000
