data_image0
_chemical_formula_structural       Al6Fe2P8H16C12N8O32
_chemical_formula_sum              "Al6 Fe2 P8 H16 C12 N8 O32"
_cell_length_a       8.651514403306546
_cell_length_b       8.975596885971047
_cell_length_c       13.978901352289697
_cell_angle_alpha    93.01296242539176
_cell_angle_beta     91.92903562419579
_cell_angle_gamma    116.42422171391803

_space_group_name_H-M_alt    "P 1"
_space_group_IT_number       1

loop_
  _space_group_symop_operation_xyz
  'x, y, z'

loop_
  _atom_site_type_symbol
  _atom_site_label
  _atom_site_symmetry_multiplicity
  _atom_site_fract_x
  _atom_site_fract_y
  _atom_site_fract_z
  _atom_site_occupancy
  Al  Al1       1.0  0.13894335129771213  0.4248388770337429  0.4087695685724952  1.0000
  Al  Al2       1.0  0.8610581451905828  0.5751617864659125  0.5912285296219153  1.0000
  Al  Al3       1.0  0.8098645621619627  0.7903383017103  0.24819670694657964  1.0000
  Al  Al4       1.0  0.1901340464879837  0.2096611262940088  0.7518020098639511  1.0000
  Al  Al5       1.0  0.8689072637014732  0.5216637741488912  0.8683305550874179  1.0000
  Al  Al6       1.0  0.1310925007691424  0.4783356523450025  0.1316681858004216  1.0000
  Fe  Fe1       1.0  0.5884380794148925  0.2743605512678898  0.22980531701629298  1.0000
  Fe  Fe2       1.0  0.41156169338184173  0.7256388934651457  0.7701948553499278  1.0000
  P   P1        1.0  0.9072319273557881  0.5969331751895768  0.373881651434111  1.0000
  P   P2        1.0  0.0927724652969673  0.40306874204456034  0.6261172596225677  1.0000
  P   P3        1.0  0.8932093298292187  0.17001844418126674  0.2504036463348243  1.0000
  P   P4        1.0  0.10679044296751541  0.8299810005517688  0.7495965260314037  1.0000
  P   P5        1.0  0.8227126922860679  0.5469613916109001  0.09001183024945192  1.0000
  P   P6        1.0  0.17728417944672262  0.45303430260573674  0.9099874553948695  1.0000
  P   P7        1.0  0.43539824015228845  0.5464979043394538  0.2712281148408593  1.0000
  P   P8        1.0  0.5646026801389894  0.45350152064402505  0.7287706501242752  1.0000
  H   H1        1.0  0.29901359461310056  0.7856821732732515  0.9897916871647965  1.0000
  H   H2        1.0  0.7009890728752525  0.2143135498695871  0.0102105818228253  1.0000
  H   H3        1.0  0.3954820984890901  0.19691143299024114  0.562813696423774  1.0000
  H   H4        1.0  0.6045159437628058  0.8030917500617181  0.43718583487675744  1.0000
  H   H5        1.0  0.27147634841016816  0.2242161711216682  0.0920394353482905  1.0000
  H   H6        1.0  0.7285222595033574  0.7757807692202977  0.9079599233417994  1.0000
  H   H7        1.0  0.13323585876867858  0.9543794586127352  0.9555820201051047  1.0000
  H   H8        1.0  0.8667633238690156  0.04561374492072191  0.04441795557338679  1.0000
  H   H9        1.0  0.5018178131258112  0.9055691869497413  0.1419985800172228  1.0000
  H   H10       1.0  0.49818487322403365  0.09443403565840212  0.8580046262884977  1.0000
  H   H11       1.0  0.575029876109312  0.3950990550399285  0.44293048391894263  1.0000
  H   H12       1.0  0.4249704819469642  0.6049041341107684  0.5570698112753831  1.0000
  H   H13       1.0  0.2241687697444804  0.8971342307205181  0.4866992532934447  1.0000
  H   H14       1.0  0.775828697046812  0.10287020147760734  0.5133003028982444  1.0000
  H   H15       1.0  0.3106008940837199  0.9157340563571738  0.2968792330390642  1.0000
  H   H16       1.0  0.6893971564942873  0.08426914493392701  0.7031217297398483  1.0000
  C   C1        1.0  0.2960189239025297  0.11664460877071292  0.08308493732872081  1.0000
  C   C2        1.0  0.703977375796299  0.8833498560493142  0.9169157308255222  1.0000
  C   C3        1.0  0.22833842814317518  0.9845532298548039  0.014938215526044012  1.0000
  C   C4        1.0  0.7716619284402668  0.015444983971207204  0.9850633634274074  1.0000
  C   C5        1.0  0.4199555082222518  0.9554980557197513  0.11150150651926792  1.0000
  C   C6        1.0  0.5800460215705101  0.04450268073647121  0.8885023175887099  1.0000
  C   C7        1.0  0.49312378402345997  0.2632858566452044  0.4276437936648847  1.0000
  C   C8        1.0  0.5068759895096946  0.7367160757501738  0.5723557368217769  1.0000
  C   C9        1.0  0.30965856531080505  0.001434029522265201  0.4485757927525356  1.0000
  C   C10       1.0  0.6903377449234114  0.9985679165239321  0.5514243812414179  1.0000
  C   C11       1.0  0.35414676389574135  0.012363884304768603  0.3549602099980688  1.0000
  C   C12       1.0  0.645851274193099  0.9876392896276232  0.6450386055632576  1.0000
  N   N1        1.0  0.4156506544964103  0.09726021800790363  0.1428284051187561  1.0000
  N   N2        1.0  0.5843473946087626  0.9027380079585118  0.8571738414192893  1.0000
  N   N3        1.0  0.30765853812701494  0.8849837509837146  0.03420376291732911  1.0000
  N   N4        1.0  0.6923441342608214  0.11501446894103405  0.965798579929931  1.0000
  N   N5        1.0  0.46872833836165034  0.17656900986486332  0.3429234480621872  1.0000
  N   N6        1.0  0.5312691276932283  0.8234329346709189  0.6570767500090611  1.0000
  N   N7        1.0  0.39840734903057046  0.1603529591729683  0.49256645338839894  1.0000
  N   N8        1.0  0.6015889612036391  0.8396489868732294  0.5074337206055475  1.0000
  O   O1        1.0  0.7041185573229284  0.13744850516594206  0.23811529285141828  1.0000
  O   O2        1.0  0.295881816649171  0.8625522328006953  0.7618885071792576  1.0000
  O   O3        1.0  0.46198607158152777  0.40619885594681193  0.2210727259181837  1.0000
  O   O4        1.0  0.5380165932166108  0.5938018334011377  0.7789275435711146  1.0000
  O   O5        1.0  0.7010852991570005  0.366746484921592  0.11095392515323971  1.0000
  O   O6        1.0  0.2989162049209924  0.6332517091548626  0.8890462463991256  1.0000
  O   O7        1.0  0.9755057203238664  0.23881275681508649  0.3533355371293894  1.0000
  O   O8        1.0  0.02449577542800807  0.7611854190222261  0.6466632029445805  1.0000
  O   O9        1.0  0.07904478506750932  0.5861678315648435  0.3956941430370691  1.0000
  O   O10       1.0  0.9209590188990616  0.41383281979440784  0.6043032875727548  1.0000
  O   O11       1.0  0.8298437878677802  0.6064356070552679  0.47156557075923894  1.0000
  O   O12       1.0  0.1701640862089917  0.3935713083310192  0.5284342759878129  1.0000
  O   O13       1.0  0.9544956975662802  0.7650415923138785  0.3291564057648841  1.0000
  O   O14       1.0  0.04550637095596954  0.2349603005823796  0.6708403099196047  1.0000
  O   O15       1.0  0.7778527276709613  0.6802406487633167  0.1369180000625505  1.0000
  O   O16       1.0  0.22214529229279378  0.319757513366099  0.8630792363011252  1.0000
  O   O17       1.0  0.8094707588342163  0.561024495582622  0.9808899117710723  1.0000
  O   O18       1.0  0.19052842527632663  0.4389736832755205  0.0191087801482936  1.0000
  O   O19       1.0  0.013053422973840321  0.5926168835587905  0.12260038823369258  1.0000
  O   O20       1.0  0.9869480818405663  0.407383798180007  0.8773991414391061  1.0000
  O   O21       1.0  0.6051261447702672  0.709692521111052  0.2990968873669644  1.0000
  O   O22       1.0  0.3948747804204942  0.290309400654337  0.7009019514578085  1.0000
  O   O23       1.0  0.3461903221770797  0.4940700391217592  0.3665089443702668  1.0000
  O   O24       1.0  0.6538117580979234  0.5059293934708721  0.6334905604113671  1.0000
  O   O25       1.0  0.32049073102535897  0.5951631399780485  0.20479005207082676  1.0000
  O   O26       1.0  0.679507881787643  0.40483629714583463  0.7952093804788944  1.0000
  O   O27       1.0  0.7816671134366402  0.45269443626786915  0.30780151483401136  1.0000
  O   O28       1.0  0.2183355513614985  0.5473062530800805  0.6921987546552941  1.0000
  O   O29       1.0  0.8948177715270517  0.0006085889383414001  0.2299167415346659  1.0000
  O   O30       1.0  0.10518083712289461  0.9993908390659675  0.7700819752758647  1.0000
  O   O31       1.0  0.009017795376728087  0.28656878519968393  0.1777137284936927  1.0000
  O   O32       1.0  0.9909785008954659  0.7134281581631188  0.8222855820417934  1.0000
