data_image0
_chemical_formula_structural       Al2H30C48O18
_chemical_formula_sum              "Al2 H30 C48 O18"
_cell_length_a       3.9792718392846282
_cell_length_b       28.5134953763077
_cell_length_c       28.51342442103077
_cell_angle_alpha    119.99996533952223
_cell_angle_beta     90.00015701688486
_cell_angle_gamma    90.0011001437405

_space_group_name_H-M_alt    "P 1"
_space_group_IT_number       1

loop_
  _space_group_symop_operation_xyz
  'x, y, z'

loop_
  _atom_site_type_symbol
  _atom_site_label
  _atom_site_symmetry_multiplicity
  _atom_site_fract_x
  _atom_site_fract_y
  _atom_site_fract_z
  _atom_site_occupancy
  Al  Al1       1.0  0.9770345094363504  0.5000006014988402  0.49999907385971903  1.0000
  Al  Al2       1.0  0.9770723651746562  0.16666601109158546  0.8333311147348397  1.0000
  H   H1        1.0  0.18700343088362809  0.1878988486629112  0.7004457986284508  1.0000
  H   H2        1.0  0.18637351131579993  0.24267813537247918  0.6548001871754181  1.0000
  H   H3        1.0  0.7498055522005341  0.3674492916758112  0.7889995724383071  1.0000
  H   H4        1.0  0.7497256933678854  0.299219094123913  0.5443351622019108  1.0000
  H   H5        1.0  0.18635861591091896  0.4239907520439772  0.6785354944157049  1.0000
  H   H6        1.0  0.18695756415495876  0.4787670329330496  0.6328872811770978  1.0000
  H   H7        1.0  0.4883614205916229  0.3864496144219132  0.7213363260468881  1.0000
  H   H8        1.0  0.48831788529762576  0.2802202260110748  0.6120002577814105  1.0000
  H   H9        1.0  0.18699234928160982  0.012547427418461047  0.812099629587216  1.0000
  H   H10       1.0  0.18637296948762122  0.9121220752660051  0.7573210780704756  1.0000
  H   H11       1.0  0.7497820761620202  0.9215490646324015  0.6325500209777246  1.0000
  H   H12       1.0  0.7497428745223045  0.7451194473952613  0.7007822802189949  1.0000
  H   H13       1.0  0.18634281052943888  0.7545439844423286  0.5760088111765498  1.0000
  H   H14       1.0  0.18697367182873129  0.654119224400361  0.5212305757335828  1.0000
  H   H15       1.0  0.48835371168546243  0.8348856379482966  0.6135497881053026  1.0000
  H   H16       1.0  0.4883167860409045  0.8317809155702989  0.7197821640351094  1.0000
  H   H17       1.0  0.18702134385120667  0.2995536979819278  0.9874492155678924  1.0000
  H   H18       1.0  0.1864004729674277  0.3452003206311717  0.08787485315159668  1.0000
  H   H19       1.0  0.7497881593806991  0.21100332970060257  0.07845126385571888  1.0000
  H   H20       1.0  0.7497287956204061  0.45566869062485443  0.2548820766869185  1.0000
  H   H21       1.0  0.18633495437637035  0.3214663477658278  0.2454519609048376  1.0000
  H   H22       1.0  0.18695724227660548  0.3671121187468956  0.34587691491417166  1.0000
  H   H23       1.0  0.48833625496649785  0.2786680497143906  0.16511492622554869  1.0000
  H   H24       1.0  0.48834132530020463  0.3880033752566519  0.16821740357015363  1.0000
  H   H25       1.0  0.8240200999945555  0.28615236687277695  0.849019417667833  1.0000
  H   H26       1.0  0.8239478502967896  0.3805128500668218  0.4843112261598322  1.0000
  H   H27       1.0  0.8240009065361701  0.06286708957793506  0.7138449207934771  1.0000
  H   H28       1.0  0.8239720701511074  0.6038027951249987  0.6194887709325344  1.0000
  H   H29       1.0  0.8240115765823218  0.15098109689240152  0.9371334921926363  1.0000
  H   H30       1.0  0.823953861216566  0.515691459792926  0.3961996317880221  1.0000
  C   C1        1.0  0.4730645048377367  0.46163190390482356  0.4159811664613997  1.0000
  C   C2        1.0  0.47306262267274934  0.45435177918412256  0.5383678931946818  1.0000
  C   C3        1.0  0.4730867277198667  0.5840191011490319  0.5456474477915734  1.0000
  C   C4        1.0  0.47311612793654223  0.21231600713689872  0.7949650396655201  1.0000
  C   C5        1.0  0.47309956203547177  0.08265021107663977  0.7876825563305444  1.0000
  C   C6        1.0  0.47311675854680135  0.20503272602123712  0.917348609996701  1.0000
  C   C7        1.0  0.4832983753778066  0.24473560537177974  0.7682934851269962  1.0000
  C   C8        1.0  0.3173542439041767  0.2266532974520458  0.7184529320298623  1.0000
  C   C9        1.0  0.3189669566198744  0.257059651585081  0.6930111141237489  1.0000
  C   C10       1.0  0.4720590793131976  0.3088235576111984  0.7185100306248843  1.0000
  C   C11       1.0  0.6275315214040659  0.32794180716057036  0.7687981175818237  1.0000
  C   C12       1.0  0.6481212321972406  0.29580207616213267  0.7930253020188971  1.0000
  C   C13       1.0  0.4713123107796377  0.3427304605118239  0.6936169629078323  1.0000
  C   C14       1.0  0.4712979479738521  0.32393981367791735  0.6397204853542251  1.0000
  C   C15       1.0  0.6274725746169381  0.33872620477192333  0.5645376426163224  1.0000
  C   C16       1.0  0.4720212974663765  0.3578441559040399  0.6148264757179831  1.0000
  C   C17       1.0  0.318929261606385  0.4096094466992071  0.640323768304043  1.0000
  C   C18       1.0  0.3173102271409505  0.4400140410936899  0.614880193095189  1.0000
  C   C19       1.0  0.48323837124380714  0.42193292132126453  0.5650401727439842  1.0000
  C   C20       1.0  0.6480637648551448  0.3708654216469895  0.5403082931103356  1.0000
  C   C21       1.0  0.4832804590839784  0.023556510054596917  0.7552631313380119  1.0000
  C   C22       1.0  0.31734479530580006  0.9917997241372093  0.7733443906315145  1.0000
  C   C23       1.0  0.31895401525287775  0.9359516312703422  0.7429407001582433  1.0000
  C   C24       1.0  0.47205008263818354  0.9096854645086198  0.691173992551633  1.0000
  C   C25       1.0  0.6275176883558087  0.9408549452705444  0.6720574113941922  1.0000
  C   C26       1.0  0.6481135879394984  0.9972225604765015  0.704196724914965  1.0000
  C   C27       1.0  0.4713018508713559  0.8508830019433444  0.6572736781315951  1.0000
  C   C28       1.0  0.47128452157163275  0.8157837828202191  0.6760593409090561  1.0000
  C   C29       1.0  0.6274851389539222  0.7258151092193402  0.6612754018859023  1.0000
  C   C30       1.0  0.47202651214808344  0.756980932676491  0.6421566129492078  1.0000
  C   C31       1.0  0.3189308817757988  0.7307139776117993  0.5903897530626949  1.0000
  C   C32       1.0  0.31732343280816616  0.6748659871002689  0.5599845475033477  1.0000
  C   C33       1.0  0.48325880033385715  0.6431093194641804  0.5780662094834028  1.0000
  C   C34       1.0  0.6480877313561135  0.6694439029609641  0.6291348960211138  1.0000
  C   C35       1.0  0.4832968905253026  0.23170648227929994  0.9764400298841167  1.0000
  C   C36       1.0  0.31735899561403597  0.2815477082218933  0.008199102748207605  1.0000
  C   C37       1.0  0.3189696054605235  0.3069905625896255  0.06404491318215831  1.0000
  C   C38       1.0  0.47206644877066833  0.2814906793425465  0.09031345345545816  1.0000
  C   C39       1.0  0.6275182626192546  0.2312062963311732  0.05914494301469377  1.0000
  C   C40       1.0  0.6481203383272315  0.20697581862334863  0.0027770198279668816  1.0000
  C   C41       1.0  0.4712997294417818  0.3063948396926861  0.14911786780243827  1.0000
  C   C42       1.0  0.4712912124761173  0.3602763175792917  0.184214624983305  1.0000
  C   C43       1.0  0.6274690298142075  0.4354657153695953  0.2741869535602888  1.0000
  C   C44       1.0  0.4720172284404  0.38517887545811647  0.24301784069709945  1.0000
  C   C45       1.0  0.31891986090240454  0.3596777195003185  0.2692825045459699  1.0000
  C   C46       1.0  0.31730626290472935  0.3851220102622221  0.3251317786456767  1.0000
  C   C47       1.0  0.48323482986762656  0.43495984616428274  0.3568902148358433  1.0000
  C   C48       1.0  0.648057907240961  0.4596954619540696  0.3305557344080298  1.0000
  O   O1        1.0  0.7043659583573639  0.5571099289181731  0.5545476889991221  1.0000
  O   O2        1.0  0.7043507488738924  0.49744039011019947  0.4428903825809272  1.0000
  O   O3        1.0  0.7043401704644623  0.44545228134798254  0.5025593482896156  1.0000
  O   O4        1.0  0.23864242021875268  0.5609240022604354  0.5109108944353338  1.0000
  O   O5        1.0  0.23862274068413564  0.4890869917988213  0.5500092739111082  1.0000
  O   O6        1.0  0.23861901151089873  0.4499907012738263  0.4390745660366022  1.0000
  O   O7        1.0  0.704374938487369  0.16922606840073937  0.8904424932906281  1.0000
  O   O8        1.0  0.7043830039743779  0.22121574276690142  0.8307726633869807  1.0000
  O   O9        1.0  0.7043622420498109  0.10955735406562175  0.7787815567051979  1.0000
  O   O10       1.0  0.23866239400933856  0.21667515033427534  0.8942539511742496  1.0000
  O   O11       1.0  0.2386490373061178  0.10574085148845568  0.8224158149725938  1.0000
  O   O12       1.0  0.23865363888313598  0.17757974916850838  0.783322562467639  1.0000
  O   O13       1.0  0.8177671495375376  0.31574518058754114  0.8401703655688665  1.0000
  O   O14       1.0  0.8176809222934975  0.3509202943184562  0.4931641903784297  1.0000
  O   O15       1.0  0.8177480888569162  0.02442278332240733  0.6842519243035099  1.0000
  O   O16       1.0  0.8177024962762328  0.6422469291939734  0.649081199718026  1.0000
  O   O17       1.0  0.817747579126873  0.15983344289083587  0.9755788382080155  1.0000
  O   O18       1.0  0.8176703370690459  0.506841248309314  0.3577556198250988  1.0000
