data_image0
_chemical_formula_structural       Zn2H24C36N12O8
_chemical_formula_sum              "Zn2 H24 C36 N12 O8"
_cell_length_a       8.035037713551414
_cell_length_b       11.74261770991341
_cell_length_c       11.82122103074628
_cell_angle_alpha    114.14300537742444
_cell_angle_beta     102.20144964483566
_cell_angle_gamma    104.98528077757359

_space_group_name_H-M_alt    "P 1"
_space_group_IT_number       1

loop_
  _space_group_symop_operation_xyz
  'x, y, z'

loop_
  _atom_site_type_symbol
  _atom_site_label
  _atom_site_symmetry_multiplicity
  _atom_site_fract_x
  _atom_site_fract_y
  _atom_site_fract_z
  _atom_site_occupancy
  Zn  Zn1       1.0  0.7206195384004629  0.0274275221295568  0.2311229814262319  1.0000
  Zn  Zn2       1.0  0.9893918630503152  0.7963913863961024  0.7690838306190171  1.0000
  H   H1        1.0  0.8927110540505652  0.38628600293738197  0.22795465346845833  1.0000
  H   H2        1.0  0.16448252727091978  0.15833040379888527  0.7719579454045229  1.0000
  H   H3        1.0  0.951040923189801  0.5904374463327855  0.19789064596989192  1.0000
  H   H4        1.0  0.2526337975675829  0.3925645896627613  0.802051300726667  1.0000
  H   H5        1.0  0.6922923284943395  0.32838872080441206  0.7733474527913342  1.0000
  H   H6        1.0  0.4185320453621415  0.5551948815837306  0.22657088232572412  1.0000
  H   H7        1.0  0.6430720352677708  0.12722773712026478  0.8051051486151833  1.0000
  H   H8        1.0  0.337963521140523  0.3222721353139093  0.19478900760730505  1.0000
  H   H9        1.0  0.9251050184006857  0.8918068246588856  0.05756832330632705  1.0000
  H   H10       1.0  0.3674887168414144  0.834509257162203  0.9426642059691585  1.0000
  H   H11       1.0  0.8966812742651626  0.5158241819732652  0.7760752700577881  1.0000
  H   H12       1.0  0.6206380116036528  0.7396946131158729  0.2237334180125003  1.0000
  H   H13       1.0  0.9656214671129392  0.34175399308319493  0.3899726759133556  1.0000
  H   H14       1.0  0.07564079968063442  0.9514386361455036  0.6099444020537771  1.0000
  H   H15       1.0  0.1558333469418542  0.20676915358881592  0.3255336329153877  1.0000
  H   H16       1.0  0.33004168043483156  0.880660905518205  0.6741822065948495  1.0000
  H   H17       1.0  0.6302307682893299  0.5279270495837168  0.6634485496900169  1.0000
  H   H18       1.0  0.46695533126491284  0.8643194916581647  0.3365620990820089  1.0000
  H   H19       1.0  0.4367285210967752  0.6625271322080052  0.7296991076775328  1.0000
  H   H20       1.0  0.2072684223427715  0.9327178499410493  0.27037896899055613  1.0000
  H   H21       1.0  0.808764168858417  0.17201631212000726  0.5520078327984732  1.0000
  H   H22       1.0  0.7570305985597302  0.6198486787827518  0.4481177268873536  1.0000
  H   H23       1.0  0.4215375934447181  0.17167673988153348  0.24878947245665017  1.0000
  H   H24       1.0  0.6728744746972666  0.9229482826673417  0.7511188853706797  1.0000
  C   C1        1.0  0.7673656790696982  0.24381738465003622  0.018477032143380354  1.0000
  C   C2        1.0  0.248806516990598  0.22544987161916194  0.981446256561341  1.0000
  C   C3        1.0  0.851226893685265  0.3746809852897073  0.1288584784974773  1.0000
  C   C4        1.0  0.22209792620225238  0.24585593681996434  0.8710508790181135  1.0000
  C   C5        1.0  0.8831825954724621  0.48844823016192856  0.11290533773246385  1.0000
  C   C6        1.0  0.2698845558777164  0.37558142474506434  0.8870129450609239  1.0000
  C   C7        1.0  0.8277571680637907  0.46997467242276514  0.984294515962091  1.0000
  C   C8        1.0  0.3430721520917146  0.4857540418631672  0.01563418583461379  1.0000
  C   C9        1.0  0.740564883526254  0.34090761596715413  0.8727897453105128  1.0000
  C   C10       1.0  0.3674269729370465  0.4682506793736464  0.1271406617089069  1.0000
  C   C11       1.0  0.7125268352672831  0.22855605247540461  0.890894786705118  1.0000
  C   C12       1.0  0.3215079238639119  0.3378095935727287  0.10902877494452666  1.0000
  C   C13       1.0  0.7335684989800343  0.1212129343966168  0.036897952514834756  1.0000
  C   C14       1.0  0.1965948988359614  0.0844565741755119  0.9631247184759174  1.0000
  C   C15       1.0  0.906650788133348  0.786257527619142  0.008194737241431877  1.0000
  C   C16       1.0  0.3983824692818558  0.7782912591142191  0.9919663224063837  1.0000
  C   C17       1.0  0.8935633204918358  0.5962604300165492  0.8628409378562977  1.0000
  C   C18       1.0  0.5306560349851922  0.733461443994372  0.13708711073972063  1.0000
  C   C19       1.0  0.18874713863597492  0.5097714303652977  0.564734121329117  1.0000
  C   C20       1.0  0.12413438766767369  0.9448776898916406  0.4352840159259726  1.0000
  C   C21       1.0  0.11165762711281252  0.3830050012410026  0.44947957730192195  1.0000
  C   C22       1.0  0.1621925605962036  0.9332282216146839  0.5504423505421628  1.0000
  C   C23       1.0  0.2180372541451945  0.3075290938390011  0.41230455778460134  1.0000
  C   C24       1.0  0.3056217639194472  0.8947858249133345  0.5875130390731227  1.0000
  C   C25       1.0  0.402929074128231  0.3600718202511928  0.4936031905822133  1.0000
  C   C26       1.0  0.40936644661118027  0.866179963349772  0.5062952103835909  1.0000
  C   C27       1.0  0.48401591563924734  0.48818434317304593  0.6064186182522204  1.0000
  C   C28       1.0  0.37769582264772356  0.8815389843835321  0.3935470049615262  1.0000
  C   C29       1.0  0.3767398808502235  0.5629143857397948  0.641542910844258  1.0000
  C   C30       1.0  0.23533884865296542  0.9211933040179616  0.3584746532889368  1.0000
  C   C31       1.0  0.0679160100641596  0.5840775275674871  0.6080256142613365  1.0000
  C   C32       1.0  0.9601449900529034  0.9760907465997662  0.39219661168699815  1.0000
  C   C33       1.0  0.7070584456283912  0.19850725768581157  0.5031249417340504  1.0000
  C   C34       1.0  0.7041332047001206  0.6952293290947082  0.4969133278722068  1.0000
  C   C35       1.0  0.5107043613903741  0.1954097231212444  0.3460527319107669  1.0000
  C   C36       1.0  0.6647663173894997  0.8493200254748032  0.6538886327891973  1.0000
  N   N1        1.0  0.8617485460389106  0.5851606617334895  0.9659003500121272  1.0000
  N   N2        1.0  0.395512728185544  0.6193667489709824  0.03409169422355514  1.0000
  N   N3        1.0  0.8704033721337083  0.7059331253549457  0.05987957225523377  1.0000
  N   N4        1.0  0.31018079305641066  0.6462895472017106  0.9402633304941899  1.0000
  N   N5        1.0  0.9213321575171348  0.7225608837383533  0.8866383387364108  1.0000
  N   N6        1.0  0.5347877768879457  0.8360444929020545  0.1134119460087816  1.0000
  N   N7        1.0  0.5113860600234902  0.2809459625512715  0.46467082683620475  1.0000
  N   N8        1.0  0.5468042007831857  0.8160570139935218  0.5352448733638582  1.0000
  N   N9        1.0  0.636423512061164  0.2841539374649145  0.5655812945240299  1.0000
  N   N10       1.0  0.5710011607622149  0.7183079629908915  0.434384577245538  1.0000
  N   N11       1.0  0.6339849973140373  0.1418234342705986  0.3680219396081482  1.0000
  N   N12       1.0  0.7661766668137203  0.7738321053654359  0.6320028828813233  1.0000
  O   O1        1.0  0.7703886180297204  0.1500925085984903  0.15999853070610462  1.0000
  O   O2        1.0  0.11078781549650063  0.9900929964549757  0.8400302238757856  1.0000
  O   O3        1.0  0.6744456938824542  0.004764353717533301  0.9394498319557982  1.0000
  O   O4        1.0  0.2344474380366321  0.06557829643886488  0.06065757187776909  1.0000
  O   O5        1.0  0.15393088164239546  0.7091958470752786  0.7031028681344436  1.0000
  O   O6        1.0  0.9509970961373995  0.006103933835852598  0.297111371379458  1.0000
  O   O7        1.0  0.8957647684864013  0.524629984501935  0.5554285394428788  1.0000
  O   O8        1.0  0.8407815570360527  0.9694700528365414  0.4449785655779833  1.0000
