data_image0
_chemical_formula_structural       Cu2H44C38S4Br2O4
_chemical_formula_sum              "Cu2 H44 C38 S4 Br2 O4"
_cell_length_a       8.947562466876942
_cell_length_b       11.167806135304991
_cell_length_c       11.010031757672115
_cell_angle_alpha    104.44731233913745
_cell_angle_beta     96.87514222906331
_cell_angle_gamma    95.02359423585636

_space_group_name_H-M_alt    "P 1"
_space_group_IT_number       1

loop_
  _space_group_symop_operation_xyz
  'x, y, z'

loop_
  _atom_site_type_symbol
  _atom_site_label
  _atom_site_symmetry_multiplicity
  _atom_site_fract_x
  _atom_site_fract_y
  _atom_site_fract_z
  _atom_site_occupancy
  Cu  Cu1       1.0  0.37837412060417813  0.9690217985326939  0.058146272992473734  1.0000
  Cu  Cu2       1.0  0.6216001987810174  0.03096969629545041  0.9418723498661592  1.0000
  H   H1        1.0  0.1166733114487144  0.6478777837088571  0.3684259899572453  1.0000
  H   H2        1.0  0.8833388565832153  0.35212074968297463  0.6315670001754156  1.0000
  H   H3        1.0  0.23368351628132444  0.5594588679917152  0.2685321816300855  1.0000
  H   H4        1.0  0.7663171238799364  0.4405368489951941  0.731454213487197  1.0000
  H   H5        1.0  0.3019543118652948  0.5905310634984886  0.5063935412026268  1.0000
  H   H6        1.0  0.6980554189859446  0.40946561997226644  0.49359596369537684  1.0000
  H   H7        1.0  0.1295715835090263  0.4938367645553825  0.5024333505600183  1.0000
  H   H8        1.0  0.8704382522581325  0.5061608417102549  0.4975573145123563  1.0000
  H   H9        1.0  0.29888218638388514  0.48900102905884796  0.6599023214192243  1.0000
  H   H10       1.0  0.7011227271805467  0.5109937474320958  0.34008795323281765  1.0000
  H   H11       1.0  0.4245580401115632  0.39673074424977994  0.8174119865590015  1.0000
  H   H12       1.0  0.5754420267623387  0.603270476583077  0.1825839487550525  1.0000
  H   H13       1.0  0.567742288389276  0.2146722628078024  0.7506595006572354  1.0000
  H   H14       1.0  0.43226197550916373  0.7853279911653747  0.24934302412889056  1.0000
  H   H15       1.0  0.5787295817199548  0.12669084292213023  0.5213377460981263  1.0000
  H   H16       1.0  0.4212780583133551  0.8733085430866082  0.47866039762411117  1.0000
  H   H17       1.0  0.5716484091420782  0.19237409014566956  0.30501976829702937  1.0000
  H   H18       1.0  0.42834515258596884  0.8076056406647824  0.694974383394495  1.0000
  H   H19       1.0  0.4036093177979865  0.2529960973737601  0.2588701446271386  1.0000
  H   H20       1.0  0.5963914729380092  0.7469873815496725  0.7411276258574304  1.0000
  H   H21       1.0  0.1145967267619099  0.959088266460995  0.25648658326993257  1.0000
  H   H22       1.0  0.8853870542403683  0.0409201592456157  0.7435248014498798  1.0000
  H   H23       1.0  0.16166032554714596  0.09633365388160799  0.38333616424095146  1.0000
  H   H24       1.0  0.8383222781318338  0.9036747476895786  0.6166768963169886  1.0000
  H   H25       1.0  0.1488872354389059  0.11801322044861712  0.11141184466718103  1.0000
  H   H26       1.0  0.8511198853038664  0.8819925746251441  0.8885988060510713  1.0000
  H   H27       1.0  0.11035609336249758  0.22977689062083329  0.24449997633306006  1.0000
  H   H28       1.0  0.8896411474156379  0.7702298209387596  0.7555052376042897  1.0000
  H   H29       1.0  0.8612486535586752  0.091412057973649  0.23760781486957683  1.0000
  H   H30       1.0  0.13874557146239402  0.9085872844714019  0.762385146162039  1.0000
  H   H31       1.0  0.9081883878120466  0.9825799452070997  0.10690886247009257  1.0000
  H   H32       1.0  0.0918178835037864  0.01742505233075781  0.893086947600537  1.0000
  H   H33       1.0  0.6476024295963896  0.27052248520895006  0.1513708666192315  1.0000
  H   H34       1.0  0.3524000489986463  0.7294805767570766  0.8486294572419126  1.0000
  H   H35       1.0  0.8304742464310806  0.3008469108502752  0.2495064823541711  1.0000
  H   H36       1.0  0.1695336982503335  0.6991618283662433  0.7504895826384937  1.0000
  H   H37       1.0  0.6028606973969274  0.3702833963090484  0.9758774061178529  1.0000
  H   H38       1.0  0.3971395762310692  0.629718782470313  0.024116076120833364  1.0000
  H   H39       1.0  0.651594072007832  0.5662184987516312  0.9070930837124963  1.0000
  H   H40       1.0  0.34840420956267343  0.43378553007408266  0.09290065067657585  1.0000
  H   H41       1.0  0.8826021529781441  0.7148543553107984  0.009413832167965059  1.0000
  H   H42       1.0  0.1173991166785981  0.2851468984453902  0.9905795239955282  1.0000
  H   H43       1.0  0.05958942119636393  0.6725321614327058  0.17753827806658512  1.0000
  H   H44       1.0  0.9404086250827746  0.32747001301534345  0.8224540392861855  1.0000
  C   C1        1.0  0.15049820494280647  0.5540898500868181  0.3335221608303911  1.0000
  C   C2        1.0  0.8495074654148311  0.4459105071129272  0.6664705583056971  1.0000
  C   C3        1.0  0.2185804946445487  0.5137317114014905  0.4464809370535079  1.0000
  C   C4        1.0  0.7814272186896646  0.4862668133277098  0.5535097233073216  1.0000
  C   C5        1.0  0.3649688722733799  0.3597430721871717  0.49839524016346104  1.0000
  C   C6        1.0  0.6350393695845681  0.6402517064067795  0.5015972334736745  1.0000
  C   C7        1.0  0.360575915133353  0.410211718861447  0.6278852949133836  1.0000
  C   C8        1.0  0.6394293640979072  0.5897858435899438  0.37210665363689804  1.0000
  C   C9        1.0  0.4335529908844221  0.35823940348340955  0.7178274884816389  1.0000
  C   C10       1.0  0.5664500895352588  0.6417590510678296  0.2821671652944033  1.0000
  C   C11       1.0  0.5135328012925697  0.2568044897852602  0.680456203876993  1.0000
  C   C12       1.0  0.48647442215482084  0.7431920926872168  0.31954207257187767  1.0000
  C   C13       1.0  0.5190153402068559  0.20774157628745374  0.5519075957433303  1.0000
  C   C14       1.0  0.48099057554178165  0.7922540504668236  0.44809209968173047  1.0000
  C   C15       1.0  0.4459714100885535  0.25729206114584013  0.459018473196899  1.0000
  C   C16       1.0  0.5540344262037208  0.7427026516014694  0.540979158741358  1.0000
  C   C17       1.0  0.4537792823233389  0.20032773087422845  0.3216543697441736  1.0000
  C   C18       1.0  0.5462200123974554  0.7996613156387866  0.6783455836509518  1.0000
  C   C19       1.0  0.1687847142655698  0.05615939789947793  0.2825406271366901  1.0000
  C   C20       1.0  0.8312001931409013  0.9438490343667358  0.7174708883698601  1.0000
  C   C21       1.0  0.0933613279564796  0.12958197606180022  0.19703719991783694  1.0000
  C   C22       1.0  0.906635887362114  0.8704247267098852  0.8029689173319526  1.0000
  C   C23       1.0  0.9252390878358412  0.08222273478654073  0.15716173405939327  1.0000
  C   C24       1.0  0.07476137016443124  0.9177812807946781  0.8428349718404604  1.0000
  C   C25       1.0  0.7699677251507566  0.2941241867802659  0.1549641880022179  1.0000
  C   C26       1.0  0.23003611206212332  0.705879848479775  0.8450329102578636  1.0000
  C   C27       1.0  0.8013491076020925  0.4114329874100024  0.1156554356780504  1.0000
  C   C28       1.0  0.19865116602590396  0.5885691913693591  0.884338046560636  1.0000
  C   C29       1.0  0.7029076506140511  0.4373593802483385  0.019386395902095906  1.0000
  C   C30       1.0  0.2970915220692874  0.5626428007593205  0.9806060522374125  1.0000
  C   C31       1.0  0.730343760393474  0.5460925232645196  0.9808147701403698  1.0000
  C   C32       1.0  0.2696561221081453  0.4539068607664873  0.0191779415125097  1.0000
  C   C33       1.0  0.858579206138252  0.6301026014262661  0.039171628593997816  1.0000
  C   C34       1.0  0.141423059547229  0.36989772730674286  0.9608216014943024  1.0000
  C   C35       1.0  0.9585180085660029  0.6068282238523751  0.13564137834158174  1.0000
  C   C36       1.0  0.041484463873573026  0.39317306282713826  0.8643493986713437  1.0000
  C   C37       1.0  0.9301071557050093  0.4977424467579328  0.17414169851489464  1.0000
  C   C38       1.0  0.06989395811672952  0.5022578666275663  0.8258523040990937  1.0000
  S   S1        1.0  0.36616174883137376  0.038140902295864997  0.2677321506849708  1.0000
  S   S2        1.0  0.6338213210365211  0.9618487818435782  0.7322870047437179  1.0000
  S   S3        1.0  0.8330648276343952  0.1593467018534014  0.046497139688796096  1.0000
  S   S4        1.0  0.16693055232815374  0.8406535435824268  0.9534998222412341  1.0000
  Br  Br1       1.0  0.5982404277633223  0.8509293457452006  0.037242305261131044  1.0000
  Br  Br2       1.0  0.40174077307010236  0.1491041603551295  0.9628770502252947  1.0000
  O   O1        1.0  0.0202640753181242  0.4675749081642238  0.2695785340284901  1.0000
  O   O2        1.0  0.9797339200419233  0.5324272487080182  0.7304155899491533  1.0000
  O   O3        1.0  0.29303281109646656  0.4053545474490862  0.40506805196417167  1.0000
  O   O4        1.0  0.7069765317061396  0.5946402289165749  0.5949254557721418  1.0000
