data_image0
_chemical_formula_structural       Zn4H40C40N8O24
_chemical_formula_sum              "Zn4 H40 C40 N8 O24"
_cell_length_a       7.9258788287129605
_cell_length_b       10.341342970825831
_cell_length_c       15.166305868020945
_cell_angle_alpha    89.99981315827387
_cell_angle_beta     89.99997111160842
_cell_angle_gamma    91.64831104765092

_space_group_name_H-M_alt    "P 1"
_space_group_IT_number       1

loop_
  _space_group_symop_operation_xyz
  'x, y, z'

loop_
  _atom_site_type_symbol
  _atom_site_label
  _atom_site_symmetry_multiplicity
  _atom_site_fract_x
  _atom_site_fract_y
  _atom_site_fract_z
  _atom_site_occupancy
  Zn  Zn1       1.0  0.10309480231090619  0.40896574567915434  0.4224920011578489  1.0000
  Zn  Zn2       1.0  0.8969066498213466  0.09103353939018889  0.9224920560705242  1.0000
  Zn  Zn3       1.0  0.8969070750470324  0.5910351272422146  0.5775076903940359  1.0000
  Zn  Zn4       1.0  0.10309388854337698  0.9089654005725831  0.07750829484002959  1.0000
  H   H1        1.0  0.6293298472384733  0.5100118271911285  0.4491364099076803  1.0000
  H   H2        1.0  0.3706695050633473  0.9899888460204522  0.9491357181281045  1.0000
  H   H3        1.0  0.3706682065743934  0.48998808380927955  0.550865259714804  1.0000
  H   H4        1.0  0.6293298103696614  0.010011063159801397  0.050863973425194296  1.0000
  H   H5        1.0  0.017958331935176396  0.6930348389724228  0.30989802981678577  1.0000
  H   H6        1.0  0.9820423646122193  0.8069645687451721  0.8098982428102914  1.0000
  H   H7        1.0  0.9820396831919141  0.30696410464179286  0.690101661737742  1.0000
  H   H8        1.0  0.017958173753640897  0.1930343712223744  0.19010013003122583  1.0000
  H   H9        1.0  0.15603768716114536  0.12031346326243406  0.3509172050265832  1.0000
  H   H10       1.0  0.8439625855997548  0.3796861686151088  0.850917292981556  1.0000
  H   H11       1.0  0.8439628898904915  0.8796864440913053  0.6490831458828906  1.0000
  H   H12       1.0  0.15603672983287714  0.62031374056356  0.1490830579280811  1.0000
  H   H13       1.0  0.3476679634516131  0.09982675039196208  0.5673568569497434  1.0000
  H   H14       1.0  0.6523288116093582  0.4001732863040813  0.0673560179776018  1.0000
  H   H15       1.0  0.6523326522873207  0.9001741243543292  0.4326428346023049  1.0000
  H   H16       1.0  0.347670542510187  0.599827590265548  0.9326443329309553  1.0000
  H   H17       1.0  0.35786408404946723  0.9253267369670083  0.561523273929943  1.0000
  H   H18       1.0  0.6421343746720397  0.5746738715458334  0.0615218408616798  1.0000
  H   H19       1.0  0.6421377546211815  0.07467316856180867  0.4384770769793676  1.0000
  H   H20       1.0  0.35786627975380725  0.4253279705914182  0.9384778506892955  1.0000
  H   H21       1.0  0.16859485971773575  0.9996188324153293  0.5940136596313081  1.0000
  H   H22       1.0  0.8314009997432095  0.5003806557541279  0.09401300100288518  1.0000
  H   H23       1.0  0.8314057560208142  0.00038204232937030005  0.40598669127708575  1.0000
  H   H24       1.0  0.16859831568980607  0.49961925342612545  0.9059866905504064  1.0000
  H   H25       1.0  0.18077524548011328  0.91086759214145  0.3407694902882739  1.0000
  H   H26       1.0  0.8192242313480876  0.5891336033891504  0.8407682511000302  1.0000
  H   H27       1.0  0.819224069952142  0.08913231703562727  0.6592315199777089  1.0000
  H   H28       1.0  0.18077508408530465  0.41086630579269456  0.15923078109691594  1.0000
  H   H29       1.0  0.137283639919751  0.8211782765386101  0.44028756728162927  1.0000
  H   H30       1.0  0.8627156838635558  0.6788214719327781  0.940286777106607  1.0000
  H   H31       1.0  0.8627157141997941  0.17882260003101885  0.559712783626928  1.0000
  H   H32       1.0  0.13728363156983653  0.32117843724905976  0.0597122550903393  1.0000
  H   H33       1.0  0.3491412047550853  0.8504380536465987  0.40602603263693027  1.0000
  H   H34       1.0  0.6508581970855117  0.649562827352632  0.9060253629815662  1.0000
  H   H35       1.0  0.6508581106779303  0.14956185553365486  0.5939736589163616  1.0000
  H   H36       1.0  0.34914115703441684  0.35043804921858157  0.0939743285706527  1.0000
  H   H37       1.0  0.5083994003193766  0.7098480658860138  0.20666713938926756  1.0000
  H   H38       1.0  0.49160023060730407  0.7901537760021639  0.7066668590827303  1.0000
  H   H39       1.0  0.49159869218078706  0.29015281250695313  0.7933338708758058  1.0000
  H   H40       1.0  0.5084028696827261  0.20984612770330802  0.2933328324700711  1.0000
  C   C1        1.0  0.36032784483823116  0.5661890292957777  0.3391742066014629  1.0000
  C   C2        1.0  0.6396729341275673  0.9338131394837459  0.8391755468588824  1.0000
  C   C3        1.0  0.6396715479682342  0.4338128146648117  0.6608261443060214  1.0000
  C   C4        1.0  0.3603276429240693  0.06618676786999339  0.1608248040505913  1.0000
  C   C5        1.0  0.5441913569250189  0.6068161101958579  0.32899763158560097  1.0000
  C   C6        1.0  0.45580817211688907  0.8931861094630945  0.828997132157056  1.0000
  C   C7        1.0  0.4558080358810627  0.3931857337631399  0.6710033786782218  1.0000
  C   C8        1.0  0.5441936278675994  0.10681282867793132  0.1710019000406433  1.0000
  C   C9        1.0  0.7698239816368471  0.7138107507303102  0.24819072584046603  1.0000
  C   C10       1.0  0.23017552419982223  0.7861889562330473  0.7481918416765294  1.0000
  C   C11       1.0  0.23017407217716374  0.2861891602748656  0.7518089657129889  1.0000
  C   C12       1.0  0.7698274987159976  0.21380901268890531  0.2518085092347704  1.0000
  C   C13       1.0  0.6610605884541059  0.5679470970245788  0.3914307929165517  1.0000
  C   C14       1.0  0.3389401304635768  0.9320548198864174  0.8914308973199567  1.0000
  C   C15       1.0  0.3389399885971542  0.43205281032757614  0.6085702173492679  1.0000
  C   C16       1.0  0.6610617082078251  0.0679450856455688  0.1085681348766627  1.0000
  C   C17       1.0  0.8822163731829705  0.6746173421592657  0.3123988753988485  1.0000
  C   C18       1.0  0.11778439786439072  0.8253839882859777  0.8123992744571209  1.0000
  C   C19       1.0  0.11778294224966153  0.32538256701940327  0.6876014755107889  1.0000
  C   C20       1.0  0.8822174021200908  0.17461494985504794  0.18759975774057835  1.0000
  C   C21       1.0  0.1867340023375945  0.12452565694835727  0.4217281116102853  1.0000
  C   C22       1.0  0.8132649661217074  0.37547460284514494  0.921727557610282  1.0000
  C   C23       1.0  0.8132678363334308  0.8754742485820443  0.5782715799426866  1.0000
  C   C24       1.0  0.1867331263792167  0.6245262755509983  0.0782721339421002  1.0000
  C   C25       1.0  0.83864189305433  0.7887127169303765  0.1701446012868217  1.0000
  C   C26       1.0  0.161356440846447  0.7112873680287917  0.6701472200321203  1.0000
  C   C27       1.0  0.1613548604545159  0.21128622851194473  0.8298537715551857  1.0000
  C   C28       1.0  0.8386427972119819  0.2887106063663579  0.3298537902360152  1.0000
  C   C29       1.0  0.2795858947361367  0.009345150359678199  0.5506673384314238  1.0000
  C   C30       1.0  0.7204108995019993  0.49065496677393833  0.05066825896986418  1.0000
  C   C31       1.0  0.7204159826217948  0.9906557225616907  0.449332353120468  1.0000
  C   C32       1.0  0.2795884546183061  0.5093459097988671  0.949330773226002  1.0000
  C   C33       1.0  0.2231904181194508  0.8919921357449708  0.4082625398104724  1.0000
  C   C34       1.0  0.776808942464186  0.6080077670834143  0.9082619292516796  1.0000
  C   C35       1.0  0.7768088973131809  0.10800777343369108  0.5917378110991649  1.0000
  C   C36       1.0  0.22319037296882271  0.3919921420968393  0.0917377623016122  1.0000
  C   C37       1.0  0.5986298581347071  0.6800168074850602  0.256399112926374  1.0000
  C   C38       1.0  0.4013696382700261  0.8199828599165783  0.7563994495051104  1.0000
  C   C39       1.0  0.4013694959840847  0.3199840690813929  0.7436025566948742  1.0000
  C   C40       1.0  0.5986321617137024  0.18001607822127136  0.24360090140527996  1.0000
  N   N1        1.0  0.2294269899808441  0.012648233292175294  0.4581510745567314  1.0000
  N   N2        1.0  0.7705706750054091  0.48735185277178755  0.9581502836286474  1.0000
  N   N3        1.0  0.7705736257577058  0.9873526414525312  0.5418492763516696  1.0000
  N   N4        1.0  0.2294274174955149  0.5126490256243554  0.0418494079237348  1.0000
  N   N5        1.0  0.8258243183342203  0.603455954250627  0.38176258982581146  1.0000
  N   N6        1.0  0.17417637300635394  0.896545041868883  0.8817628162465212  1.0000
  N   N7        1.0  0.1741749970984117  0.3965439549280347  0.6182377610838258  1.0000
  N   N8        1.0  0.8258254656646713  0.10345486366151846  0.1182368753064438  1.0000
  O   O1        1.0  0.9396040810890653  0.5684147660097949  0.4417970089353034  1.0000
  O   O2        1.0  0.06039646389087489  0.931584005966428  0.9417978468690079  1.0000
  O   O3        1.0  0.0603951569701167  0.4315832083885309  0.5582026826201485  1.0000
  O   O4        1.0  0.9396041131611456  0.06841590138890301  0.0582018446841204  1.0000
  O   O5        1.0  0.3305814388648045  0.48660328133770736  0.4032716477475517  1.0000
  O   O6        1.0  0.6694188511081549  0.013398032976525103  0.9032725939380057  1.0000
  O   O7        1.0  0.6694168083822661  0.5134014666159388  0.5967306812258926  1.0000
  O   O8        1.0  0.330580464324477  0.9866018762021438  0.09672775697163159  1.0000
  O   O9        1.0  0.2556175250144008  0.6097586702509401  0.2863063209542815  1.0000
  O   O10       1.0  0.7443820143967201  0.8902427877802878  0.7863077303553394  1.0000
  O   O11       1.0  0.744382974663786  0.39023930232245624  0.7136933706009998  1.0000
  O   O12       1.0  0.2556198629604581  0.10975808513789787  0.2136932799092364  1.0000
  O   O13       1.0  0.9857241118625097  0.843179062323365  0.184087270841971  1.0000
  O   O14       1.0  0.014275467636203095  0.6568209536113938  0.6840887302950163  1.0000
  O   O15       1.0  0.014272641645575797  0.15681988311577294  0.8159124207127277  1.0000
  O   O16       1.0  0.9857250707285203  0.3431779863513782  0.3159116206155375  1.0000
  O   O17       1.0  0.1851866382515794  0.22821584917622317  0.46530749507174807  1.0000
  O   O18       1.0  0.8148122801294874  0.27178420056687697  0.9653078300009881  1.0000
  O   O19       1.0  0.8148139774877307  0.77178502557166  0.5346915371239545  1.0000
  O   O20       1.0  0.18518577368413958  0.7282157104367143  0.0346925209088127  1.0000
  O   O21       1.0  0.7556041930183427  0.7915021845559804  0.10048822676934319  1.0000
  O   O22       1.0  0.24439552123154584  0.7084992017060044  0.600490829897879  1.0000
  O   O23       1.0  0.24439512241466596  0.20849772462427305  0.8995114647839486  1.0000
  O   O24       1.0  0.7556049784458806  0.2914987708642158  0.3995101803700932  1.0000
