data_image0
_chemical_formula_structural       Cd2H14C10O14
_chemical_formula_sum              "Cd2 H14 C10 O14"
_cell_length_a       5.583170249590661
_cell_length_b       7.632215575498759
_cell_length_c       9.631291760514442
_cell_angle_alpha    110.47749783692394
_cell_angle_beta     102.21928202357836
_cell_angle_gamma    97.79529533729271

_space_group_name_H-M_alt    "P 1"
_space_group_IT_number       1

loop_
  _space_group_symop_operation_xyz
  'x, y, z'

loop_
  _atom_site_type_symbol
  _atom_site_label
  _atom_site_symmetry_multiplicity
  _atom_site_fract_x
  _atom_site_fract_y
  _atom_site_fract_z
  _atom_site_occupancy
  Cd  Cd1       1.0  0.5264919279375562  0.5811313253396547  0.33980661786854677  1.0000
  Cd  Cd2       1.0  0.4735079521330122  0.4188705216849514  0.6601955709876961  1.0000
  H   H1        1.0  0.6425003855070913  0.05219427644858849  0.8300003304994946  1.0000
  H   H2        1.0  0.357500435091211  0.9478047080045541  0.17000010795390347  1.0000
  H   H3        1.0  0.05204601973996861  0.6303551065188984  0.1822774579568787  1.0000
  H   H4        1.0  0.9479493141401674  0.3696438666832194  0.8177243930144796  1.0000
  H   H5        1.0  0.24388988322841956  0.6024941737806486  0.07647800074260397  1.0000
  H   H6        1.0  0.7561068352111137  0.3975033734643175  0.9235225675179989  1.0000
  H   H7        1.0  0.6788107613489062  0.727188055010686  0.13257412704413712  1.0000
  H   H8        1.0  0.321185956145591  0.2728095129547937  0.8674254086783718  1.0000
  H   H9        1.0  0.8812725443831796  0.8733057272158645  0.29460301278906087  1.0000
  H   H10       1.0  0.11872644762408413  0.12669324658009629  0.7053982406830244  1.0000
  H   H11       1.0  0.2816021408992953  0.7801712397825468  0.5686060529641352  1.0000
  H   H12       1.0  0.7183935779328721  0.2198350508775917  0.4313917237196634  1.0000
  H   H13       1.0  0.2623010222090727  0.90774862626143  0.4699216316891038  1.0000
  H   H14       1.0  0.7377001852313185  0.09225763420870689  0.5300767975529155  1.0000
  C   C1        1.0  0.06123379034905701  0.09984566720863339  0.160831239341654  1.0000
  C   C2        1.0  0.9387734040856871  0.9001562224446927  0.8391676894398543  1.0000
  C   C3        1.0  0.8582840823020349  0.12962445269744896  0.06434335237094761  1.0000
  C   C4        1.0  0.1417181247457151  0.8703730643575227  0.9356578684478762  1.0000
  C   C5        1.0  0.8005215640024377  0.029416130870856694  0.9046900700357341  1.0000
  C   C6        1.0  0.1994810861319394  0.9705828435189474  0.09531058593707091  1.0000
  C   C7        1.0  0.7050503793081192  0.26895591044668526  0.12668870175789243  1.0000
  C   C8        1.0  0.2949550427801242  0.7310401498672974  0.8733124864076627  1.0000
  C   C9        1.0  0.1340707678703907  0.19055852409275795  0.3340635514715373  1.0000
  C   C10       1.0  0.8659296068061979  0.8094390651870852  0.6659343542135971  1.0000
  O   O1        1.0  0.5772165232382492  0.33094914703237777  0.035928309513884905  1.0000
  O   O2        1.0  0.4227842973600531  0.669049837420765  0.964072128939513  1.0000
  O   O3        1.0  0.7146698973084612  0.3226167717644728  0.2696513811631078  1.0000
  O   O4        1.0  0.2853309261249351  0.6773821505271302  0.7303521549045655  1.0000
  O   O5        1.0  0.0747688103899691  0.082820578308322  0.4019486935466148  1.0000
  O   O6        1.0  0.9252320092633043  0.9171784268653269  0.5980507123686891  1.0000
  O   O7        1.0  0.2636266899510603  0.36303067703057224  0.405960047514739  1.0000
  O   O8        1.0  0.7363759592382877  0.6369683180797522  0.5940395759199788  1.0000
  O   O9        1.0  0.18448566399366226  0.5621934953836032  0.15335281462031958  1.0000
  O   O10       1.0  0.8155137729902792  0.43780689430617054  0.8466499390819351  1.0000
  O   O11       1.0  0.7889380715043972  0.7349028975583066  0.23087975576328293  1.0000
  O   O12       1.0  0.21106136453451546  0.2650975128519732  0.7691219654008847  1.0000
  O   O13       1.0  0.3614794871807375  0.8245717621132937  0.5015666401920029  1.0000
  O   O14       1.0  0.6385212771730268  0.17543304102201057  0.49843235389602814  1.0000
