data_image0
_chemical_formula_structural       Cu4H24C20I4N8
_chemical_formula_sum              "Cu4 H24 C20 I4 N8"
_cell_length_a       4.164144779473926
_cell_length_b       9.985002329038217
_cell_length_c       17.092784048387994
_cell_angle_alpha    97.7061227544127
_cell_angle_beta     90.00094610203972
_cell_angle_gamma    90.0012456095798

_space_group_name_H-M_alt    "P 1"
_space_group_IT_number       1

loop_
  _space_group_symop_operation_xyz
  'x, y, z'

loop_
  _atom_site_type_symbol
  _atom_site_label
  _atom_site_symmetry_multiplicity
  _atom_site_fract_x
  _atom_site_fract_y
  _atom_site_fract_z
  _atom_site_occupancy
  Cu  Cu1       1.0  0.14350567571064227  0.9696354316102005  0.5589491067998227  1.0000
  Cu  Cu2       1.0  0.6434920749612587  0.5303585447752256  0.9410485469921926  1.0000
  Cu  Cu3       1.0  0.8565152022578744  0.030376082611134305  0.4410484682311804  1.0000
  Cu  Cu4       1.0  0.3565239999353054  0.46964002165217517  0.0589540047929802  1.0000
  H   H1        1.0  0.9190937561287028  0.8185589634455254  0.683586648711753  1.0000
  H   H2        1.0  0.419061583801671  0.6814185675149248  0.8164069758864869  1.0000
  H   H3        1.0  0.08094393136764919  0.1814332393575384  0.3164061109356241  1.0000
  H   H4        1.0  0.5809280753521124  0.3185861367516268  0.18359833105044035  1.0000
  H   H5        1.0  0.970878906112844  0.828976159063906  0.8286114664792166  1.0000
  H   H6        1.0  0.4708847433898598  0.6710130292021006  0.6713831670124081  1.0000
  H   H7        1.0  0.0291179567298627  0.17101806443350398  0.17138142958632596  1.0000
  H   H8        1.0  0.529080901111044  0.3289915620587323  0.3286186213776716  1.0000
  H   H9        1.0  0.2169951942871791  0.9475886067539036  0.9502088860085465  1.0000
  H   H10       1.0  0.717012334434898  0.552399160005521  0.5497915881612911  1.0000
  H   H11       1.0  0.7829896611509284  0.05239367936587771  0.04978905505313951  1.0000
  H   H12       1.0  0.28295331031974763  0.44761256087340934  0.4502124372917322  1.0000
  H   H13       1.0  0.4181963675676101  0.1019437616196583  0.9500623965205008  1.0000
  H   H14       1.0  0.9182238171561395  0.39804873619759457  0.5499380338585809  1.0000
  H   H15       1.0  0.5817812836755252  0.8980396666097762  0.049939717684715425  1.0000
  H   H16       1.0  0.08175383463808569  0.601963750624826  0.45005843649567373  1.0000
  H   H17       1.0  0.5365550651001812  0.1926219642163858  0.8267200115435075  1.0000
  H   H18       1.0  0.0365559244114593  0.3073696448678546  0.6732810682680892  1.0000
  H   H19       1.0  0.4634538052052122  0.8073675269005277  0.1732825122989681  1.0000
  H   H20       1.0  0.9634313331084671  0.6926368545341148  0.32671733820861  1.0000
  H   H21       1.0  0.4713765211343172  0.1637140073542795  0.6810937995772194  1.0000
  H   H22       1.0  0.9713680165621384  0.33626804487671785  0.8189096632283395  1.0000
  H   H23       1.0  0.5286467581654009  0.8362826322694942  0.3189115477785975  1.0000
  H   H24       1.0  0.028645656977332096  0.6637375006495176  0.1810904342977508  1.0000
  C   C1        1.0  0.05820464275852541  0.8991472117256407  0.7173123451905143  1.0000
  C   C2        1.0  0.5581794431269884  0.600831800523004  0.7826862737109864  1.0000
  C   C3        1.0  0.9418306432435841  0.100840032861484  0.2826830052238307  1.0000
  C   C4        1.0  0.441846237816172  0.39916895618273435  0.21732169234851284  1.0000
  C   C5        1.0  0.0871857798207927  0.9051185651476459  0.7981841564270769  1.0000
  C   C6        1.0  0.5871838019958916  0.5948656900014058  0.7018114296986087  1.0000
  C   C7        1.0  0.9128134844346365  0.0948707001589497  0.2018113304173923  1.0000
  C   C8        1.0  0.4127914484599984  0.4051370685350478  0.29819608634062433  1.0000
  C   C9        1.0  0.26419970267380677  0.011483570741006604  0.8409465631689841  1.0000
  C   C10       1.0  0.7641932478848689  0.4885154924845879  0.6590565782267248  1.0000
  C   C11       1.0  0.7358115689752156  0.9885067991491356  0.15905192403783996  1.0000
  C   C12       1.0  0.23577479828056624  0.5114981552482547  0.3409446516795854  1.0000
  C   C13       1.0  0.3981850066409862  0.10807652647007157  0.7970596006902896  1.0000
  C   C14       1.0  0.8981813352888182  0.3919137219741343  0.7029400070012031  1.0000
  C   C15       1.0  0.6018214622943748  0.8919159959963139  0.2029431279259555  1.0000
  C   C16       1.0  0.1018059224109678  0.6081027879012736  0.29705615000213476  1.0000
  C   C17       1.0  0.3606784594718776  0.0923598815481057  0.7160818161859837  1.0000
  C   C18       1.0  0.8606688767314664  0.40762581953207894  0.7839138131455671  1.0000
  C   C19       1.0  0.6393544254206703  0.90763359507055  0.28391922151244847  1.0000
  C   C20       1.0  0.13933759230651083  0.5923815587311054  0.21608055673734583  1.0000
  I   I1        1.0  0.32257948297356615  0.1879823317946787  0.4978755023220529  1.0000
  I   I2        1.0  0.8225538187841721  0.31202243373164157  0.002130155626360905  1.0000
  I   I3        1.0  0.6774341906853394  0.8120282471882803  0.5021243500891188  1.0000
  I   I4        1.0  0.1774478472489989  0.6879730448182927  0.9978704320996529  1.0000
  N   N1        1.0  0.1930255541615438  0.9897902347192938  0.6750228801300651  1.0000
  N   N2        1.0  0.69301534222393  0.5101870823641547  0.824973859908184  1.0000
  N   N3        1.0  0.8069953235633207  0.0102082564799062  0.3249773260090407  1.0000
  N   N4        1.0  0.30700553536183867  0.48980635656497634  0.17502600493133266  1.0000
  N   N5        1.0  0.3068066908703316  0.020033582209066505  0.9199469394298704  1.0000
  N   N6        1.0  0.806873880312601  0.4799747957590199  0.5800499917380222  1.0000
  N   N7        1.0  0.6931589532180666  0.9799588083502755  0.08005168418316091  1.0000
  N   N8        1.0  0.19310857454593844  0.5200378415952329  0.4199511699442554  1.0000
