data_image0
_chemical_formula_structural       Ag4H8C24N16Cl4O16
_chemical_formula_sum              "Ag4 H8 C24 N16 Cl4 O16"
_cell_length_a       7.884003360000129
_cell_length_b       7.883965432011942
_cell_length_c       15.096658599025531
_cell_angle_alpha    90.00020454637891
_cell_angle_beta     90.00000760458765
_cell_angle_gamma    89.9999805743317

_space_group_name_H-M_alt    "P 1"
_space_group_IT_number       1

loop_
  _space_group_symop_operation_xyz
  'x, y, z'

loop_
  _atom_site_type_symbol
  _atom_site_label
  _atom_site_symmetry_multiplicity
  _atom_site_fract_x
  _atom_site_fract_y
  _atom_site_fract_z
  _atom_site_occupancy
  Ag  Ag1       1.0  0.7500009205645457  0.2500000635868389  0.10324097665588988  1.0000
  Ag  Ag2       1.0  0.24999984890093432  0.7499990267961536  0.6032401345149266  1.0000
  Ag  Ag3       1.0  0.24999988892267316  0.7500013281044318  0.8967607153092059  1.0000
  Ag  Ag4       1.0  0.7499996921948765  0.2500023648883385  0.3967595702554263  1.0000
  H   H1        1.0  0.7499997112869893  0.5900273948796195  0.9584113151179279  1.0000
  H   H2        1.0  0.9099741800520251  0.7499996733647974  0.45841208097144187  1.0000
  H   H3        1.0  0.24999982980812524  0.4099765335923635  0.0415864024600126  1.0000
  H   H4        1.0  0.7499996571913031  0.9099755252671217  0.9584116045549321  1.0000
  H   H5        1.0  0.0900266294354068  0.2500004499292316  0.5415896109925028  1.0000
  H   H6        1.0  0.5900275888572609  0.7499997277445587  0.4584120706927876  1.0000
  H   H7        1.0  0.24999988390389663  0.09002840320719231  0.04158677542124419  1.0000
  H   H8        1.0  0.40997322063017083  0.25000039554947057  0.5415896212711572  1.0000
  C   C1        1.0  0.7499996186700032  0.5690608434897869  0.2531638448568287  1.0000
  C   C2        1.0  0.9309394573752244  0.7499994386509103  0.7531647231527854  1.0000
  C   C3        1.0  0.24999992242519653  0.4309430849845271  0.7468345351193475  1.0000
  C   C4        1.0  0.7499995574850119  0.9309396498663036  0.2531654970223514  1.0000
  C   C5        1.0  0.06906262050356561  0.24999941624565744  0.24683696881005085  1.0000
  C   C6        1.0  0.5690598551321177  0.74999950015782  0.7531647115269847  1.0000
  C   C7        1.0  0.24999998361113282  0.06905920502137523  0.7468335453474706  1.0000
  C   C8        1.0  0.4309384175730386  0.2500006231366357  0.24683698043688193  1.0000
  C   C9        1.0  0.7500008604423769  0.6607022570298683  0.1715783244335114  1.0000
  C   C10       1.0  0.8392969180821055  0.7500004355210806  0.6715791168839544  1.0000
  C   C11       1.0  0.24999994904447936  0.33929913465207323  0.8284207179386484  1.0000
  C   C12       1.0  0.7499995618555462  0.8392963937272102  0.17158113558931376  1.0000
  C   C13       1.0  0.1607026230140107  0.2499996877685007  0.3284212502834833  1.0000
  C   C14       1.0  0.6607023721760827  0.7500004658735904  0.671578448748164  1.0000
  C   C15       1.0  0.24999997924066264  0.16070372956470183  0.8284198939763525  1.0000
  C   C16       1.0  0.33929716892003375  0.24999965741599084  0.32842191841927354  1.0000
  C   C17       1.0  0.7499995714400216  0.6607651452221222  0.0204945608189036  1.0000
  C   C18       1.0  0.8392372830983634  0.7499999038682077  0.5204973404048019  1.0000
  C   C19       1.0  0.24999996965520674  0.3392375148502893  0.9795024943596644  1.0000
  C   C20       1.0  0.7499995412649767  0.8392387841883746  0.02049935906044449  1.0000
  C   C21       1.0  0.16076352638906855  0.2500002194258215  0.47950435155914306  1.0000
  C   C22       1.0  0.6607645027416637  0.7499999342000194  0.5204966722729196  1.0000
  C   C23       1.0  0.24999999983071322  0.1607638758956895  0.9795010081092881  1.0000
  C   C24       1.0  0.3392363067457681  0.2500001890940098  0.47950501969102527  1.0000
  N   N1        1.0  0.7499996401027644  0.49656837280844723  0.32046012789244566  1.0000
  N   N2        1.0  0.0034322514857266007  0.7499998331134139  0.820461041970759  1.0000
  N   N3        1.0  0.24999990099316702  0.503431750476473  0.6795389144785274  1.0000
  N   N4        1.0  0.7499997234804568  0.0034332831750703  0.3204610065805368  1.0000
  N   N5        1.0  0.9965685580012577  0.2500002901689555  0.17953733800201374  1.0000
  N   N6        1.0  0.4965675055528181  0.7499997492952916  0.8204603954150684  1.0000
  N   N7        1.0  0.24999981761538242  0.9965668401075194  0.6795373733922005  1.0000
  N   N8        1.0  0.5034333039341592  0.2500003739870778  0.17953798455771158  1.0000
  N   N9        1.0  0.7499995966975986  0.5718266628661296  0.09544881496373137  1.0000
  N   N10       1.0  0.9281718064052245  0.750000152505855  0.5954477034746545  1.0000
  N   N11       1.0  0.24999994439829723  0.4281747288206931  0.9045515522048573  1.0000
  N   N12       1.0  0.7499995364476177  0.92817272046689  0.0954471501329479  1.0000
  N   N13       1.0  0.07182900308211522  0.24999997078584363  0.4045533260910615  1.0000
  N   N14       1.0  0.5718274630917933  0.7500002130719566  0.5954476920266742  1.0000
  N   N15       1.0  0.2500000046481361  0.07182740281336919  0.9045505674415535  1.0000
  N   N16       1.0  0.42817207800432305  0.2499999102176247  0.4045526751407635  1.0000
  Cl  Cl1       1.0  0.7499997595293095  0.24999649227974174  0.8905801035232129  1.0000
  Cl  Cl2       1.0  0.24999855151318684  0.7500008152397867  0.3905824805762633  1.0000
  Cl  Cl3       1.0  0.24999978156753852  0.7499998258204529  0.10942092603902147  1.0000
  Cl  Cl4       1.0  0.7499984528002559  0.2500005764428082  0.6094165617957683  1.0000
  O   O1        1.0  0.900808937092478  0.2499941348533454  0.9488347210826547  1.0000
  O   O2        1.0  0.24999853395780045  0.9008109153672521  0.44883656732310573  1.0000
  O   O3        1.0  0.40080894324407274  0.7499995951877665  0.0511663181671196  1.0000
  O   O4        1.0  0.5991905978532017  0.24999418611794505  0.9488347113928126  1.0000
  O   O5        1.0  0.7499971509677438  0.4008089981724723  0.5511614231077786  1.0000
  O   O6        1.0  0.24999985334581962  0.5991911251105437  0.4488369568648735  1.0000
  O   O7        1.0  0.0991906040047965  0.7499996464523664  0.0511663084772778  1.0000
  O   O8        1.0  0.749997201964597  0.0991904763178866  0.5511631374471263  1.0000
  O   O9        1.0  0.7499997779993777  0.0974207990952891  0.8368448959336304  1.0000
  O   O10       1.0  0.40257838783607974  0.7500006002199271  0.33685006550691543  1.0000
  O   O11       1.0  0.2499997630964685  0.9025793241873006  0.16315348403909974  1.0000
  O   O12       1.0  0.7499997264048517  0.4025806860739962  0.8368511335767436  1.0000
  O   O13       1.0  0.597419884868778  0.2500007914694394  0.6631509640598592  1.0000
  O   O14       1.0  0.09742123731992082  0.7499981152891877  0.336849393302863  1.0000
  O   O15       1.0  0.24999981469180454  0.5974194372295758  0.1631532079800948  1.0000
  O   O16       1.0  0.9025770353846955  0.25000200799128447  0.6631483242716029  1.0000
