data_image0
_chemical_formula_structural       Cd4H44C40S8N12O16
_chemical_formula_sum              "Cd4 H44 C40 S8 N12 O16"
_cell_length_a       7.192725878785569
_cell_length_b       9.847517586526214
_cell_length_c       19.039417264019892
_cell_angle_alpha    89.99986233090333
_cell_angle_beta     90.00011862289895
_cell_angle_gamma    101.76809799633052

_space_group_name_H-M_alt    "P 1"
_space_group_IT_number       1

loop_
  _space_group_symop_operation_xyz
  'x, y, z'

loop_
  _atom_site_type_symbol
  _atom_site_label
  _atom_site_symmetry_multiplicity
  _atom_site_fract_x
  _atom_site_fract_y
  _atom_site_fract_z
  _atom_site_occupancy
  Cd  Cd1       1.0  0.7991323398770334  0.8374803768626863  0.18118653495617568  1.0000
  Cd  Cd2       1.0  0.29913377136427494  0.8374819564965035  0.31881345045776055  1.0000
  Cd  Cd3       1.0  0.20086400504462182  0.1625187255499796  0.8188139036593189  1.0000
  Cd  Cd4       1.0  0.700865642013909  0.16251818770820145  0.6811864629321253  1.0000
  H   H1        1.0  0.5394645727866987  0.586439522209197  0.19097627977294718  1.0000
  H   H2        1.0  0.03946039794217172  0.5864411319112578  0.3090222388370096  1.0000
  H   H3        1.0  0.46053954441109823  0.41355751915585864  0.8090231083945557  1.0000
  H   H4        1.0  0.9605295656147067  0.41356003380958134  0.6909755736439042  1.0000
  H   H5        1.0  0.7087871475813899  0.5811397618118761  0.2459438930702121  1.0000
  H   H6        1.0  0.2087841241798145  0.581141593182835  0.2540552900113228  1.0000
  H   H7        1.0  0.29121308347718877  0.41885831007802904  0.7540554950951236  1.0000
  H   H8        1.0  0.7912086212181109  0.4188595770423618  0.745943572922997  1.0000
  H   H9        1.0  0.7206064974894703  0.11310046834969262  0.9971116117471939  1.0000
  H   H10       1.0  0.220604015191455  0.11309915768323718  0.5028898822410641  1.0000
  H   H11       1.0  0.2793956977309051  0.8868996803583187  0.002889877322253702  1.0000
  H   H12       1.0  0.7793951115678085  0.8868999492369267  0.49711003114935465  1.0000
  H   H13       1.0  0.7779258930211767  0.6086915508427283  0.07585413844403634  1.0000
  H   H14       1.0  0.2779299920136182  0.6086906399516964  0.42414664020982695  1.0000
  H   H15       1.0  0.22207212943762766  0.39130859110874644  0.9241457749453025  1.0000
  H   H16       1.0  0.7220791578013674  0.3913095200245493  0.5758537984100232  1.0000
  H   H17       1.0  0.6787021889859944  0.5354653743080604  0.9531630337530504  1.0000
  H   H18       1.0  0.17869989815676487  0.535463888212007  0.5468373767369032  1.0000
  H   H19       1.0  0.3212986153115693  0.46453477214986794  0.04683687963737533  1.0000
  H   H20       1.0  0.8212981243009028  0.4645362537405191  0.45316201142628665  1.0000
  H   H21       1.0  0.6127570590173619  0.7188686356854035  0.8694271377559564  1.0000
  H   H22       1.0  0.11275484638263582  0.7188657780515157  0.630573518134867  1.0000
  H   H23       1.0  0.3872426409808938  0.2811325458027839  0.13057330085955246  1.0000
  H   H24       1.0  0.8872401076196327  0.2811333221079195  0.36942692048008063  1.0000
  H   H25       1.0  0.6565170154653829  0.9628285898347713  0.9109308994618464  1.0000
  H   H26       1.0  0.15651351770867447  0.962826932906438  0.5890689619857741  1.0000
  H   H27       1.0  0.3434821112950318  0.03717051708434841  0.08906953915473544  1.0000
  H   H28       1.0  0.8434861822895813  0.03717424858174919  0.4109314766297418  1.0000
  H   H29       1.0  0.7734606335943114  0.31474584152916657  0.04680931294149812  1.0000
  H   H30       1.0  0.2734595820676375  0.3147458429703888  0.4531913026687777  1.0000
  H   H31       1.0  0.22654156162492  0.6852543071798962  0.9531916509017937  1.0000
  H   H32       1.0  0.7265378671533256  0.6852522244120183  0.546808610721634  1.0000
  H   H33       1.0  0.9171205319831444  0.4666236911608975  0.14641841580580467  1.0000
  H   H34       1.0  0.4171162646497208  0.4666240857105065  0.3535821234063194  1.0000
  H   H35       1.0  0.08288473169262292  0.5333774993402046  0.8535820228118853  1.0000
  H   H36       1.0  0.5828800802719343  0.5333750167021591  0.6464183152091753  1.0000
  H   H37       1.0  0.06924927360827127  0.35837869636193176  0.24622372666028278  1.0000
  H   H38       1.0  0.5692490182309698  0.35837993882081776  0.2537766746832944  1.0000
  H   H39       1.0  0.9307512440726669  0.6416204128093665  0.7537772371830018  1.0000
  H   H40       1.0  0.4307501085271569  0.6416191681003979  0.7462227134809684  1.0000
  H   H41       1.0  0.051139878306877114  0.10457517285247771  0.24378157579925402  1.0000
  H   H42       1.0  0.5511393469510467  0.10457536827777152  0.2562191271019147  1.0000
  H   H43       1.0  0.9488609259929748  0.8954249736033545  0.7562193880434979  1.0000
  H   H44       1.0  0.4488611707253085  0.8954237408977191  0.7437797358367324  1.0000
  C   C1        1.0  0.7497720968269233  0.6832431620423095  0.03707820939910531  1.0000
  C   C2        1.0  0.24977526045407933  0.6832431313989744  0.4629224544514161  1.0000
  C   C3        1.0  0.2502273165524045  0.31675698216134407  0.9629222292169435  1.0000
  C   C4        1.0  0.7502297166027674  0.3167570218175868  0.537077984166807  1.0000
  C   C5        1.0  0.6937098010715417  0.6430773777290925  0.9694470845293355  1.0000
  C   C6        1.0  0.1937091168354854  0.6430769961729154  0.5305532038431482  1.0000
  C   C7        1.0  0.30628989892556296  0.35692380376014654  0.030552828860017214  1.0000
  C   C8        1.0  0.806288905625614  0.35692314577646306  0.4694477599985165  1.0000
  C   C9        1.0  0.6575068445752806  0.7453602368422595  0.9232754255364031  1.0000
  C   C10       1.0  0.15750550163743784  0.7453565591280907  0.5767241820042631  1.0000
  C   C11       1.0  0.34249314203846387  0.2546419819336094  0.07672343740009784  1.0000
  C   C12       1.0  0.8424933385040563  0.25464151050649525  0.42327625661284446  1.0000
  C   C13       1.0  0.6813704535580671  0.8811279477943827  0.9462335110711071  1.0000
  C   C14       1.0  0.1813721212334016  0.8811305876818024  0.5537669967126251  1.0000
  C   C15       1.0  0.3186292464379008  0.11887323369590769  0.05376587709208993  1.0000
  C   C16       1.0  0.8186272921482215  0.11886955651975482  0.4462344923557426  1.0000
  C   C17       1.0  0.7390853988497741  0.9138706982617393  0.016170909269916905  1.0000
  C   C18       1.0  0.23908640278829552  0.9138674700543845  0.48382998452331105  1.0000
  C   C19       1.0  0.26091569206671755  0.08613048548073007  0.9838290041199832  1.0000
  C   C20       1.0  0.7609157924297919  0.0861326786557228  0.5161704540938248  1.0000
  C   C21       1.0  0.8350631942812825  0.128663733283382  0.09372370379794864  1.0000
  C   C22       1.0  0.33506304266220616  0.12866288696432798  0.4062766663437502  1.0000
  C   C23       1.0  0.1649376100174251  0.871336413173502  0.9062767348186402  1.0000
  C   C24       1.0  0.6649369017785958  0.871334147639999  0.5937232470482744  1.0000
  C   C25       1.0  0.8353928730777014  0.27255625535222083  0.09197303563420435  1.0000
  C   C26       1.0  0.3353916247872206  0.27255643707450616  0.4080282062074405  1.0000
  C   C27       1.0  0.16460764460437358  0.727442853818033  0.9080284534352363  1.0000
  C   C28       1.0  0.6646113881135565  0.7274416393187125  0.5919727576374643  1.0000
  C   C29       1.0  0.9165595689305874  0.355987842775761  0.14676460844317776  1.0000
  C   C30       1.0  0.41656086376671914  0.35598824771992105  0.3532360679682471  1.0000
  C   C31       1.0  0.08344123536812735  0.6440123036811232  0.853235830173411  1.0000
  C   C32       1.0  0.5834410448313108  0.644010863706704  0.6467638454232587  1.0000
  C   C33       1.0  0.999467071345052  0.2967910369417126  0.20264506448022254  1.0000
  C   C34       1.0  0.4994647676477301  0.29678958587300747  0.2973547000744576  1.0000
  C   C35       1.0  0.0005348372529780823  0.7032080744849124  0.7973548489112834  1.0000
  C   C36       1.0  0.5005340724903249  0.703208483764719  0.7026441628641751  1.0000
  C   C37       1.0  0.9907849867474994  0.15552680895059717  0.20106001640127158  1.0000
  C   C38       1.0  0.4907829765762061  0.15552638883792716  0.2989404423171253  1.0000
  C   C39       1.0  0.00921553093228759  0.8444723002217455  0.7989404222158573  1.0000
  C   C40       1.0  0.509215863562993  0.8444716807987547  0.7010589458476704  1.0000
  S   S1        1.0  0.43822989457313355  0.8861270419465583  0.19307590788856302  1.0000
  S   S2        1.0  0.9382251247497495  0.8861259909235388  0.3069246512046463  1.0000
  S   S3        1.0  0.5617739781775415  0.1138741463065571  0.8069219045977862  1.0000
  S   S4        1.0  0.0617709335495533  0.11387207420773392  0.6930742117329065  1.0000
  S   S5        1.0  0.2703566450385396  0.7213128693808317  0.13928070576118057  1.0000
  S   S6        1.0  0.7703537871224884  0.7213126431594503  0.36071940162679555  1.0000
  S   S7        1.0  0.7296427683362199  0.2786872748270141  0.8607176319502304  1.0000
  S   S8        1.0  0.22964505301785476  0.27868542647618716  0.6392805117641631  1.0000
  N   N1        1.0  0.7712470744296099  0.8150909320746961  0.06076268421441003  1.0000
  N   N2        1.0  0.2712512391716899  0.815089960941819  0.43923835766202074  1.0000
  N   N3        1.0  0.22875372986909784  0.18490921438218777  0.9392377544021787  1.0000
  N   N4        1.0  0.7287526335858415  0.1849112273050082  0.5607626061812783  1.0000
  N   N5        1.0  0.907620619815809  0.0711298107978848  0.1489801860694301  1.0000
  N   N6        1.0  0.4076205140795466  0.0711302223332098  0.3510203124900927  1.0000
  N   N7        1.0  0.09238018448176176  0.9288703356600434  0.8510197273210028  1.0000
  N   N8        1.0  0.5923783260608034  0.9288678473024276  0.6489796009008588  1.0000
  N   N9        1.0  0.7577442541734528  0.05155469328504131  0.03622143635658402  1.0000
  N   N10       1.0  0.2577443530762197  0.051553617430158696  0.46377949436529803  1.0000
  N   N11       1.0  0.2422582276635552  0.9484464927096068  0.963779002260019  1.0000
  N   N12       1.0  0.7422561646035675  0.9484454917421842  0.5362209442518238  1.0000
  O   O1        1.0  0.0721514179874418  0.7262473971651106  0.154430248383541  1.0000
  O   O2        1.0  0.572149025131516  0.7262441218168618  0.3455696975883173  1.0000
  O   O3        1.0  0.9278483241848932  0.27375896849358133  0.8455696650026073  1.0000
  O   O4        1.0  0.4278509193104298  0.27375291278641367  0.6544307410298703  1.0000
  O   O5        1.0  0.32331041496441776  0.7421497201950942  0.06522119898689743  1.0000
  O   O6        1.0  0.8233103749250718  0.7421481655674711  0.4347794491924974  1.0000
  O   O7        1.0  0.6766889984114856  0.25785042401170694  0.9347776639506694  1.0000
  O   O8        1.0  0.176694028892797  0.257849913081067  0.5652204642006284  1.0000
  O   O9        1.0  0.3142618251137748  0.5904107316104045  0.16814513318028912  1.0000
  O   O10       1.0  0.8142591280631778  0.5904116578927587  0.33185517145243904  1.0000
  O   O11       1.0  0.6857403701020247  0.40958941710180613  0.831854254984528  1.0000
  O   O12       1.0  0.185738607776706  0.40958744677418213  0.6681447419374326  1.0000
  O   O13       1.0  0.6793517611477498  0.5958876021284922  0.19606997198213355  1.0000
  O   O14       1.0  0.1793456421274158  0.5958923395123463  0.3039275940103608  1.0000
  O   O15       1.0  0.3206506785094589  0.4041083997009025  0.8039283657330434  1.0000
  O   O16       1.0  0.8206468588233805  0.40411297760091003  0.6960696932428052  1.0000
