data_image0
_chemical_formula_structural       Sm2H26C32O22
_chemical_formula_sum              "Sm2 H26 C32 O22"
_cell_length_a       6.731164204737353
_cell_length_b       10.843083813625539
_cell_length_c       11.516446675381676
_cell_angle_alpha    94.34289608678544
_cell_angle_beta     100.04323293927978
_cell_angle_gamma    94.71159496296868

_space_group_name_H-M_alt    "P 1"
_space_group_IT_number       1

loop_
  _space_group_symop_operation_xyz
  'x, y, z'

loop_
  _atom_site_type_symbol
  _atom_site_label
  _atom_site_symmetry_multiplicity
  _atom_site_fract_x
  _atom_site_fract_y
  _atom_site_fract_z
  _atom_site_occupancy
  Sm  Sm1       1.0  0.08240735689508229  0.764718390086024  0.5005308344938657  1.0000
  Sm  Sm2       1.0  0.9175921775123114  0.2352822348943065  0.4994689678683244  1.0000
  H   H1        1.0  0.7726718112996382  0.545552398645775  0.5195301924950543  1.0000
  H   H2        1.0  0.22732905470419248  0.45444728054277317  0.48046968587797784  1.0000
  H   H3        1.0  0.9354508761085611  0.5483178044370477  0.6324500259452678  1.0000
  H   H4        1.0  0.06454980668917189  0.45168094815576854  0.3675506382751834  1.0000
  H   H5        1.0  0.3048762440007451  0.9702867798009152  0.6891864953339066  1.0000
  H   H6        1.0  0.6951172670576043  0.0297139117789413  0.31081267609017976  1.0000
  H   H7        1.0  0.23823295991276444  0.025296995764790615  0.5644066736305364  1.0000
  H   H8        1.0  0.7617602026639219  0.9747018375312637  0.43559233434618255  1.0000
  H   H9        1.0  0.5302150489643296  0.7578019685701349  0.4169493148876527  1.0000
  H   H10       1.0  0.46978263112414714  0.2421968147762712  0.5830501662926438  1.0000
  H   H11       1.0  0.48197012172659026  0.8656469819089878  0.5052372052479939  1.0000
  H   H12       1.0  0.5180307711730165  0.1343526896410765  0.4947600704117151  1.0000
  H   H13       1.0  0.21924101217627617  0.7914691659258323  0.8413149990330595  1.0000
  H   H14       1.0  0.780755841107741  0.2085333557303883  0.15868638644966643  1.0000
  H   H15       1.0  0.4977158945720674  0.7346616744186818  0.16697992524895974  1.0000
  H   H16       1.0  0.5022893236679735  0.2653370231321616  0.8330194770328492  1.0000
  H   H17       1.0  0.2151549405663076  0.6270775599349888  0.014976505064019782  1.0000
  H   H18       1.0  0.7848576595149837  0.3729201175860624  0.9850210014534045  1.0000
  H   H19       1.0  0.1481081571369671  0.3963318659917831  0.002039646368437786  1.0000
  H   H20       1.0  0.8519002739141969  0.6036677197627043  0.9979575503927907  1.0000
  H   H21       1.0  0.2849671307640378  0.24803240566998852  0.32139166001537944  1.0000
  H   H22       1.0  0.7150368942593632  0.751968176999192  0.6786112182637113  1.0000
  H   H23       1.0  0.15116359919465344  0.8850586251308176  0.131780459327878  1.0000
  H   H24       1.0  0.8488299118637032  0.11494206644903933  0.8682187120962156  1.0000
  H   H25       1.0  0.35063921184838154  0.19662166689201407  0.9565170689824073  1.0000
  H   H26       1.0  0.6493601214224114  0.8033780365849028  0.04348525436941493  1.0000
  C   C1        1.0  0.557794219347187  0.4346969478841558  0.22584752457213855  1.0000
  C   C2        1.0  0.44220780401224163  0.5653008563707119  0.7741523480880447  1.0000
  C   C3        1.0  0.4698969745540538  0.633617096900025  0.1578955763765038  1.0000
  C   C4        1.0  0.5301082347207213  0.3663816031969773  0.8421046934764151  1.0000
  C   C5        1.0  0.3103444375020673  0.5729966609037761  0.07407998526905861  1.0000
  C   C6        1.0  0.689667353705282  0.4270047498347581  0.9259176904085892  1.0000
  C   C7        1.0  0.5979069768929577  0.5647792518883605  0.2307832401520429  1.0000
  C   C8        1.0  0.4020980581409931  0.43521851906674425  0.769216947977192  1.0000
  C   C9        1.0  0.39291857465406826  0.3734882337120028  0.14372786528983283  1.0000
  C   C10       1.0  0.6070836050156674  0.6265105047770947  0.8562738242362471  1.0000
  C   C11       1.0  0.2741490807122702  0.4441385617563896  0.06645593732648081  1.0000
  C   C12       1.0  0.725855007067942  0.5558620030896435  0.9335408679548537  1.0000
  C   C13       1.0  0.2794945986205875  0.18794252953774307  0.24052509642348954  1.0000
  C   C14       1.0  0.7205032377782034  0.8120571880428923  0.7594762016227039  1.0000
  C   C15       1.0  0.20222649827508124  0.9832156201317517  0.13342954311824684  1.0000
  C   C16       1.0  0.7977685365510467  0.016785049705895  0.8665680508981525  1.0000
  C   C17       1.0  0.2547990026476016  0.033094939750689896  0.0330968311781845  1.0000
  C   C18       1.0  0.7451958310419259  0.96690480858355  0.9669032838278542  1.0000
  C   C19       1.0  0.3315613716713415  0.23837945395370494  0.1405368381923751  1.0000
  C   C20       1.0  0.6684406337575695  0.7616183553934948  0.8594647696100212  1.0000
  C   C21       1.0  0.2101000446770342  0.06207390134834871  0.23638835057399632  1.0000
  C   C22       1.0  0.7898951554246666  0.9379277001773618  0.7636101927371969  1.0000
  C   C23       1.0  0.3138502446269626  0.16041730357850534  0.036416840403035215  1.0000
  C   C24       1.0  0.6861476097023457  0.8395824089098056  0.9635827225009452  1.0000
  C   C25       1.0  0.2537205450590605  0.9569261461397931  0.9200075791424782  1.0000
  C   C26       1.0  0.7462759418127762  0.0430745223249573  0.07999537803509331  1.0000
  C   C27       1.0  0.13953459999947881  0.015659836997102196  0.34263238197232243  1.0000
  C   C28       1.0  0.8604612257700738  0.9843371047153866  0.6573667780260737  1.0000
  C   C29       1.0  0.6839849093311656  0.36721407883602813  0.3157124579858959  1.0000
  C   C30       1.0  0.31601745354466  0.6327855862488079  0.6842884456927651  1.0000
  C   C31       1.0  0.77591164145538  0.633576511321536  0.3129141130031314  1.0000
  C   C32       1.0  0.2240903729387895  0.36642129547949753  0.6870866272281548  1.0000
  O   O1        1.0  0.861895410193931  0.6043360969738671  0.5803016320102046  1.0000
  O   O2        1.0  0.13810527260380917  0.39566265561894204  0.41969903221024657  1.0000
  O   O3        1.0  0.29889622251616293  0.954858165254173  0.6019693701035324  1.0000
  O   O4        1.0  0.7011004744575402  0.045143422167818414  0.3980301985132897  1.0000
  O   O5        1.0  0.42191446013006145  0.7895439590100681  0.45687714411304375  1.0000
  O   O6        1.0  0.5780850832425982  0.21045666342409666  0.5431217906780361  1.0000
  O   O7        1.0  0.13666867880662892  0.0977730218706654  0.4296640806366271  1.0000
  O   O8        1.0  0.8633259627115493  0.9022258024139946  0.5703376877879409  1.0000
  O   O9        1.0  0.0882089169326292  0.9014788977079535  0.3444266474090513  1.0000
  O   O10       1.0  0.9117887631558403  0.09851988563845988  0.6555728337712381  1.0000
  O   O11       1.0  0.20621427530844727  0.8355186491454843  0.9212412131562006  1.0000
  O   O12       1.0  0.7937805494158142  0.16448110173491412  0.07875976942094103  1.0000
  O   O13       1.0  0.29759731804023193  0.0056458431819806035  0.8326404862792884  1.0000
  O   O14       1.0  0.7023931454825671  0.9943548918822886  0.1673618399601793  1.0000
  O   O15       1.0  0.7670911807217778  0.2700826577311161  0.28561026030811837  1.0000
  O   O16       1.0  0.232912531680995  0.7299160564696051  0.7143889842391645  1.0000
  O   O17       1.0  0.708924120718848  0.40791947995757033  0.4242629810884751  1.0000
  O   O18       1.0  0.2910784074325505  0.5920811168153293  0.5757388718849796  1.0000
  O   O19       1.0  0.9536150353608406  0.5975803099167719  0.32462871002808674  1.0000
  O   O20       1.0  0.04638583064298982  0.4024193692717831  0.6753711683449455  1.0000
  O   O21       1.0  0.7442157650040712  0.7327332770326862  0.3719749497032653  1.0000
  O   O22       1.0  0.2557849267589205  0.2672654730139641  0.628024846946076  1.0000
