data_image0
_chemical_formula_structural       Cd2H32C40S2N4O16
_chemical_formula_sum              "Cd2 H32 C40 S2 N4 O16"
_cell_length_a       8.127257421596177
_cell_length_b       10.19237533622889
_cell_length_c       12.954329627835774
_cell_angle_alpha    92.85107714960323
_cell_angle_beta     94.27058378937524
_cell_angle_gamma    107.82262956521647

_space_group_name_H-M_alt    "P 1"
_space_group_IT_number       1

loop_
  _space_group_symop_operation_xyz
  'x, y, z'

loop_
  _atom_site_type_symbol
  _atom_site_label
  _atom_site_symmetry_multiplicity
  _atom_site_fract_x
  _atom_site_fract_y
  _atom_site_fract_z
  _atom_site_occupancy
  Cd  Cd1       1.0  0.21986753917901317  0.12046658751360438  0.504190717299366  1.0000
  Cd  Cd2       1.0  0.7801322011443831  0.879527782676597  0.495807328024668  1.0000
  H   H1        1.0  0.1376701545221692  0.3901163884254544  0.012111873948434495  1.0000
  H   H2        1.0  0.8623355840860539  0.6098873030722842  0.9878860357993062  1.0000
  H   H3        1.0  0.5740596722193558  0.1880582091649217  0.46450810157041633  1.0000
  H   H4        1.0  0.42593903577706976  0.8119372188264575  0.5354929838986635  1.0000
  H   H5        1.0  0.4974774762216044  0.3138187677644949  0.4453015665768163  1.0000
  H   H6        1.0  0.5025178920827855  0.6861745829161803  0.5547007788939453  1.0000
  H   H7        1.0  0.6926830325515922  0.3375276711421833  0.8201634974393315  1.0000
  H   H8        1.0  0.3073039279059842  0.662476956006344  0.1798431342049156  1.0000
  H   H9        1.0  0.49078923996959395  0.3356386735348947  0.6665706591788378  1.0000
  H   H10       1.0  0.509200377684543  0.6643659443205507  0.33343307190682475  1.0000
  H   H11       1.0  0.2443422797305033  0.91442607909309  0.6695012855296697  1.0000
  H   H12       1.0  0.7556571307213531  0.08557756666821349  0.3304984885034585  1.0000
  H   H13       1.0  0.43625969125902486  0.8962830875944969  0.8233705261346387  1.0000
  H   H14       1.0  0.5637333010836086  0.10372053213583848  0.17663265135846729  1.0000
  H   H15       1.0  0.6698331247029117  0.004355574170155298  0.9548536934325043  1.0000
  H   H16       1.0  0.3301650834962189  0.9956522343863342  0.0451507230984305  1.0000
  H   H17       1.0  0.885437510951206  0.30467987446326816  0.9229638011008916  1.0000
  H   H18       1.0  0.11456951127885867  0.6953238222406667  0.07703342795485918  1.0000
  H   H19       1.0  0.3630423478503602  0.402779427540132  0.1379281585317074  1.0000
  H   H20       1.0  0.6369642981355029  0.5972263012977094  0.8620675438364529  1.0000
  H   H21       1.0  0.33569547389237187  0.21145336438130607  0.2589248701523559  1.0000
  H   H22       1.0  0.6643167641941901  0.7885545211487752  0.7410735979412236  1.0000
  H   H23       1.0  0.059414993201187406  0.011542028169479598  0.23999594916536884  1.0000
  H   H24       1.0  0.9405964274605908  0.9884638003150312  0.7600031871331935  1.0000
  H   H25       1.0  0.8306091336187436  0.0014797016506165007  0.09789114727420409  1.0000
  H   H26       1.0  0.1693979600004595  0.998525097471635  0.9021115195837908  1.0000
  H   H27       1.0  0.24381822537765166  0.6267886591814997  0.48253909240909104  1.0000
  H   H28       1.0  0.7561827535911618  0.3732057260676314  0.5174590418102412  1.0000
  H   H29       1.0  0.889539209941006  0.7302938346288812  0.2604858081919659  1.0000
  H   H30       1.0  0.110461724051369  0.269700560472991  0.7395130956146616  1.0000
  H   H31       1.0  0.9050006981867682  0.3117548013397666  0.2656493913761153  1.0000
  H   H32       1.0  0.09499960826653361  0.6882405628886515  0.7343456262898798  1.0000
  C   C1        1.0  0.5861312881326415  0.1156077761865717  0.8342593883280003  1.0000
  C   C2        1.0  0.4138637153037551  0.8843979255010055  0.16574397944272326  1.0000
  C   C3        1.0  0.5977775211876732  0.24042166473832083  0.7890210632481356  1.0000
  C   C4        1.0  0.40221375633250744  0.7595809261894004  0.2109835138331135  1.0000
  C   C5        1.0  0.48489604337769526  0.24066137585639782  0.7034610605650612  1.0000
  C   C6        1.0  0.5150973801655425  0.7593432674703563  0.2965413980319056  1.0000
  C   C7        1.0  0.3462472084911568  0.0051081910747399  0.7055630696898021  1.0000
  C   C8        1.0  0.6537492134963826  0.994897486260818  0.2944373086270318  1.0000
  C   C9        1.0  0.45392893743198215  0.996330588189913  0.7915106682401714  1.0000
  C   C10       1.0  0.5460666121743645  0.003669976369742801  0.208492623865375  1.0000
  C   C11       1.0  0.7041596005397677  0.10437166486623543  0.9212505732337988  1.0000
  C   C12       1.0  0.2958395500334703  0.8956351055945503  0.07875234232668758  1.0000
  C   C13       1.0  0.8502533269979792  0.2060637413289541  0.9580627110613519  1.0000
  C   C14       1.0  0.1497465146544883  0.7939409280287604  0.041936344075629996  1.0000
  C   C15       1.0  0.971357651904242  0.1968351515511628  0.043069969079063186  1.0000
  C   C16       1.0  0.028646668152830942  0.8031685642985948  0.9569309301225744  1.0000
  C   C17       1.0  0.24841386077139302  0.3117352816973309  0.134133614420989  1.0000
  C   C18       1.0  0.751589821766636  0.6882663376959002  0.8658648746364364  1.0000
  C   C19       1.0  0.23136042792982178  0.20562011113094059  0.1993494405125347  1.0000
  C   C20       1.0  0.7686489916181783  0.7943867009793876  0.8006480295119829  1.0000
  C   C21       1.0  0.07843595123803478  0.093526239769659  0.1868583807982205  1.0000
  C   C22       1.0  0.9215711973375846  0.9064816150829172  0.8131420404760448  1.0000
  C   C23       1.0  0.9498038396257514  0.08824291890951488  0.108165216564494  1.0000
  C   C24       1.0  0.05020578624068854  0.9117649660609215  0.891835382500382  1.0000
  C   C25       1.0  0.15596678563233005  0.35740166143165186  0.42924457984968  1.0000
  C   C26       1.0  0.844034669513519  0.6425937375611637  0.5707520658862109  1.0000
  C   C27       1.0  0.08545925085262235  0.46029183149452974  0.3780192142996412  1.0000
  C   C28       1.0  0.9145420693639326  0.5397035970565014  0.6219797401981424  1.0000
  C   C29       1.0  0.14671764516241126  0.5984082994114954  0.41629689064397  1.0000
  C   C30       1.0  0.8532804702914021  0.4015850222706234  0.5837010150936024  1.0000
  C   C31       1.0  0.0784983338036653  0.6964252794816872  0.37444829065398716  1.0000
  C   C32       1.0  0.9215013615432995  0.3035691005612549  0.625550524257342  1.0000
  C   C33       1.0  0.14383517676497357  0.8420411947927918  0.4204944360184157  1.0000
  C   C34       1.0  0.8561620412911707  0.15795315513228295  0.5795042011023099  1.0000
  C   C35       1.0  0.9468874783170803  0.6555532395932389  0.2921631531288327  1.0000
  C   C36       1.0  0.05311178582928017  0.34444011685327774  0.7078363806786426  1.0000
  C   C37       1.0  0.8881869185438943  0.5176778408595766  0.25232383626395455  1.0000
  C   C38       1.0  0.11181187940540133  0.48231756742632836  0.7476757100305277  1.0000
  C   C39       1.0  0.9553455128080229  0.41970622162621396  0.2952920246740263  1.0000
  C   C40       1.0  0.04465551113722196  0.5802881537701764  0.7047053399580037  1.0000
  S   S1        1.0  0.7284068214231426  0.4644209816643609  0.142795716758819  1.0000
  S   S2        1.0  0.27159151032908824  0.5355764784609249  0.8572038420226704  1.0000
  N   N1        1.0  0.362435807503104  0.12484044427073827  0.6613549712618436  1.0000
  N   N2        1.0  0.6375606494808891  0.8751621576290132  0.33864611346411516  1.0000
  N   N3        1.0  0.1202406863127763  0.3052265805272327  0.060239472057169494  1.0000
  N   N4        1.0  0.8797650522954399  0.6947771109705057  0.9397584376905783  1.0000
  O   O1        1.0  0.2901889474840686  0.3988791050090228  0.4928027308927127  1.0000
  O   O2        1.0  0.709815802377392  0.6011183811472305  0.5071934244287988  1.0000
  O   O3        1.0  0.07095702249097256  0.22904523500326943  0.40514928006508205  1.0000
  O   O4        1.0  0.9290442527491437  0.7709502034004956  0.5948504440200111  1.0000
  O   O5        1.0  0.050547200841350594  0.9220137009389759  0.4015278380495316  1.0000
  O   O6        1.0  0.9494510495417644  0.0779795911849277  0.598467758926148  1.0000
  O   O7        1.0  0.28702462223409947  0.8854440600045377  0.4764546244130088  1.0000
  O   O8        1.0  0.7129707110738366  0.11455236611194405  0.5235470146486207  1.0000
  O   O9        1.0  0.6248525348529199  0.5591439813826398  0.1450181906413022  1.0000
  O   O10       1.0  0.3751403461806718  0.44084627359710993  0.8549854530352833  1.0000
  O   O11       1.0  0.8351355638053305  0.48087675188555307  0.052627225144348665  1.0000
  O   O12       1.0  0.1648609831315326  0.519125830308731  0.9473723204070126  1.0000
  O   O13       1.0  0.6335050455962163  0.3195614724127509  0.1531688729235512  1.0000
  O   O14       1.0  0.36649921810823116  0.6804319344167524  0.846830246877829  1.0000
  O   O15       1.0  0.4797371428802109  0.2159003757689888  0.4261848258717507  1.0000
  O   O16       1.0  0.520262893714495  0.7840950475758461  0.57381480931803  1.0000
