data_image0
_chemical_formula_structural       Zn16H90C150N2O56
_chemical_formula_sum              "Zn16 H90 C150 N2 O56"
_cell_length_a       18.535367614021247
_cell_length_b       20.306215717976254
_cell_length_c       20.944249670315426
_cell_angle_alpha    70.61327668551925
_cell_angle_beta     69.38917539814808
_cell_angle_gamma    68.35320784956312

_space_group_name_H-M_alt    "P 1"
_space_group_IT_number       1

loop_
  _space_group_symop_operation_xyz
  'x, y, z'

loop_
  _atom_site_type_symbol
  _atom_site_label
  _atom_site_symmetry_multiplicity
  _atom_site_fract_x
  _atom_site_fract_y
  _atom_site_fract_z
  _atom_site_occupancy
  Zn  Zn1       1.0  0.36288002628014493  0.21050103120273175  0.5303692033434046  1.0000
  Zn  Zn2       1.0  0.3840554859267869  0.35843115333804576  0.5348169182633952  1.0000
  Zn  Zn3       1.0  0.21439346110173577  0.3514439496350831  0.5362310886980808  1.0000
  Zn  Zn4       1.0  0.3605795795589445  0.34261263628826544  0.39641635338333  1.0000
  Zn  Zn5       1.0  0.8011725666720652  0.7941375571498523  0.10236684205379734  1.0000
  Zn  Zn6       1.0  0.8089077095299901  0.9211201339605418  0.9662683210144609  1.0000
  Zn  Zn7       1.0  0.9468746427119756  0.7760046501393204  0.9658645915843777  1.0000
  Zn  Zn8       1.0  0.7764965715290374  0.7703611245912967  0.9624424651854113  1.0000
  Zn  Zn9       1.0  0.6371191823517749  0.7894997131388024  0.46963367803314077  1.0000
  Zn  Zn10      1.0  0.6159461081143719  0.6415674101193076  0.46518114030821783  1.0000
  Zn  Zn11      1.0  0.7856039868011779  0.6485567900306393  0.4637675764117192  1.0000
  Zn  Zn12      1.0  0.6394173916787196  0.6573859222454602  0.6035812590063258  1.0000
  Zn  Zn13      1.0  0.1988261126995425  0.20586482003702133  0.8976337680357104  1.0000
  Zn  Zn14      1.0  0.19108923709787015  0.07887679360896269  0.03373507949111602  1.0000
  Zn  Zn15      1.0  0.053124878260064214  0.22399500142221734  0.03413377025633221  1.0000
  Zn  Zn16      1.0  0.22350719197036997  0.22963416974600648  0.03755357864938699  1.0000
  H   H1        1.0  0.4523927224994538  0.3991739448415358  0.244827656479309  1.0000
  H   H2        1.0  0.4466854904572842  0.32254829549923864  0.25841879771474646  1.0000
  H   H3        1.0  0.2440664541069424  0.06297787245872397  0.6712760691427775  1.0000
  H   H4        1.0  0.46450999425053435  0.5439367683892795  0.431832838641256  1.0000
  H   H5        1.0  0.9348693505227319  0.059203891207147294  0.8379353749695324  1.0000
  H   H6        1.0  0.6299293810628728  0.6843353075486006  0.24958531093439268  1.0000
  H   H7        1.0  0.5417305576231045  0.4473112420466874  0.25554138550231903  1.0000
  H   H8        1.0  0.5383521954123794  0.6362130375699024  0.36066654164884693  1.0000
  H   H9        1.0  0.8733664277547109  0.6165915596446677  0.8389680816686678  1.0000
  H   H10       1.0  0.9343936948766329  0.6820212972201103  0.2497935011272857  1.0000
  H   H11       1.0  0.07410401742058076  0.4672346745600817  0.6859055824506939  1.0000
  H   H12       1.0  0.595767936400229  0.9549989989021906  0.36510415454240086  1.0000
  H   H13       1.0  0.5007376589921082  0.04764386883152129  0.4327817959618157  1.0000
  H   H14       1.0  0.04347215799376872  0.5204509979990632  0.4417932518958381  1.0000
  H   H15       1.0  0.13990318701534224  0.8699298693378309  0.839682468019518  1.0000
  H   H16       1.0  0.957303239076822  0.6177577491817985  0.3681821613943869  1.0000
  H   H17       1.0  0.6824585264282704  0.09318262215159479  0.060531706320631457  1.0000
  H   H18       1.0  0.5945859198526122  0.18726246352221657  0.1292418297384685  1.0000
  H   H19       1.0  0.6732975702510235  0.9236749870606001  0.2492143935490532  1.0000
  H   H20       1.0  0.22899024389440836  0.9440481363855465  0.7516125076703516  1.0000
  H   H21       1.0  0.5113486053122073  0.2169628811569169  0.24299306128910564  1.0000
  H   H22       1.0  0.12569438072534922  0.6440083539960992  0.06514437020574354  1.0000
  H   H23       1.0  0.09693124622828012  0.6383554115460297  0.8344319051351048  1.0000
  H   H24       1.0  0.21710769466568544  0.5551905718978887  0.13894942354966133  1.0000
  H   H25       1.0  0.23521200736834663  0.4815424466375973  0.25719795498704195  1.0000
  H   H26       1.0  0.22591867178154967  0.5747647386177658  0.7594028225993837  1.0000
  H   H27       1.0  0.9459677274733805  0.5306743068003144  0.7597834091449229  1.0000
  H   H28       1.0  0.2972504915629558  0.49553005631894803  0.6741787659004643  1.0000
  H   H29       1.0  0.9501384182733473  0.17826595045934818  0.7574487944949269  1.0000
  H   H30       1.0  0.7150216986202694  0.5825954623246615  0.076599208838502  1.0000
  H   H31       1.0  0.5627504030495346  0.9508168804891708  0.734887575469152  1.0000
  H   H32       1.0  0.037476222791610836  0.25106926667182705  0.665540232463705  1.0000
  H   H33       1.0  0.505910515964466  0.06904802991989807  0.6591809486772816  1.0000
  H   H34       1.0  0.6347981240169107  0.4942662177466914  0.14475500319140613  1.0000
  H   H35       1.0  0.5627601599006767  0.2613065944264008  0.6454770656007723  1.0000
  H   H36       1.0  0.702330243248916  0.0717651318030192  0.8071223605427633  1.0000
  H   H37       1.0  0.6460146281961843  0.8799427895633368  0.8206812930736335  1.0000
  H   H38       1.0  0.648509887390084  0.18977036573438252  0.7277077924969076  1.0000
  H   H39       1.0  0.7535401617266759  0.6396189353198024  0.9444525085454529  1.0000
  H   H40       1.0  0.6357287139056212  0.5678401420839022  0.9162764194394839  1.0000
  H   H41       1.0  0.6889972190190577  0.6060917224911647  0.8313479987522925  1.0000
  H   H42       1.0  0.7381659715539685  0.5647343431543348  0.9008878829723912  1.0000
  H   H43       1.0  0.5967467839734584  0.7474147969535136  0.8321281614828139  1.0000
  H   H44       1.0  0.5372296794612624  0.6938441144920018  0.8997866198532591  1.0000
  H   H45       1.0  0.5614287004834255  0.7623987552599373  0.9188304681808572  1.0000
  H   H46       1.0  0.5476022976372192  0.6008235234435232  0.7551723584867888  1.0000
  H   H47       1.0  0.5533074630050194  0.6774502615557623  0.7415824732142156  1.0000
  H   H48       1.0  0.7559320810929863  0.9370196045122011  0.3287314256630367  1.0000
  H   H49       1.0  0.535479277740386  0.45607159261203384  0.568165466597641  1.0000
  H   H50       1.0  0.06513013944475425  0.9407941287244129  0.16206782229332362  1.0000
  H   H51       1.0  0.37007337827128584  0.3156632581382937  0.7504142882233609  1.0000
  H   H52       1.0  0.4582639820050079  0.5526933120143124  0.7444607838191429  1.0000
  H   H53       1.0  0.4616458917206004  0.3637893375035758  0.6393318691069467  1.0000
  H   H54       1.0  0.12663348531376079  0.38341408369744545  0.16102535085644828  1.0000
  H   H55       1.0  0.06560430147085582  0.3179778115975295  0.7502102933508468  1.0000
  H   H56       1.0  0.9258951154435239  0.5327644334912093  0.31409546549162565  1.0000
  H   H57       1.0  0.40423191210769016  0.0449941136062861  0.6348947890577462  1.0000
  H   H58       1.0  0.4992596995623729  0.9523497852750038  0.5672158498870841  1.0000
  H   H59       1.0  0.9565231004755292  0.47954756085199784  0.5582072894303349  1.0000
  H   H60       1.0  0.8600928582311483  0.13006814923114254  0.1603237290350562  1.0000
  H   H61       1.0  0.04269267460941256  0.3822424467413937  0.6318205073121915  1.0000
  H   H62       1.0  0.3175485647816957  0.9068186718702691  0.9394665940921028  1.0000
  H   H63       1.0  0.4054214782719259  0.8127361087526805  0.8707605973356463  1.0000
  H   H64       1.0  0.32670377266801154  0.0763224844992436  0.7507812332749565  1.0000
  H   H65       1.0  0.7710120141647039  0.055946617205116  0.24839182688317857  1.0000
  H   H66       1.0  0.488653117091836  0.7830335046133355  0.7570080492836198  1.0000
  H   H67       1.0  0.874298771264016  0.35599510893374015  0.9348581139039281  1.0000
  H   H68       1.0  0.9030682619542533  0.36164423868400764  0.1655645513180701  1.0000
  H   H69       1.0  0.7828867923673573  0.44481779614044814  0.861051527204907  1.0000
  H   H70       1.0  0.7647870729006955  0.5184604753910377  0.742801874388384  1.0000
  H   H71       1.0  0.7740809711586181  0.42523273459092076  0.24059763854866392  1.0000
  H   H72       1.0  0.05403352225390286  0.4693253461082704  0.2402144054936883  1.0000
  H   H73       1.0  0.7027478769055834  0.5044695943445633  0.3258199607416401  1.0000
  H   H74       1.0  0.04986161597213373  0.8217320665924672  0.24254945689839502  1.0000
  H   H75       1.0  0.2849815237985212  0.4173998352252679  0.9234022572127074  1.0000
  H   H76       1.0  0.43725217694181856  0.0491767813201278  0.2651136685891871  1.0000
  H   H77       1.0  0.9625255721828697  0.7489287550557931  0.3344622351963551  1.0000
  H   H78       1.0  0.4940881968179483  0.9309505312923818  0.34081802189782445  1.0000
  H   H79       1.0  0.36519973117819415  0.5057350674265348  0.8552438338980791  1.0000
  H   H80       1.0  0.437239094931563  0.7386903352720322  0.35452608164889915  1.0000
  H   H81       1.0  0.2976681380091223  0.9282345201919923  0.19287827148686904  1.0000
  H   H82       1.0  0.3539915224727893  0.1200541435260334  0.17931680728635507  1.0000
  H   H83       1.0  0.35149076147565245  0.8102276557609612  0.27229599265831445  1.0000
  H   H84       1.0  0.24646085926011102  0.3603796280214127  0.05554620877374114  1.0000
  H   H85       1.0  0.3642713363267378  0.43215787663229577  0.08372421368825658  1.0000
  H   H86       1.0  0.311003986914173  0.39390629745594197  0.16865274592093027  1.0000
  H   H87       1.0  0.2618344795758247  0.4352642204036171  0.09911196944126742  1.0000
  H   H88       1.0  0.4032505013646458  0.25258648843645654  0.1678718107011363  1.0000
  H   H89       1.0  0.4627727785619698  0.3061517256701477  0.10021252489773502  1.0000
  H   H90       1.0  0.4385692328857474  0.2375987185989671  0.08117339825059136  1.0000
  C   C1        1.0  0.4530762993959386  0.4364711958618414  0.3899848150547811  1.0000
  C   C2        1.0  0.9378965999264323  0.6841236724046595  0.8878258124035769  1.0000
  C   C3        1.0  0.9781461863192507  0.9170857065473754  0.8947165307866172  1.0000
  C   C4        1.0  0.19858674559957018  0.20456692168229298  0.6101419314325653  1.0000
  C   C5        1.0  0.17983043393508782  0.08746390004494492  0.6906849370504203  1.0000
  C   C6        1.0  0.49775992592965695  0.5441327758526241  0.37730624402689017  1.0000
  C   C7        1.0  0.4980777266720864  0.49092348305197203  0.3469460822290955  1.0000
  C   C8        1.0  0.9991736573839347  0.0349194577847385  0.8183570192856491  1.0000
  C   C9        1.0  0.6298197733182677  0.6430710333040108  0.22708084709140763  1.0000
  C   C10       1.0  0.5408441045878902  0.48903721442727005  0.27804997076841437  1.0000
  C   C11       1.0  0.9819069437515541  0.6316999828602546  0.8413138601000726  1.0000
  C   C12       1.0  0.1318954864766155  0.0444326319652006  0.7424390419917087  1.0000
  C   C13       1.0  0.583921017679323  0.5937191813670991  0.26740413943211655  1.0000
  C   C14       1.0  0.1461740750046516  0.16059072585620973  0.6637323783745542  1.0000
  C   C15       1.0  0.5387104271390157  0.5949288973523679  0.3379183669736037  1.0000
  C   C16       1.0  0.0473279104068212  0.07803859236590678  0.7670607855409415  1.0000
  C   C17       1.0  0.9386815839832322  0.6013013780577552  0.8201071987064736  1.0000
  C   C18       1.0  0.03227869264706137  0.9612768371997759  0.8434832417702792  1.0000
  C   C19       1.0  0.04642832120600815  0.6043607082054405  0.26971999156038623  1.0000
  C   C20       1.0  0.9964915059392965  0.6544555682375799  0.22636929081519966  1.0000
  C   C21       1.0  0.10651549079977227  0.4907417462682774  0.7026816851800674  1.0000
  C   C22       1.0  0.576657958637611  0.012266610739636996  0.33858680983608735  1.0000
  C   C23       1.0  0.5243215118516389  0.06313351162924617  0.37617217080678955  1.0000
  C   C24       1.0  0.4993169473327726  0.13770019885200918  0.34149294105326794  1.0000
  C   C25       1.0  0.6057884415936317  0.03301254577459639  0.2644439489319622  1.0000
  C   C26       1.0  0.14390815582864042  0.49473874619034314  0.35282599454225055  1.0000
  C   C27       1.0  0.06395039237705193  0.5365699125050085  0.7500384442910217  1.0000
  C   C28       1.0  0.06533724316011563  0.5340737791334149  0.38486888323532037  1.0000
  C   C29       1.0  0.4420082202521913  0.19123798193563596  0.38378088171435815  1.0000
  C   C30       1.0  0.11583996112521082  0.9280100329738871  0.8189944910056394  1.0000
  C   C31       1.0  0.018023477569975906  0.58786489732055  0.3441171038344563  1.0000
  C   C32       1.0  0.6601494664355203  0.07823773803291799  0.11734237388438372  1.0000
  C   C33       1.0  0.6759678831486794  0.6388674171496973  0.15948428086010588  1.0000
  C   C34       1.0  0.6116533139351858  0.12964453476612897  0.15542618612229123  1.0000
  C   C35       1.0  0.23186168871011156  0.4284642791282848  0.6255279935230575  1.0000
  C   C36       1.0  0.02469928880807264  0.6670507017035945  0.15407597299564915  1.0000
  C   C37       1.0  0.7243916040529398  0.6913111322769367  0.11735533369648729  1.0000
  C   C38       1.0  0.19428484174927976  0.43463857314404203  0.39653638453238227  1.0000
  C   C39       1.0  0.6557790004736862  0.9813976781979289  0.22386264358475225  1.0000
  C   C40       1.0  0.6817090727132467  0.0033561913704218994  0.151680948039143  1.0000
  C   C41       1.0  0.1645616346393839  0.9689977180308628  0.7701858803910256  1.0000
  C   C42       1.0  0.18918301100458734  0.4761236163667774  0.6762442820150056  1.0000
  C   C43       1.0  0.5821362326802132  0.1085749558052598  0.22944806247176786  1.0000
  C   C44       1.0  0.7308454638392023  0.9481043288857404  0.10870407926105947  1.0000
  C   C45       1.0  0.5289257328278723  0.15968800883232598  0.26960936002156194  1.0000
  C   C46       1.0  0.9691363295264072  0.7154771470072985  0.1090658277990075  1.0000
  C   C47       1.0  0.10539442075849341  0.6319360638852771  0.12219887778684324  1.0000
  C   C48       1.0  0.06496784652043172  0.6142411379661822  0.8176639447478068  1.0000
  C   C49       1.0  0.15528153389719537  0.5830044768780949  0.1630715557131808  1.0000
  C   C50       1.0  0.10791321127948811  0.5673191033482324  0.7712039009726793  1.0000
  C   C51       1.0  0.12695623078208493  0.5664662127210105  0.2374338642966833  1.0000
  C   C52       1.0  0.5855782378338078  0.5390877598692185  0.23708283284163656  1.0000
  C   C53       1.0  0.17435949347859753  0.5118157910815454  0.28061096820654546  1.0000
  C   C54       1.0  0.1927549087764505  0.5511517086470901  0.7433769111566377  1.0000
  C   C55       1.0  0.9788618470061511  0.5543134236506758  0.7760938518081986  1.0000
  C   C56       1.0  0.23257009598339815  0.5071490350808361  0.6965526907806492  1.0000
  C   C57       1.0  0.014465442669369112  0.15318267084195009  0.7385726161647952  1.0000
  C   C58       1.0  0.6774648131964794  0.5847893246512899  0.12964323733615393  1.0000
  C   C59       1.0  0.593710647073465  0.9770236896355299  0.750458598465137  1.0000
  C   C60       1.0  0.5852212354501847  0.052720173499622484  0.7216683629845803  1.0000
  C   C61       1.0  0.4740146030304403  0.21192401472243455  0.6016264056906167  1.0000
  C   C62       1.0  0.06245010824365948  0.19366259102676509  0.6879060008525357  1.0000
  C   C63       1.0  0.528493674911644  0.16891349140153977  0.6482368085128342  1.0000
  C   C64       1.0  0.7251289489785794  0.9303540652982746  0.8717923235234082  1.0000
  C   C65       1.0  0.5372138604275065  0.09490190678333477  0.6745691590642052  1.0000
  C   C66       1.0  0.6783573728709983  0.9727407697870729  0.8182699452674527  1.0000
  C   C67       1.0  0.633305940525851  0.5361813775749054  0.16746360662216395  1.0000
  C   C68       1.0  0.5695146738209972  0.20335381864069996  0.667308583130513  1.0000
  C   C69       1.0  0.6718720807093065  0.04614280359708539  0.7904159082436948  1.0000
  C   C70       1.0  0.6256443818481545  0.08786580399140577  0.7417421571669891  1.0000
  C   C71       1.0  0.6393270670399717  0.9377983024820862  0.7975957698126805  1.0000
  C   C72       1.0  0.6170290914135637  0.16351934243194677  0.7127855539717841  1.0000
  C   C73       1.0  0.6992669315022868  0.6837597001818165  0.9344804617899739  1.0000
  C   C74       1.0  0.6810545386326227  0.5975797047499183  0.887765821534913  1.0000
  C   C75       1.0  0.5831874867312693  0.721009687568994  0.8884171873140191  1.0000
  C   C76       1.0  0.5469211644938528  0.5635295454682635  0.6100162317894372  1.0000
  C   C77       1.0  0.06210340073015175  0.3158852368604172  0.1121617600523095  1.0000
  C   C78       1.0  0.02185359856441241  0.08291503824317199  0.10528616818922387  1.0000
  C   C79       1.0  0.8014209548051031  0.7954327478161287  0.38987054893929235  1.0000
  C   C80       1.0  0.8201704788422719  0.9125352146794083  0.30932318523993985  1.0000
  C   C81       1.0  0.5022329095530013  0.4558734078255569  0.6226906843807568  1.0000
  C   C82       1.0  0.5019135554096437  0.5090821548864212  0.6530519916940208  1.0000
  C   C83       1.0  0.0008264782083600398  0.9650801982203274  0.18164687631696108  1.0000
  C   C84       1.0  0.37018095354345354  0.35693025311567067  0.7729156489539334  1.0000
  C   C85       1.0  0.45915093232677867  0.510965703459625  0.7219497063712411  1.0000
  C   C86       1.0  0.01809236507990164  0.3683111049744169  0.1586727481429335  1.0000
  C   C87       1.0  0.8681066656012464  0.9555643016426956  0.25756557498888105  1.0000
  C   C88       1.0  0.41607804020809186  0.40628373833139614  0.7325923555151234  1.0000
  C   C89       1.0  0.8538298577775766  0.8394116623622023  0.33627659339322225  1.0000
  C   C90       1.0  0.4612841275067725  0.40507728667422066  0.6620765851912935  1.0000
  C   C91       1.0  0.9526727448536649  0.9219594297951871  0.23294395230804815  1.0000
  C   C92       1.0  0.06131792818779763  0.39870372044261154  0.1798870145327243  1.0000
  C   C93       1.0  0.9677220064074846  0.038722817922803195  0.15651856604409886  1.0000
  C   C94       1.0  0.953571761791224  0.395642761776969  0.7302826854753234  1.0000
  C   C95       1.0  0.0035070268543791476  0.345547356337917  0.773635008082877  1.0000
  C   C96       1.0  0.8934816629780754  0.5092617164759118  0.2973147586558866  1.0000
  C   C97       1.0  0.42333965423637204  0.9877281355972657  0.6614137441073069  1.0000
  C   C98       1.0  0.47567915443803355  0.936860692227121  0.6238275930996124  1.0000
  C   C99       1.0  0.5006820691668424  0.862295640280429  0.6585096798363281  1.0000
  C   C100      1.0  0.3942068168756663  0.9669860130764647  0.7355565923942108  1.0000
  C   C101      1.0  0.8560916792438393  0.5052636322274323  0.6471747270927394  1.0000
  C   C102      1.0  0.9360478605181086  0.4634319171770969  0.24995913573749814  1.0000
  C   C103      1.0  0.9346598166348697  0.4659264170220607  0.6151324679760962  1.0000
  C   C104      1.0  0.5579941605661604  0.8087600412396297  0.6162228325856559  1.0000
  C   C105      1.0  0.8841598571692728  0.0719868958420591  0.18100656845579985  1.0000
  C   C106      1.0  0.9819726114705679  0.41213475420990153  0.6558861631855064  1.0000
  C   C107      1.0  0.33985514761051416  0.9217640989184942  0.8826565341646457  1.0000
  C   C108      1.0  0.32403648616998026  0.36113332856996283  0.8405131481350879  1.0000
  C   C109      1.0  0.3883487129771694  0.8703545768617431  0.844575855204077  1.0000
  C   C110      1.0  0.7681334389900486  0.5715419050144489  0.3744662998942587  1.0000
  C   C111      1.0  0.9752989626500298  0.3329549472818768  0.8459280100161165  1.0000
  C   C112      1.0  0.2756163909446627  0.3086836231408725  0.8826433660749942  1.0000
  C   C113      1.0  0.8057109929717684  0.5653599861560324  0.603463974393094  1.0000
  C   C114      1.0  0.3442226725326664  0.018602521882542095  0.7761377247679632  1.0000
  C   C115      1.0  0.31829555092491574  0.9966456465796223  0.8483193890505376  1.0000
  C   C116      1.0  0.8354406170249717  0.030997034894049594  0.22981750146873742  1.0000
  C   C117      1.0  0.8108154642363204  0.5238793022169473  0.32375144263917116  1.0000
  C   C118      1.0  0.41786341985208253  0.8914225184020592  0.7705538277169312  1.0000
  C   C119      1.0  0.26915776256808505  0.05189641693451818  0.8912951435761797  1.0000
  C   C120      1.0  0.47107369416129813  0.8403083761404984  0.7303939091946104  1.0000
  C   C121      1.0  0.030860388506134522  0.2845334061730965  0.890939439248676  1.0000
  C   C122      1.0  0.8946020859574871  0.36806958208877205  0.8778032706925954  1.0000
  C   C123      1.0  0.9350318218206582  0.3857634141441864  0.18232800872347346  1.0000
  C   C124      1.0  0.8447145687239727  0.41700062392131787  0.836930897133456  1.0000
  C   C125      1.0  0.8920875059901123  0.432682182072817  0.22879116603201766  1.0000
  C   C126      1.0  0.873043163587397  0.4335394361638618  0.7625683248730298  1.0000
  C   C127      1.0  0.41441794518960523  0.46091515824995344  0.762915526802864  1.0000
  C   C128      1.0  0.8256412191565659  0.4881893133099948  0.7193900254345068  1.0000
  C   C129      1.0  0.8072466852647086  0.4488468548102631  0.2566211474149753  1.0000
  C   C130      1.0  0.021137968882079975  0.4456889527698491  0.2239040117454963  1.0000
  C   C131      1.0  0.7674297127189577  0.49284789273648505  0.30344693964013914  1.0000
  C   C132      1.0  0.985537329454296  0.8468158961764443  0.26142888838048617  1.0000
  C   C133      1.0  0.3225383534298701  0.4152097865431016  0.8703565338012779  1.0000
  C   C134      1.0  0.4062911813118292  0.022970516117496193  0.24954222968052156  1.0000
  C   C135      1.0  0.41478099702991494  0.9472745774280326  0.27833216079387313  1.0000
  C   C136      1.0  0.5259900906267206  0.7880701916112824  0.3983711287171304  1.0000
  C   C137      1.0  0.937551759301265  0.8063370666582301  0.3120978238948593  1.0000
  C   C138      1.0  0.4715086173494002  0.8310828941519829  0.35176316696542637  1.0000
  C   C139      1.0  0.27488022632969233  0.06964232231467085  0.1282006996776488  1.0000
  C   C140      1.0  0.4627895715475251  0.9050944783367068  0.3254285462251264  1.0000
  C   C141      1.0  0.3216496098062863  0.027253436678321894  0.18172447780308684  1.0000
  C   C142      1.0  0.36669076536313133  0.4638199070331693  0.8325360716155997  1.0000
  C   C143      1.0  0.4304838453920469  0.7966436566658429  0.3326965299408827  1.0000
  C   C144      1.0  0.32813003300004345  0.9538541260162957  0.20958299257429758  1.0000
  C   C145      1.0  0.37435652916888534  0.9121294910967065  0.2582590857932488  1.0000
  C   C146      1.0  0.3606787791206898  0.0621959047496645  0.20240139979367197  1.0000
  C   C147      1.0  0.38297017301079717  0.8364775882651186  0.28721902231853136  1.0000
  C   C148      1.0  0.3007372464751868  0.3162415882662088  0.06551398715741637  1.0000
  C   C149      1.0  0.31894493534798585  0.4024183135172591  0.11223499399352482  1.0000
  C   C150      1.0  0.4168110666837137  0.2789894197004017  0.11158356668211412  1.0000
  N   N1        1.0  0.6551310686084264  0.6671664329324257  0.906505272384621  1.0000
  N   N2        1.0  0.3448690350101132  0.33283321974388264  0.09349385974915238  1.0000
  O   O1        1.0  0.33111367990326823  0.3163409845167705  0.49839272748703684  1.0000
  O   O2        1.0  0.829806251905325  0.815455482334961  0.9994828720685192  1.0000
  O   O3        1.0  0.0057901214901506055  0.8478638348538821  0.9043928453672548  1.0000
  O   O4        1.0  0.16384281517954952  0.4212508232367255  0.46289023442722044  1.0000
  O   O5        1.0  0.4168841448059553  0.16595686253814523  0.4492192079572916  1.0000
  O   O6        1.0  0.18889162118593827  0.4031260422296938  0.6089825841360792  1.0000
  O   O7        1.0  0.2738247679941069  0.17197260064379083  0.5921110235044081  1.0000
  O   O8        1.0  0.9078774684168637  0.952139337790683  0.9241990588484156  1.0000
  O   O9        1.0  0.30820876278095716  0.41648239504785783  0.6021509398759547  1.0000
  O   O10       1.0  0.43574018504076434  0.426450411151471  0.45643022017627294  1.0000
  O   O11       1.0  0.9807927622220304  0.7039706758117247  0.9099955893785746  1.0000
  O   O12       1.0  0.7244737150713405  0.7360142524123886  0.14857578040183486  1.0000
  O   O13       1.0  0.4626029481153753  0.28107940997399083  0.582534238654503  1.0000
  O   O14       1.0  0.7479647874712543  0.972593161655062  0.04238187412889268  1.0000
  O   O15       1.0  0.9997475832050927  0.7256367350809751  0.0429170696085423  1.0000
  O   O16       1.0  0.750824182744033  0.9671431100438637  0.8938481592254846  1.0000
  O   O17       1.0  0.43501015323699505  0.4039288223111369  0.3571740328907395  1.0000
  O   O18       1.0  0.8959888929505272  0.7414999093726277  0.14037583790808128  1.0000
  O   O19       1.0  0.7505085321839572  0.8816430358505941  0.14146314014999464  1.0000
  O   O20       1.0  0.4418786994852086  0.17656693601496437  0.584567278627567  1.0000
  O   O21       1.0  0.16503509905089692  0.2717163896604616  0.5861931288745907  1.0000
  O   O22       1.0  0.8614638835343628  0.7052754459894499  0.9011249248712543  1.0000
  O   O23       1.0  0.26390292056579073  0.4008106613345743  0.36413491213124866  1.0000
  O   O24       1.0  0.42160536037214064  0.2587968135667324  0.3520095025901142  1.0000
  O   O25       1.0  0.4512800760042311  0.36613559533505213  0.22057415559312687  1.0000
  O   O26       1.0  0.7618752776216625  0.6881918927447684  0.054183380122367626  1.0000
  O   O27       1.0  0.7349212791067289  0.8622634076958275  0.8914185120487587  1.0000
  O   O28       1.0  0.6819657487961238  0.7441701799495418  0.9480965664774672  1.0000
  O   O29       1.0  0.66888897344964  0.6836597611873498  0.5016071540977833  1.0000
  O   O30       1.0  0.17019183203027674  0.18454689240564182  0.0005150623403836054  1.0000
  O   O31       1.0  0.9942112679524583  0.15213746100246786  0.09561632964324242  1.0000
  O   O32       1.0  0.8361534762313811  0.578744467260641  0.5371110386979441  1.0000
  O   O33       1.0  0.5831166004489035  0.8340389779413399  0.5507828657302127  1.0000
  O   O34       1.0  0.81110051927422  0.5968823196851928  0.39101290371179676  1.0000
  O   O35       1.0  0.7261844715849364  0.82803143256627  0.4079048089476772  1.0000
  O   O36       1.0  0.09212148909293211  0.04786031465334159  0.07580139078051927  1.0000
  O   O37       1.0  0.6917846145734429  0.5835292333551436  0.3978378467544204  1.0000
  O   O38       1.0  0.5642526760209066  0.5735557751897173  0.5435705190064367  1.0000
  O   O39       1.0  0.019210094114299588  0.2960382330354179  0.08998726029875573  1.0000
  O   O40       1.0  0.27553515350044944  0.2639777807088492  0.8514254345896788  1.0000
  O   O41       1.0  0.5374036560461023  0.7189142539797828  0.41746429955830416  1.0000
  O   O42       1.0  0.2520353161472856  0.027406491021245892  0.9576172580048874  1.0000
  O   O43       1.0  0.000242783268710394  0.2743738118287453  0.9570882984592827  1.0000
  O   O44       1.0  0.24917900209737107  0.032857631449004984  0.10614487110226628  1.0000
  O   O45       1.0  0.5649888728547411  0.5960670178199335  0.6428300170395077  1.0000
  O   O46       1.0  0.1040071396516424  0.25851282304310524  0.8596294176204821  1.0000
  O   O47       1.0  0.24949772525738476  0.11835716515899719  0.8585319582220733  1.0000
  O   O48       1.0  0.5581316529363677  0.8234310834602282  0.4154195916561747  1.0000
  O   O49       1.0  0.8349686511911543  0.7282810943474869  0.41381701144689514  1.0000
  O   O50       1.0  0.13853584778504316  0.2947307410796539  0.09886695664670954  1.0000
  O   O51       1.0  0.7360916110853281  0.5991829961857675  0.6358717436181607  1.0000
  O   O52       1.0  0.5783956200179716  0.7412001171458797  0.6479926211105819  1.0000
  O   O53       1.0  0.5487060190206422  0.6338645906247462  0.7794282794971323  1.0000
  O   O54       1.0  0.23813214432156132  0.31180286255690237  0.9458159783966877  1.0000
  O   O55       1.0  0.26509859386266044  0.13773189655090323  0.1085686137914266  1.0000
  O   O56       1.0  0.31804079396927426  0.25583274492040425  0.05189660456693453  1.0000
