data_image0
_chemical_formula_structural       H8Pb4C12O16
_chemical_formula_sum              "H8 Pb4 C12 O16"
_cell_length_a       5.327164812248008
_cell_length_b       6.958245036068802
_cell_length_c       12.804124731808004
_cell_angle_alpha    99.71634863573007
_cell_angle_beta     89.98537478789031
_cell_angle_gamma    89.99319636539288

_space_group_name_H-M_alt    "P 1"
_space_group_IT_number       1

loop_
  _space_group_symop_operation_xyz
  'x, y, z'

loop_
  _atom_site_type_symbol
  _atom_site_label
  _atom_site_symmetry_multiplicity
  _atom_site_fract_x
  _atom_site_fract_y
  _atom_site_fract_z
  _atom_site_occupancy
  H   H1        1.0  0.3946008774435723  0.7054084378393313  0.9993324900750478  1.0000
  H   H2        1.0  0.8950658862158248  0.7940102642202477  0.0007009125592887139  1.0000
  H   H3        1.0  0.6047662492673992  0.29400560184717506  0.0006878193949190997  1.0000
  H   H4        1.0  0.10539940726000907  0.20529041000253298  0.9992772523343942  1.0000
  H   H5        1.0  0.23957208111241357  0.5251543745581843  0.0545946297972506  1.0000
  H   H6        1.0  0.7393532749514476  0.9743797228454623  0.9458026171831476  1.0000
  H   H7        1.0  0.7605458239525333  0.4742352527985503  0.9457075974101911  1.0000
  H   H8        1.0  0.2605112487364635  0.024920707081271594  0.0544059549927027  1.0000
  Pb  Pb1       1.0  0.035641381265285994  0.6001540475807516  0.31083012928790044  1.0000
  Pb  Pb2       1.0  0.535628187904109  0.9003180383298357  0.6891006958754032  1.0000
  Pb  Pb3       1.0  0.9644446613598985  0.4002568732504841  0.6891012278188667  1.0000
  Pb  Pb4       1.0  0.4644653537346456  0.1002037565387255  0.3108365856579027  1.0000
  C   C1        1.0  0.6123631249983815  0.5316903409328404  0.468604118672502  1.0000
  C   C2        1.0  0.11230513414805895  0.9685977638664695  0.5313116499845164  1.0000
  C   C3        1.0  0.3877942524823439  0.46867967460944726  0.531328787301973  1.0000
  C   C4        1.0  0.8877077188498035  0.031559227891641194  0.4686125915520306  1.0000
  C   C5        1.0  0.5569552125521682  0.6508083222975573  0.1416493761196804  1.0000
  C   C6        1.0  0.05672905290707319  0.8492236343701408  0.8583325099884502  1.0000
  C   C7        1.0  0.44303883133997596  0.34935878329903153  0.8583875201225267  1.0000
  C   C8        1.0  0.9431448917789991  0.15065817416069646  0.14164350471692436  1.0000
  C   C9        1.0  0.42745829008777037  0.5767814192839466  0.03730613553889129  1.0000
  C   C10       1.0  0.9274720404907411  0.9227993966105074  0.9628231165115153  1.0000
  C   C11       1.0  0.5724512868269612  0.42283535023130975  0.9628311762856608  1.0000
  C   C12       1.0  0.0725746070798294  0.07667105857249368  0.0372314561221501  1.0000
  O   O1        1.0  0.6134775664504487  0.4694196345852433  0.3685106110351484  1.0000
  O   O2        1.0  0.11354314736438197  0.0311274763990568  0.6313781036433708  1.0000
  O   O3        1.0  0.38660284478468293  0.5310454720318276  0.6314087496245051  1.0000
  O   O4        1.0  0.8864640705447254  0.9690674350820316  0.36854898616319787  1.0000
  O   O5        1.0  0.7792764097311958  0.6384578402755351  0.518013150537243  1.0000
  O   O6        1.0  0.2791172253242848  0.8616410001743516  0.4819085789211569  1.0000
  O   O7        1.0  0.2209673234025472  0.36183480764138665  0.48191859504524354  1.0000
  O   O8        1.0  0.72092378160157  0.138549513272757  0.5180196503481156  1.0000
  O   O9        1.0  0.7900016257721915  0.6186350850505989  0.1504849434088626  1.0000
  O   O10       1.0  0.2897673642880604  0.8813893816571364  0.8494309520132928  1.0000
  O   O11       1.0  0.2100374560633824  0.38171005857828527  0.849557273979279  1.0000
  O   O12       1.0  0.710070923786233  0.11867149026318198  0.1504770700901403  1.0000
  O   O13       1.0  0.4207600536229278  0.7473109690912593  0.21551872502035246  1.0000
  O   O14       1.0  0.9204781937523733  0.7530748348904978  0.784428165291423  1.0000
  O   O15       1.0  0.5792133491067587  0.2530995470213853  0.7844422776946798  1.0000
  O   O16       1.0  0.0793075259425891  0.24695789335271456  0.2155091878165294  1.0000
