data_image0
_chemical_formula_structural       Cu8H96C76N24O24
_chemical_formula_sum              "Cu8 H96 C76 N24 O24"
_cell_length_a       13.319125160044676
_cell_length_b       13.957430975045476
_cell_length_c       16.31960357400381
_cell_angle_alpha    90.00004174710185
_cell_angle_beta     89.99993424970994
_cell_angle_gamma    89.99971046943591

_space_group_name_H-M_alt    "P 1"
_space_group_IT_number       1

loop_
  _space_group_symop_operation_xyz
  'x, y, z'

loop_
  _atom_site_type_symbol
  _atom_site_label
  _atom_site_symmetry_multiplicity
  _atom_site_fract_x
  _atom_site_fract_y
  _atom_site_fract_z
  _atom_site_occupancy
  Cu  Cu1       1.0  0.9388034362322343  0.5301053554727629  0.08896452020206168  1.0000
  Cu  Cu2       1.0  0.5611890976295582  0.4698905221269385  0.588965790903096  1.0000
  Cu  Cu3       1.0  0.4388063832553398  0.9698812442674621  0.91104307024397  1.0000
  Cu  Cu4       1.0  0.06119884114628601  0.030118746723985592  0.41103876490151237  1.0000
  Cu  Cu5       1.0  0.21646021202595736  0.7905733966253621  0.15520796643274073  1.0000
  Cu  Cu6       1.0  0.283537870115623  0.20942996364686903  0.6552192833506394  1.0000
  Cu  Cu7       1.0  0.716464995740928  0.7094235898404477  0.8447857352821799  1.0000
  Cu  Cu8       1.0  0.7835384343630025  0.2905789489637414  0.3447875187468767  1.0000
  H   H1        1.0  0.21615580206656657  0.8718197947225832  0.3243683514978244  1.0000
  H   H2        1.0  0.28384203823742377  0.1281822734997817  0.8243753270492603  1.0000
  H   H3        1.0  0.7161575036235704  0.6281865072550161  0.6756271887817462  1.0000
  H   H4        1.0  0.7838469191248693  0.37181589066698706  0.1756253471629279  1.0000
  H   H5        1.0  0.6355687764691638  0.4520123399127769  0.41864176071243964  1.0000
  H   H6        1.0  0.8644315448562666  0.5479881110112357  0.918634836053009  1.0000
  H   H7        1.0  0.1355894438612992  0.04799370420810328  0.5813627265931629  1.0000
  H   H8        1.0  0.36441099627359813  0.9520052957693463  0.08136424425203609  1.0000
  H   H9        1.0  0.14926690571526538  0.7517658820910925  0.9350161428645051  1.0000
  H   H10       1.0  0.35072476996347746  0.24824917465181776  0.43502335232040673  1.0000
  H   H11       1.0  0.6492590845215176  0.7482199651569982  0.06498619936776609  1.0000
  H   H12       1.0  0.8507349852262963  0.2517737430773366  0.5649889027475368  1.0000
  H   H13       1.0  0.9940338272672591  0.8439706580559303  0.9760608979504183  1.0000
  H   H14       1.0  0.5059671627208856  0.15604488643888456  0.4760634640548318  1.0000
  H   H15       1.0  0.4940457102456719  0.6559977635909104  0.023933160906871403  1.0000
  H   H16       1.0  0.005954812006301299  0.3439954568463293  0.5239399171013159  1.0000
  H   H17       1.0  0.0799991622100436  0.9185753941208997  0.9208994634222094  1.0000
  H   H18       1.0  0.41999854005305076  0.0814410837761628  0.4208991496880827  1.0000
  H   H19       1.0  0.5800207341991167  0.5813907262336071  0.0790827214964196  1.0000
  H   H20       1.0  0.9199770694114164  0.4185958290910817  0.579089756728429  1.0000
  H   H21       1.0  0.07091734815903551  0.9270157102344283  0.030291439644358292  1.0000
  H   H22       1.0  0.4290846665782552  0.07298826245563818  0.5302927314430264  1.0000
  H   H23       1.0  0.5709421962788993  0.5729748137111129  0.9696901408835927  1.0000
  H   H24       1.0  0.9290580520552325  0.4270249632690195  0.4696980048812448  1.0000
  H   H25       1.0  0.6011160198655574  0.7808185901581479  0.31230290120588217  1.0000
  H   H26       1.0  0.8988814502847688  0.21918320514094344  0.812297573603935  1.0000
  H   H27       1.0  0.10111310513629229  0.7191868339126515  0.687687842930714  1.0000
  H   H28       1.0  0.39889168779368583  0.2808101052114154  0.18769012670990995  1.0000
  H   H29       1.0  0.5674965090973244  0.8247573132987182  0.4092452364703831  1.0000
  H   H30       1.0  0.9324940652619275  0.17524098043346462  0.9092453647561527  1.0000
  H   H31       1.0  0.06749847031765202  0.6752518552781692  0.5907418620639857  1.0000
  H   H32       1.0  0.4325042088138886  0.32474500311237614  0.09074353012299947  1.0000
  H   H33       1.0  0.5394536208767632  0.677753334725196  0.6108683599439644  1.0000
  H   H34       1.0  0.9605321244826827  0.3222389788092598  0.11086387299042848  1.0000
  H   H35       1.0  0.03945208906796441  0.8222595514782537  0.3891267302964181  1.0000
  H   H36       1.0  0.4605449078556417  0.17774257067625848  0.8891292853869641  1.0000
  H   H37       1.0  0.4318774411107213  0.7104666103078685  0.553044711390413  1.0000
  H   H38       1.0  0.0681177839022737  0.289535231955007  0.05304546703792569  1.0000
  H   H39       1.0  0.9318748615426172  0.7895529802130097  0.44695859612663463  1.0000
  H   H40       1.0  0.5681261700969031  0.21044677783014973  0.9469572440983568  1.0000
  H   H41       1.0  0.5419805858391981  0.7810889376880252  0.5473264070378363  1.0000
  H   H42       1.0  0.9580187647595294  0.21890618875083587  0.04732001828589459  1.0000
  H   H43       1.0  0.04197500531019929  0.7189282351209199  0.4526729701986908  1.0000
  H   H44       1.0  0.45802265156363825  0.28107465641717505  0.952671916889841  1.0000
  H   H45       1.0  0.42989475591965487  0.7597233512329779  0.1219987183233116  1.0000
  H   H46       1.0  0.0700936133583525  0.24026135332998413  0.6219967707185816  1.0000
  H   H47       1.0  0.9299000796826958  0.7402704561168106  0.8779917230480194  1.0000
  H   H48       1.0  0.5701070569617741  0.2597270950829582  0.3779924578783635  1.0000
  H   H49       1.0  0.4573735250860622  0.6544310094850939  0.17930092188905886  1.0000
  H   H50       1.0  0.04262452266139151  0.3455573250969906  0.6792966156318625  1.0000
  H   H51       1.0  0.9573738686453551  0.8455719793436813  0.8206992983432286  1.0000
  H   H52       1.0  0.5426295959036127  0.1544276735429335  0.3206987658627227  1.0000
  H   H53       1.0  0.5420845351642498  0.752161541423774  0.180302163831513  1.0000
  H   H54       1.0  0.957912372908801  0.24783512869957747  0.680309055327136  1.0000
  H   H55       1.0  0.042084283250837  0.747841301580401  0.8196831198226773  1.0000
  H   H56       1.0  0.45791957015264734  0.252161479188274  0.3196865565099714  1.0000
  H   H57       1.0  0.29828406493896137  0.9317490191466007  0.4583084735448324  1.0000
  H   H58       1.0  0.20171358388398627  0.06824957830259848  0.9583148737797699  1.0000
  H   H59       1.0  0.7982802687852056  0.5682568866129499  0.5416839273089593  1.0000
  H   H60       1.0  0.701714585068565  0.4317418174599225  0.0416803612206635  1.0000
  H   H61       1.0  0.4205234152523403  0.8904703651522607  0.4844285238850787  1.0000
  H   H62       1.0  0.0794726946228081  0.1095304034458806  0.9844332247068833  1.0000
  H   H63       1.0  0.9205194379694956  0.6095328014669549  0.515561313363186  1.0000
  H   H64       1.0  0.5794799580358257  0.39046373144769575  0.015559671817832998  1.0000
  H   H65       1.0  0.3148822832981111  0.8146343202007383  0.49825180081046466  1.0000
  H   H66       1.0  0.18511155442065066  0.1853643105219405  0.9982552271511979  1.0000
  H   H67       1.0  0.8148779243935067  0.6853664902325319  0.501741810277359  1.0000
  H   H68       1.0  0.685125245351699  0.31463647934237565  0.0017412486544258997  1.0000
  H   H69       1.0  0.6912180176274774  0.5133035110837907  0.2749133858864353  1.0000
  H   H70       1.0  0.8087825091983659  0.48669180488928276  0.7749034096187515  1.0000
  H   H71       1.0  0.1912248955498157  0.9866885819166881  0.7250987218698555  1.0000
  H   H72       1.0  0.30878660108894007  0.013309821277609  0.22510459474811734  1.0000
  H   H73       1.0  0.658748627420536  0.6314134210280855  0.24433855361743886  1.0000
  H   H74       1.0  0.8412587003221149  0.3685790036103994  0.7443333742724647  1.0000
  H   H75       1.0  0.1587455755995322  0.8685709475321559  0.7556564267610779  1.0000
  H   H76       1.0  0.34126662816915143  0.13142103293115778  0.2556617322266135  1.0000
  H   H77       1.0  0.5679456148502381  0.5385992800176423  0.2402257208551433  1.0000
  H   H78       1.0  0.9320594663659988  0.4613960070571537  0.740218678752022  1.0000
  H   H79       1.0  0.0679413150944654  0.9613855266289943  0.7597736324604369  1.0000
  H   H80       1.0  0.4320678795870734  0.0386078901970706  0.2597745058537128  1.0000
  H   H81       1.0  0.03286686870421109  0.5444161365027753  0.30170479087507823  1.0000
  H   H82       1.0  0.46714226600601444  0.4555844798892892  0.8017118062427215  1.0000
  H   H83       1.0  0.5328660541243407  0.9555996473427438  0.6983117520307401  1.0000
  H   H84       1.0  0.9671323297634302  0.04441351644944551  0.19831014578256398  1.0000
  H   H85       1.0  0.9522488907619645  0.7051877797512988  0.3134136492887549  1.0000
  H   H86       1.0  0.5477545842004332  0.2948104341429882  0.8134221739332261  1.0000
  H   H87       1.0  0.452263596510967  0.7948166666982811  0.6865939287762258  1.0000
  H   H88       1.0  0.0477426995509376  0.20519316786605662  0.186593423930475  1.0000
  H   H89       1.0  0.8794327448370397  0.6162024036673228  0.3656980127315563  1.0000
  H   H90       1.0  0.6205804157923964  0.3837929878851937  0.8656948845746797  1.0000
  H   H91       1.0  0.37945381155974905  0.8838009611383624  0.634301053743556  1.0000
  H   H92       1.0  0.12055180847890772  0.11620238170033298  0.1343034889524972  1.0000
  H   H93       1.0  0.8403820868322357  0.6596947015892808  0.2678647857651555  1.0000
  H   H94       1.0  0.6596169484651143  0.34029989205731676  0.7678652705033782  1.0000
  H   H95       1.0  0.34038222149518294  0.8403052693439149  0.7321275763187315  1.0000
  H   H96       1.0  0.15961950468997096  0.15969600558241842  0.232128164982754  1.0000
  C   C1        1.0  0.07453307185428319  0.6795403793285644  0.07719507199892917  1.0000
  C   C2        1.0  0.42546587259721486  0.32047223000520825  0.5772044906894607  1.0000
  C   C3        1.0  0.5745296483479052  0.8204558589655516  0.9228122411335633  1.0000
  C   C4        1.0  0.9254676638135706  0.17954244605034114  0.42281504867375463  1.0000
  C   C5        1.0  0.4434967680202319  0.7910099655833418  0.3316000143929755  1.0000
  C   C6        1.0  0.056499560357202896  0.20898780987931787  0.8316054124998259  1.0000
  C   C7        1.0  0.9434965506001943  0.7090002548312171  0.668384286860821  1.0000
  C   C8        1.0  0.5565071317057003  0.2909999876697213  0.1683868924176792  1.0000
  C   C9        1.0  0.0677022933410854  0.6550373567387169  0.16727384856169888  1.0000
  C   C10       1.0  0.43229426994588493  0.344967446514552  0.6672857276126507  1.0000
  C   C11       1.0  0.5676958657487603  0.8449510334109077  0.8327322453398763  1.0000
  C   C12       1.0  0.9323038275985381  0.15504719657872806  0.3327344182189903  1.0000
  C   C13       1.0  0.903169750410484  0.4718118314287665  0.2545040783435013  1.0000
  C   C14       1.0  0.5968435691791854  0.5281856169148468  0.7545084171634926  1.0000
  C   C15       1.0  0.4031632591340255  0.0281907723213592  0.7455111922313122  1.0000
  C   C16       1.0  0.09683619553322839  0.9718069314313309  0.24550193922480193  1.0000
  C   C17       1.0  0.25260597216727376  0.8511435434283284  0.9914329385299113  1.0000
  C   C18       1.0  0.24738487206941068  0.14886511212424133  0.4914420181062056  1.0000
  C   C19       1.0  0.7526257863691156  0.6488640155802228  0.008565019216305798  1.0000
  C   C20       1.0  0.7473713672183137  0.35113824322991133  0.5085703321275616  1.0000
  C   C21       1.0  0.15012415098853887  0.8011868878732429  0.9876283430693177  1.0000
  C   C22       1.0  0.34987120348250045  0.19882463035551715  0.4876342963033409  1.0000
  C   C23       1.0  0.6501286793670502  0.6988097021703579  0.012368483531446397  1.0000
  C   C24       1.0  0.849866216392037  0.30118897749161977  0.5123736702347657  1.0000
  C   C25       1.0  0.06813508623987728  0.8780665589669777  0.9776802469957458  1.0000
  C   C26       1.0  0.4318617840556839  0.12194495097210019  0.4776836247053282  1.0000
  C   C27       1.0  0.5681572757540891  0.6219146643769446  0.022310527492265895  1.0000
  C   C28       1.0  0.9318443629963511  0.37808259061971217  0.5223144621817325  1.0000
  C   C29       1.0  0.5477168584481973  0.7703526306729599  0.36306028284647596  1.0000
  C   C30       1.0  0.952272280348886  0.22964275874161894  0.8630592020616419  1.0000
  C   C31       1.0  0.047720718095277406  0.7296516180782433  0.6369292849395833  1.0000
  C   C32       1.0  0.4522833965968259  0.2703474281677245  0.1369321256454441  1.0000
  C   C33       1.0  0.4087581007598189  0.7747176192359431  0.2508737995861168  1.0000
  C   C34       1.0  0.09123759223643899  0.22527793960479406  0.7508779505639183  1.0000
  C   C35       1.0  0.908759934094725  0.7252920523081057  0.7491129846957916  1.0000
  C   C36       1.0  0.5912428819891531  0.274710406820155  0.2491161606460466  1.0000
  C   C37       1.0  0.3618373618762262  0.8323644949724096  0.3729043773043941  1.0000
  C   C38       1.0  0.1381581566428096  0.16763546428437334  0.8729108993868023  1.0000
  C   C39       1.0  0.8618359207890407  0.6676446864872218  0.6270861267459862  1.0000
  C   C40       1.0  0.6381685713669257  0.33235337222443917  0.1270868451737854  1.0000
  C   C41       1.0  0.5651409076549426  0.6726720206159412  0.3999122418114851  1.0000
  C   C42       1.0  0.9348594404544813  0.32732554885324544  0.8999063372243441  1.0000
  C   C43       1.0  0.0651428013644946  0.8273357264021683  0.6000865013312973  1.0000
  C   C44       1.0  0.43486061520445674  0.17266257269688615  0.100086844801325  1.0000
  C   C45       1.0  0.551151257476043  0.6474224566851419  0.48306254431071943  1.0000
  C   C46       1.0  0.948849722546143  0.35257804788951563  0.983059093969416  1.0000
  C   C47       1.0  0.0511621460143061  0.8525889401248319  0.5169337606715982  1.0000
  C   C48       1.0  0.448839887827539  0.14741215558386497  0.0169353006989184  1.0000
  C   C49       1.0  0.6009340471845165  0.5891758938356376  0.361870833499637  1.0000
  C   C50       1.0  0.8990701093080985  0.41082379333448665  0.8618625640311847  1.0000
  C   C51       1.0  0.10094220178994108  0.9108266652327968  0.638127876678297  1.0000
  C   C52       1.0  0.3990604096020575  0.08916808322833696  0.1381275871575838  1.0000
  C   C53       1.0  0.5143070383400143  0.7072351574293734  0.5521537193935586  1.0000
  C   C54       1.0  0.9856878005495345  0.29276140597115596  0.0521522542964448  1.0000
  C   C55       1.0  0.0143078310101643  0.7927850147321321  0.4478438450443817  1.0000
  C   C56       1.0  0.48569433756307473  0.2072193057024876  0.9478445574787031  1.0000
  C   C57       1.0  0.46220021062650574  0.7330206754555846  0.1794112415001763  1.0000
  C   C58       1.0  0.037798587753108806  0.2669705250749813  0.6794105661748944  1.0000
  C   C59       1.0  0.9622002195070819  0.7669837230131618  0.8205822339282207  1.0000
  C   C60       1.0  0.5378024944063711  0.23301664624253243  0.3205829814849678  1.0000
  C   C61       1.0  0.34828451177096287  0.8691815103055872  0.4578850134429685  1.0000
  C   C62       1.0  0.151711636064654  0.1308149374009062  0.9578890485459295  1.0000
  C   C63       1.0  0.8482811346564957  0.6308227212959848  0.5421073413669006  1.0000
  C   C64       1.0  0.6517174725887285  0.3691759831225028  0.0421086835366324  1.0000
  C   C65       1.0  0.6312987735622713  0.5672347843254498  0.2759875989053029  1.0000
  C   C66       1.0  0.8687040041225059  0.43276196546625556  0.7759799841377912  1.0000
  C   C67       1.0  0.13130293527608927  0.9327568812963064  0.7240172109092881  1.0000
  C   C68       1.0  0.368708562923338  0.06723722221012449  0.2240187736492985  1.0000
  C   C69       1.0  0.9671204013096074  0.5623426677517571  0.2634926539225261  1.0000
  C   C70       1.0  0.5328876498246514  0.4376562210191253  0.7634976067131802  1.0000
  C   C71       1.0  0.4671170112244738  0.9376624234599901  0.7365204252963122  1.0000
  C   C72       1.0  0.0328824562668331  0.06234387037984129  0.2365210686365273  1.0000
  C   C73       1.0  0.9056859473492336  0.6411925876177873  0.3057290274002114  1.0000
  C   C74       1.0  0.5943175386087276  0.3588041869450648  0.8057301968210808  1.0000
  C   C75       1.0  0.4056935462024  0.8588106505621124  0.6942724659455806  1.0000
  C   C76       1.0  0.09430898489281249  0.141194891620728  0.1942718774422687  1.0000
  N   N1        1.0  0.3126856529100692  0.803679481674571  0.24420334787782133  1.0000
  N   N2        1.0  0.18731004962299377  0.1963153551476253  0.7442098429734685  1.0000
  N   N3        1.0  0.8126876299935405  0.6963313698387734  0.7557865886731676  1.0000
  N   N4        1.0  0.6873166781465017  0.3036725277717024  0.2557884690867382  1.0000
  N   N5        1.0  0.5763175616042772  0.5548580883868153  0.4944279753898043  1.0000
  N   N6        1.0  0.9236796481742003  0.4451409927328314  0.9944221561615691  1.0000
  N   N7        1.0  0.07633022885578102  0.9451546199341008  0.5055738212574283  1.0000
  N   N8        1.0  0.4236688180267193  0.05484718278422919  0.0055728744445673  1.0000
  N   N9        1.0  0.2853458781684779  0.836968655999051  0.3185918201833359  1.0000
  N   N10       1.0  0.2146489671947833  0.1630326909560651  0.8186001071752853  1.0000
  N   N11       1.0  0.7853451346036877  0.6630387451027315  0.6814018181036943  1.0000
  N   N12       1.0  0.7146577782836445  0.33696509056136387  0.18140185627176916  1.0000
  N   N13       1.0  0.6050635863218474  0.5208746570539374  0.4205683140805192  1.0000
  N   N14       1.0  0.8949322274522657  0.47912436255718643  0.9205619302163298  1.0000
  N   N15       1.0  0.1050834761350927  0.9791278820654127  0.5794359071291382  1.0000
  N   N16       1.0  0.39492147155243623  0.0208725492241655  0.07943557790471088  1.0000
  N   N17       1.0  0.9977432638478447  0.5916609927528854  0.18237548268295  1.0000
  N   N18       1.0  0.502251388845302  0.4083414108166394  0.6823828960399538  1.0000
  N   N19       1.0  0.49774667019943303  0.9083339202006682  0.8176332790104084  1.0000
  N   N20       1.0  0.0022534321250731  0.09167244119092288  0.3176364202823692  1.0000
  N   N21       1.0  0.13633725197708907  0.750876418506735  0.06407464952361859  1.0000
  N   N22       1.0  0.36366396365265524  0.2491275823254497  0.5640877562313804  1.0000
  N   N23       1.0  0.6363356888984412  0.7491173722091629  0.9359203514948574  1.0000
  N   N24       1.0  0.8636601029187005  0.2508823766555678  0.4359232614038149  1.0000
  O   O1        1.0  0.29649465105692485  0.8521238903812429  0.0627706547947824  1.0000
  O   O2        1.0  0.20349830765328386  0.14787437767005676  0.5627813934368432  1.0000
  O   O3        1.0  0.796515395190191  0.6478734263842654  0.9372284880525682  1.0000
  O   O4        1.0  0.7034841487539794  0.3521277564888833  0.43723038445003937  1.0000
  O   O5        1.0  0.020427573336888803  0.634113073980991  0.025500812037130092  1.0000
  O   O6        1.0  0.4795654386303525  0.36589662645673116  0.5255065332901266  1.0000
  O   O7        1.0  0.520427589475247  0.8658870076594168  0.974506550918356  1.0000
  O   O8        1.0  0.979572651981314  0.1341113404008212  0.4745080541706983  1.0000
  O   O9        1.0  0.12444986383457751  0.6980186467918372  0.21885106937111937  1.0000
  O   O10       1.0  0.375540619322507  0.30198333357262186  0.7188605222549354  1.0000
  O   O11       1.0  0.6244369802535771  0.8019802165519888  0.7811439426007496  1.0000
  O   O12       1.0  0.875559032843519  0.19802011987481186  0.281144356831426  1.0000
  O   O13       1.0  0.8849652310424716  0.4428695554520771  0.18015239399160524  1.0000
  O   O14       1.0  0.6150376836622015  0.557123532206532  0.6801487686119998  1.0000
  O   O15       1.0  0.38496148350387216  0.05712167269606989  0.819872697501772  1.0000
  O   O16       1.0  0.11503936643843819  0.9428782423793505  0.31987260070059875  1.0000
  O   O17       1.0  0.2864407165554894  0.8909107826425  0.928731657653536  1.0000
  O   O18       1.0  0.2135494665163336  0.10910140301277237  0.4287376792506591  1.0000
  O   O19       1.0  0.7864644055642669  0.6091087930124317  0.07126749445777139  1.0000
  O   O20       1.0  0.7135319075966535  0.3908877863041481  0.5712691872981421  1.0000
  O   O21       1.0  0.8697479456576502  0.43214632921429086  0.3173867360169709  1.0000
  O   O22       1.0  0.6302780476734496  0.5678397080340287  0.8173745248040872  1.0000
  O   O23       1.0  0.3697413343233364  0.06785930164228658  0.6826402077751936  1.0000
  O   O24       1.0  0.1302499513763138  0.9321555449152825  0.1826400901261565  1.0000
