data_image0
_chemical_formula_structural       Cd3H42C60N12O16
_chemical_formula_sum              "Cd3 H42 C60 N12 O16"
_cell_length_a       8.197915948448427
_cell_length_b       13.61612285251148
_cell_length_c       14.3133
_cell_angle_alpha    94.12854873828667
_cell_angle_beta     106.78148366508162
_cell_angle_gamma    89.98942827050999

_space_group_name_H-M_alt    "P 1"
_space_group_IT_number       1

loop_
  _space_group_symop_operation_xyz
  'x, y, z'

loop_
  _atom_site_type_symbol
  _atom_site_label
  _atom_site_symmetry_multiplicity
  _atom_site_fract_x
  _atom_site_fract_y
  _atom_site_fract_z
  _atom_site_occupancy
  Cd  Cd1       1.0  0.1582134671444066  0.4390995076541984  0.36082465936863883  1.0000
  Cd  Cd2       1.0  0.7970980195540278  0.5603666344642733  0.6393227169768423  1.0000
  Cd  Cd3       1.0  0.17716586400791812  0.0003675163148813  0.9995226853276407  1.0000
  H   H1        1.0  0.5794086431340871  0.0511503167708867  0.5323808592497841  1.0000
  H   H2        1.0  0.0463419262245992  0.9484712280378461  0.46766083589950813  1.0000
  H   H3        1.0  0.7472724619364115  0.9847743275908201  0.424461524028267  1.0000
  H   H4        1.0  0.3228535470200384  0.0151528670589514  0.5755691064607474  1.0000
  H   H5        1.0  0.9561484410747312  0.0955932766687297  0.38164696021635075  1.0000
  H   H6        1.0  0.5752974426562858  0.9045143618630932  0.6185356301332234  1.0000
  H   H7        1.0  0.7331246488565668  0.0961839541928526  0.725297209424582  1.0000
  H   H8        1.0  0.007704749931541199  0.9032313690363836  0.2749464277778912  1.0000
  H   H9        1.0  0.5744526000050598  0.0129963785419562  0.8249812867646327  1.0000
  H   H10       1.0  0.7492397787975944  0.9867916165416517  0.1748729598019096  1.0000
  H   H11       1.0  0.13972615834676114  0.1916453963518379  0.7120439050064746  1.0000
  H   H12       1.0  0.4267350127006253  0.8088975170138468  0.2873130998579825  1.0000
  H   H13       1.0  0.2914963525928654  0.2698799715666738  0.606847366980297  1.0000
  H   H14       1.0  0.6839096530695984  0.7303631840031031  0.3929502544970944  1.0000
  H   H15       1.0  0.9352847680354799  0.5756528090442572  0.17573305300958003  1.0000
  H   H16       1.0  0.759355569384212  0.4240077705634562  0.824743690159842  1.0000
  H   H17       1.0  0.7367901386485017  0.46799704298641137  0.3897308985233395  1.0000
  H   H18       1.0  0.34622288938569323  0.5313755629156418  0.609897233166592  1.0000
  H   H19       1.0  0.48644665642783746  0.5759731889981126  0.2685361985358057  1.0000
  H   H20       1.0  0.21709555372890324  0.4242294587614097  0.7312649086657217  1.0000
  H   H21       1.0  0.35558743729528425  0.5743808638021619  0.09141041362440208  1.0000
  H   H22       1.0  0.2636959334049962  0.426197401834294  0.9085621503178132  1.0000
  H   H23       1.0  0.3904955378574542  0.7762143426866359  0.8776001171202453  1.0000
  H   H24       1.0  0.5130065655734555  0.2241017269416048  0.12251682614038373  1.0000
  H   H25       1.0  0.8356105603638468  0.7175936491985908  0.11350920536578711  1.0000
  H   H26       1.0  0.7214000942463628  0.2824543323763109  0.8870542431925088  1.0000
  H   H27       1.0  0.9221004249014798  0.8642878967602529  0.07844999006408673  1.0000
  H   H28       1.0  0.8423168351419292  0.1362410229982487  0.9215913366797039  1.0000
  H   H29       1.0  0.8766047732823169  0.8873059075599699  0.7795056202817888  1.0000
  H   H30       1.0  0.09866087645288962  0.1122832310005535  0.2203001520346106  1.0000
  H   H31       1.0  0.6027563568222335  0.7784349071944021  0.7922670065324907  1.0000
  H   H32       1.0  0.8118437434504813  0.2210651141835598  0.208058074126356  1.0000
  H   H33       1.0  0.1988358304951703  0.6336975551210031  0.7770341646866257  1.0000
  H   H34       1.0  0.4225584754875058  0.3665676956180093  0.2230801957212307  1.0000
  H   H35       1.0  0.06953047527385792  0.6526036549267432  0.0440485971415399  1.0000
  H   H36       1.0  0.0248508059851815  0.3478847570215038  0.9558212381799365  1.0000
  H   H37       1.0  0.7827056136290268  0.5963979634356917  0.888870009991308  1.0000
  H   H38       1.0  0.8937185438664415  0.4034504251104849  0.11083177766586519  1.0000
  H   H39       1.0  0.40441082980772347  0.3003992923204848  0.42142523459876463  1.0000
  H   H40       1.0  0.9829231905127075  0.6987398412933602  0.5784387045095798  1.0000
  H   H41       1.0  0.5416117373616274  0.3874351099458622  0.4529674892144158  1.0000
  H   H42       1.0  0.0887179934967861  0.6118822580331198  0.5470930931315223  1.0000
  C   C1        1.0  0.027378346205416907  0.2860344862974529  0.4382160456608375  1.0000
  C   C2        1.0  0.5900878377324118  0.7141932026538598  0.5620167794096957  1.0000
  C   C3        1.0  0.8397929010632481  0.3611595346957799  0.5811883749687112  1.0000
  C   C4        1.0  0.2589307250153894  0.6386881173447563  0.418900268325693  1.0000
  C   C5        1.0  0.9143612828204084  0.219183342270675  0.4724426916877107  1.0000
  C   C6        1.0  0.4423290227564963  0.7808565377421743  0.5276833606716451  1.0000
  C   C7        1.0  0.8252259764385953  0.2561316207652027  0.5374600898790476  1.0000
  C   C8        1.0  0.2878200971436867  0.7437292883768691  0.4627000332158246  1.0000
  C   C9        1.0  0.703394742767408  0.1946024665006547  0.5566743078265759  1.0000
  C   C10       1.0  0.1464808335697754  0.8051560683573201  0.4435008784853451  1.0000
  C   C11       1.0  0.6761286613885603  0.0971752907857066  0.517525887349457  1.0000
  C   C12       1.0  0.1582882521215296  0.9026112312866204  0.48254994984733207  1.0000
  C   C13       1.0  0.7703433360929778  0.0604553290399039  0.45619990092988866  1.0000
  C   C14       1.0  0.3142194028087816  0.9394748116324295  0.5438791811151873  1.0000
  C   C15       1.0  0.8867783055756391  0.1213901232521337  0.43277944272543334  1.0000
  C   C16       1.0  0.4544557022481542  0.8786387091761014  0.5673644475209301  1.0000
  C   C17       1.0  0.5194487614130877  0.1872528767086195  0.6605350190037029  1.0000
  C   C18       1.0  0.8583954453431987  0.8125225977790932  0.3394010311421169  1.0000
  C   C19       1.0  0.6023542715569192  0.1154700909093762  0.7216986421865812  1.0000
  C   C20       1.0  0.8803199956774108  0.8842000632716704  0.27831505130424716  1.0000
  C   C21       1.0  0.5144792660732377  0.0697271985550785  0.7771865901118673  1.0000
  C   C22       1.0  0.7369396168238538  0.9301307645644386  0.22261266292699838  1.0000
  C   C23       1.0  0.3484444670300135  0.0972283191918635  0.7747425358003142  1.0000
  C   C24       1.0  0.5731717704452208  0.9029308747348352  0.22486236338127705  1.0000
  C   C25       1.0  0.2681823797454755  0.1695833698742035  0.7134117784416603  1.0000
  C   C26       1.0  0.5540283329603426  0.8307017665171159  0.2861301259036964  1.0000
  C   C27       1.0  0.3521516758416681  0.2134658489792116  0.6548966987803695  1.0000
  C   C28       1.0  0.6965747547213327  0.786629268956716  0.3448568104150525  1.0000
  C   C29       1.0  0.2649713606248199  0.0542826752622716  0.8427804234629548  1.0000
  C   C30       1.0  0.4215026266045854  0.9460739021762308  0.156721084247728  1.0000
  C   C31       1.0  0.8486166559856445  0.5594415833791118  0.2173518074225811  1.0000
  C   C32       1.0  0.6308969625534289  0.4402720246347513  0.7829393614379613  1.0000
  C   C33       1.0  0.7383185041244433  0.5036829508121841  0.3245439662311398  1.0000
  C   C34       1.0  0.4130799610913201  0.4958362197124444  0.6752481158298238  1.0000
  C   C35       1.0  0.6123847046498768  0.5556360587318139  0.2640787605746553  1.0000
  C   C36       1.0  0.347623447270891  0.4443868816512904  0.7358466167369428  1.0000
  C   C37       1.0  0.6031467558744482  0.6427816156977074  0.11284473195224362  1.0000
  C   C38       1.0  0.48978013463285924  0.3575528665715595  0.8874330229669313  1.0000
  C   C39       1.0  0.4302269360500476  0.6258824937638252  0.06470463277712214  1.0000
  C   C40       1.0  0.36511565582277683  0.3746339053987811  0.9353900411690645  1.0000
  C   C41       1.0  0.3573876919902689  0.6724362788289255  0.979008194357192  1.0000
  C   C42       1.0  0.37819216286982293  0.3280624441983022  0.0210640483770419  1.0000
  C   C43       1.0  0.45158535812181805  0.7355010473550649  0.9408157422273575  1.0000
  C   C44       1.0  0.5106779991022563  0.2648312253972804  0.059363324235477  1.0000
  C   C45       1.0  0.6250009520378867  0.7492302490098695  0.9890456902356562  1.0000
  C   C46       1.0  0.635655113355611  0.2509031672193984  0.011296673966981505  1.0000
  C   C47       1.0  0.701223477599868  0.7044330298986737  0.07536811278753679  1.0000
  C   C48       1.0  0.6253113019758415  0.2957283735449466  0.9250537029305477  1.0000
  C   C49       1.0  0.8744620612799067  0.8563918197825657  0.9992665245655629  1.0000
  C   C50       1.0  0.8746782271895485  0.1438785864959371  0.0007878797355687267  1.0000
  C   C51       1.0  0.8441036577087573  0.8682119988157666  0.8442206002089279  1.0000
  C   C52       1.0  0.0008525054102434999  0.1316098755273316  0.15571412606750099  1.0000
  C   C53       1.0  0.7060266987137355  0.8145693469555724  0.8494169924513031  1.0000
  C   C54       1.0  0.8573884734612279  0.1851295309454741  0.1507619726146103  1.0000
  C   C55       1.0  0.12218330341230653  0.631207429548617  0.8272230389885138  1.0000
  C   C56       1.0  0.2954508803370359  0.3690563481791145  0.17279171056736686  1.0000
  C   C57       1.0  0.051488922055668206  0.6381858204975615  0.9663246246090224  1.0000
  C   C58       1.0  0.0848990359453126  0.3621714934465814  0.033567428783790404  1.0000
  C   C59       1.0  0.9122960995294633  0.6111030350648861  0.8886489382056624  1.0000
  C   C60       1.0  0.023647856713708396  0.3889375814536038  0.1111611095515173  1.0000
  N   N1        1.0  0.883519022745027  0.5057252809548132  0.29361052443493213  1.0000
  N   N2        1.0  0.5894374676135853  0.4936281758005805  0.706404449430501  1.0000
  N   N3        1.0  0.6839441009377367  0.5910450404365476  0.1954779768986938  1.0000
  N   N4        1.0  0.4879710360401006  0.4090920583209225  0.8047757113284321  1.0000
  N   N5        1.0  0.7261146641243457  0.8075939020291898  0.9485883032766154  1.0000
  N   N6        1.0  0.7773971803253374  0.19238263849852902  0.05165393750082362  1.0000
  N   N7        1.0  0.946953055358172  0.8939234107448044  0.9378699342846488  1.0000
  N   N8        1.0  0.0092346285244673  0.10628365604856782  0.06197494073246191  1.0000
  N   N9        1.0  0.18451392021992777  0.6512757352559291  0.9265107201840338  1.0000
  N   N10       1.0  0.2580906412862376  0.3492517114912914  0.07347059244575149  1.0000
  N   N11       1.0  0.9585343151305139  0.6060314572206238  0.8028183231874451  1.0000
  N   N12       1.0  0.1561831606043995  0.3939266706660689  0.1971099442628841  1.0000
  O   O1        1.0  0.06700973219026451  0.3707061208150648  0.4841465251883506  1.0000
  O   O2        1.0  0.5837196917739504  0.629474431775229  0.516148849227342  1.0000
  O   O3        1.0  0.072782219380592  0.2581687953683485  0.3627576333779388  1.0000
  O   O4        1.0  0.7113230735443494  0.7421796805081015  0.6374835879906513  1.0000
  O   O5        1.0  0.7364637896990159  0.4217798409992781  0.5298824727683993  1.0000
  O   O6        1.0  0.2071874648450347  0.5778954687212519  0.46998028604314607  1.0000
  O   O7        1.0  0.9367192711246092  0.3846231314083326  0.6655161099831233  1.0000
  O   O8        1.0  0.2714637754886908  0.6154771420670784  0.33466123064691544  1.0000
  O   O9        1.0  0.6008012489538359  0.2404911869718802  0.6079156865989717  1.0000
  O   O10       1.0  0.9923626316329432  0.759178230703526  0.3922600641833185  1.0000
  O   O11       1.0  0.1427032826614507  0.1007458701335153  0.8635840235660125  1.0000
  O   O12       1.0  0.2780118207134522  0.8999325602701235  0.13584167763905702  1.0000
  O   O13       1.0  0.32518446859616296  0.9753882997012795  0.8821574893386738  1.0000
  O   O14       1.0  0.4426790236254234  0.0248629574305497  0.11734257677700552  1.0000
  O   O15       1.0  0.43336986323871673  0.3638588278702244  0.4023801649176306  1.0000
  O   O16       1.0  0.031432133438507  0.6353819435220842  0.5976436458851637  1.0000
