data_image0
_chemical_formula_structural       Zn2H12C18N6O17
_chemical_formula_sum              "Zn2 H12 C18 N6 O17"
_cell_length_a       7.472802288812957
_cell_length_b       9.001860587676065
_cell_length_c       15.976730989550477
_cell_angle_alpha    85.18571665654207
_cell_angle_beta     87.20568270925162
_cell_angle_gamma    97.58626254502727

_space_group_name_H-M_alt    "P 1"
_space_group_IT_number       1

loop_
  _space_group_symop_operation_xyz
  'x, y, z'

loop_
  _atom_site_type_symbol
  _atom_site_label
  _atom_site_symmetry_multiplicity
  _atom_site_fract_x
  _atom_site_fract_y
  _atom_site_fract_z
  _atom_site_occupancy
  Zn  Zn1       1.0  0.6846318039060578  0.5422426584257496  0.4941586694837454  1.0000
  Zn  Zn2       1.0  0.31078207185343126  0.447900352226725  0.5107943455103268  1.0000
  H   H1        1.0  0.7218936929412434  0.6855805787972926  0.9111066006532766  1.0000
  H   H2        1.0  0.6446065715909839  0.7055593360974015  0.04810449718623739  1.0000
  H   H3        1.0  0.23137858204908204  0.45585271165847985  0.0705804561266561  1.0000
  H   H4        1.0  0.32644099070632393  0.642047602190864  0.0805608035607932  1.0000
  H   H5        1.0  0.4080623962934881  0.6919339953284266  0.9347670027103946  1.0000
  H   H6        1.0  0.24767950018941323  0.5328894969548089  0.9248799148367581  1.0000
  H   H7        1.0  0.40034619981980063  0.24679181327407923  0.0943537712198079  1.0000
  H   H8        1.0  0.32970856389481173  0.2922623878653212  0.957890983683406  1.0000
  H   H9        1.0  0.2989128999228753  0.9730365958376552  0.493388597141994  1.0000
  H   H10       1.0  0.931952609179639  0.3422410719208174  0.5158141543000101  1.0000
  H   H11       1.0  0.06315262059533208  0.6462961700813779  0.4925331054559337  1.0000
  H   H12       1.0  0.7765174040970421  0.30343755725399285  0.05048239615665299  1.0000
  C   C1        1.0  0.4554091890753965  0.7804749034306583  0.4899507327600291  1.0000
  C   C2        1.0  0.4947718608131807  0.48393394840292814  0.342886378931702  1.0000
  C   C3        1.0  0.5423226477081966  0.2099744131569707  0.5121238142219369  1.0000
  C   C4        1.0  0.5018629149096512  0.49853073768596096  0.6627336058486791  1.0000
  C   C5        1.0  0.6798406321974183  0.5918455303390502  0.04255842985385531  1.0000
  C   C6        1.0  0.34949383220669006  0.5399621833533885  0.051115650166671904  1.0000
  C   C7        1.0  0.37262780708954324  0.5712619021456646  0.9544865053419898  1.0000
  C   C8        1.0  0.5099167403319881  0.4949883866225094  0.752938421498982  1.0000
  C   C9        1.0  0.5203200021234693  0.4796548963570473  0.08614972228316731  1.0000
  C   C10       1.0  0.7025318051163933  0.5751134607491153  0.9471114630575174  1.0000
  C   C11       1.0  0.5250216672631466  0.4854817267775857  0.9191620318101671  1.0000
  C   C12       1.0  0.4752278429796917  0.3241049792752833  0.9633030074516924  1.0000
  C   C13       1.0  0.5164601143205018  0.31580945767965574  0.05920324347914631  1.0000
  C   C14       1.0  0.521974959388693  0.4894838537233568  0.8285255940261964  1.0000
  C   C15       1.0  0.5122848130546485  0.4787973297481471  0.1769321075090389  1.0000
  C   C16       1.0  0.4977767363512767  0.480427809123114  0.2527744245426433  1.0000
  C   C17       1.0  0.43455029922835553  0.9409004314328585  0.49454201624366334  1.0000
  C   C18       1.0  0.5704008409463839  0.049631551634590224  0.5045395650373052  1.0000
  N   N1        1.0  0.0325045363672061  0.43598051901044244  0.5101078364701764  1.0000
  N   N2        1.0  0.9627169145983386  0.5525399737271216  0.49695967564456117  1.0000
  N   N3        1.0  0.8634477636842135  0.6044593461540515  0.08236012118914723  1.0000
  N   N4        1.0  0.8721574646215656  0.5097141894830131  0.920265025296061  1.0000
  N   N5        1.0  0.7605704781963425  0.022682812305795608  0.509148563483663  1.0000
  N   N6        1.0  0.5572606584990325  0.2005967410373444  0.9227263613428037  1.0000
  O   O1        1.0  0.6120192222567696  0.7496107313931047  0.4700613205642625  1.0000
  O   O2        1.0  0.3132607881549561  0.6855908677031338  0.5081993058560457  1.0000
  O   O3        1.0  0.6483398578184988  0.4922311130224485  0.3751833816094319  1.0000
  O   O4        1.0  0.34144825660127504  0.4787437970837586  0.3822494907888299  1.0000
  O   O5        1.0  0.6797087750424637  0.3029828865090493  0.5245732001675805  1.0000
  O   O6        1.0  0.3817989918129925  0.23755720456414767  0.5051957674489105  1.0000
  O   O7        1.0  0.6451160465934364  0.5571394956508159  0.6194323237196997  1.0000
  O   O8        1.0  0.3531012316810305  0.4425581953933531  0.6350432474068273  1.0000
  O   O9        1.0  0.8876034299737227  0.5177482627048705  0.14273338855712583  1.0000
  O   O10       1.0  0.9747224614487705  0.7096482126023388  0.04875311323297639  1.0000
  O   O11       1.0  0.9321939285505606  0.4167484036830231  0.9701470343634854  1.0000
  O   O12       1.0  0.9412182957036775  0.5551011400133562  0.8501562236480993  1.0000
  O   O13       1.0  0.8597448060904682  0.06119139131523349  0.44462142899227797  1.0000
  O   O14       1.0  0.8077056226433185  0.9724983091000683  0.5776390712223645  1.0000
  O   O15       1.0  0.6665964312984727  0.24480083892571253  0.07877875321855751  1.0000
  O   O16       1.0  0.6971045199540669  0.23479904263599852  0.8770892667613026  1.0000
  O   O17       1.0  0.4766973098807625  0.0720304529995204  0.9404037341347832  1.0000
