data_image0
_chemical_formula_structural       Mn4H28C32S8N12O4
_chemical_formula_sum              "Mn4 H28 C32 S8 N12 O4"
_cell_length_a       7.780949152020992
_cell_length_b       7.857206113560769
_cell_length_c       18.429290443213855
_cell_angle_alpha    94.74031640509746
_cell_angle_beta     89.99974059135883
_cell_angle_gamma    90.0000841304997

_space_group_name_H-M_alt    "P 1"
_space_group_IT_number       1

loop_
  _space_group_symop_operation_xyz
  'x, y, z'

loop_
  _atom_site_type_symbol
  _atom_site_label
  _atom_site_symmetry_multiplicity
  _atom_site_fract_x
  _atom_site_fract_y
  _atom_site_fract_z
  _atom_site_occupancy
  Mn  Mn1       1.0  0.6612321607482842  0.6617762895699782  0.00017363959953799782  1.0000
  Mn  Mn2       1.0  0.16123496256300737  0.33822784946992357  0.4998227050641047  1.0000
  Mn  Mn3       1.0  0.33876202956437135  0.33822899738541407  0.9998242657382261  1.0000
  Mn  Mn4       1.0  0.8387643684975927  0.6617748599877372  0.500177274929321  1.0000
  H   H1        1.0  0.7810436032743764  0.22190313426672498  0.9733230141591772  1.0000
  H   H2        1.0  0.2810444360003288  0.778100683654898  0.5266764647058364  1.0000
  H   H3        1.0  0.21896086854959404  0.7780932015121917  0.026675643643557085  1.0000
  H   H4        1.0  0.7189548950573439  0.22190201996361478  0.47332405769067504  1.0000
  H   H5        1.0  0.3615083397672337  0.4469080365373159  0.8264254920636841  1.0000
  H   H6        1.0  0.861504796879757  0.5530894719028794  0.6735746839371471  1.0000
  H   H7        1.0  0.638496132050065  0.5530921129400566  0.17357493537613775  1.0000
  H   H8        1.0  0.13849453417292076  0.4469093946605795  0.3264262384346209  1.0000
  H   H9        1.0  0.46947764361551947  0.46715678258726706  0.7416655525114562  1.0000
  H   H10       1.0  0.9694757295263159  0.5328421262536055  0.7583339268920566  1.0000
  H   H11       1.0  0.5305255430115281  0.5328433668894091  0.25833487492956647  1.0000
  H   H12       1.0  0.030524886720222404  0.4671580232216712  0.2416665005513677  1.0000
  H   H13       1.0  0.5253406728162487  0.6000388151868703  0.8224290420375622  1.0000
  H   H14       1.0  0.025338035501768302  0.39996217034137516  0.67757081948924  1.0000
  H   H15       1.0  0.4746650841919973  0.399962611363172  0.17757143287700217  1.0000
  H   H16       1.0  0.9746625807454664  0.6000392562058746  0.3224296554301204  1.0000
  H   H17       1.0  0.9508021416630184  0.024831235353083493  0.8849996705768602  1.0000
  H   H18       1.0  0.4508010323694407  0.9751689068815279  0.615002060796911  1.0000
  H   H19       1.0  0.04920104496778071  0.9751650945859819  0.11499952963015396  1.0000
  H   H20       1.0  0.5491982986810056  0.024831230914749397  0.3849994514538863  1.0000
  H   H21       1.0  0.8928819200701029  0.03504715593024339  0.7501471701445438  1.0000
  H   H22       1.0  0.39287548985581827  0.9649516520417617  0.7498540795404833  1.0000
  H   H23       1.0  0.10711998137114163  0.9649504510800921  0.2498520775396144  1.0000
  H   H24       1.0  0.6071238411939319  0.03504720868254908  0.2501473852343635  1.0000
  H   H25       1.0  0.6751954742748723  0.24230089488570875  0.7110566018090123  1.0000
  H   H26       1.0  0.17518960076023402  0.7576976878856313  0.7889439696713152  1.0000
  H   H27       1.0  0.3248064271641411  0.7576979833574524  0.288943235754182  1.0000
  H   H28       1.0  0.8248110154804635  0.2423024499113494  0.21105754257828113  1.0000
  C   C1        1.0  0.42795766293924237  0.9296363436592612  0.9217314244740461  1.0000
  C   C2        1.0  0.9279647087940786  0.07036889952649258  0.5782689122563054  1.0000
  C   C3        1.0  0.5720339569783093  0.07036891409899228  0.07826919288155659  1.0000
  C   C4        1.0  0.0720384778520184  0.9296287366802855  0.4217276234112218  1.0000
  C   C5        1.0  0.054464391536633606  0.5559311326167135  0.9215375032931872  1.0000
  C   C6        1.0  0.5544668501252017  0.4440673129443906  0.5784638360879767  1.0000
  C   C7        1.0  0.9455195172381679  0.4440664685446833  0.07846228681086129  1.0000
  C   C8        1.0  0.44553505131089105  0.5559315594596155  0.4215365438783038  1.0000
  C   C9        1.0  0.7669299571542255  0.21863720950170765  0.9146170866489384  1.0000
  C   C10       1.0  0.2669275930431709  0.7813665813818742  0.585383503387163  1.0000
  C   C11       1.0  0.23307451466682494  0.7813591204380541  0.08538211355687508  1.0000
  C   C12       1.0  0.7330717380115815  0.21863611639749073  0.41461756141243455  1.0000
  C   C13       1.0  0.48575169294478837  0.47132013466801226  0.8007938990333014  1.0000
  C   C14       1.0  0.9857478381275869  0.5286775031304245  0.6992065873050348  1.0000
  C   C15       1.0  0.5142527788688938  0.5286787318982462  0.19920702333365625  1.0000
  C   C16       1.0  0.01425149292578  0.4713226405050077  0.3007943825426692  1.0000
  C   C17       1.0  0.6150827642972487  0.3428802969189134  0.8191302226909938  1.0000
  C   C18       1.0  0.11507790344683853  0.6571233345673092  0.6808701085695928  1.0000
  C   C19       1.0  0.3849217075236595  0.6571211354695734  0.18086970982168538  1.0000
  C   C20       1.0  0.884922712800389  0.3428780919799336  0.3191303663497748  1.0000
  C   C21       1.0  0.8571106603043503  0.11229136123084515  0.8648810368390298  1.0000
  C   C22       1.0  0.35710534907239827  0.8877125277828238  0.6351193847573098  1.0000
  C   C23       1.0  0.14289252632714522  0.8877062457801939  0.13511821084393455  1.0000
  C   C24       1.0  0.6428939819787374  0.11228888708541969  0.3648821749694306  1.0000
  C   C25       1.0  0.825328309397996  0.11909222342836757  0.7906804386703497  1.0000
  C   C26       1.0  0.3253196197396448  0.8809103480878302  0.7093205372204138  1.0000
  C   C27       1.0  0.17467744761400886  0.8809053835840642  0.20931880901020605  1.0000
  C   C28       1.0  0.6746822816949206  0.11909107262096798  0.29068048010083897  1.0000
  C   C29       1.0  0.7040823807761287  0.23469614608219294  0.7685504297589529  1.0000
  C   C30       1.0  0.20407328127282653  0.7653050281042578  0.7314496403172652  1.0000
  C   C31       1.0  0.2959220910440833  0.7653040092343273  0.2314494552777829  1.0000
  C   C32       1.0  0.7959247645895928  0.23469383845850436  0.2685512820557036  1.0000
  S   S1        1.0  0.2963780956371734  0.07484981902040028  0.8973160574096252  1.0000
  S   S2        1.0  0.7963784386173957  0.9251552926594184  0.6026834402895104  1.0000
  S   S3        1.0  0.7036186650472231  0.9251554504189485  0.10268347513500226  1.0000
  S   S4        1.0  0.20362346283469177  0.07484616308426689  0.3973143226132264  1.0000
  S   S5        1.0  0.9065033402377837  0.6865355446642382  0.8981144261194626  1.0000
  S   S6        1.0  0.40650138821627013  0.31346200106062116  0.6018867506428974  1.0000
  S   S7        1.0  0.0934844241163901  0.31346717646542993  0.10188446907859117  1.0000
  S   S8        1.0  0.5934979428305597  0.6865368538245418  0.3981152565350427  1.0000
  N   N1        1.0  0.5231540985452979  0.8232175784236516  0.9398869214235998  1.0000
  N   N2        1.0  0.0231639592598327  0.17678853053735105  0.5601115068702072  1.0000
  N   N3        1.0  0.47683623619438015  0.17678897976247035  0.06011157379680298  1.0000
  N   N4        1.0  0.9768417977681596  0.8232116598147599  0.43988512374681205  1.0000
  N   N5        1.0  0.1627954841397781  0.46131600571880665  0.938977099601345  1.0000
  N   N6        1.0  0.662798270934111  0.5386812806528595  0.5610239899591531  1.0000
  N   N7        1.0  0.8371858542645183  0.5386892695512981  0.06102189055459919  1.0000
  N   N8        1.0  0.33720363049767593  0.46131503176805916  0.4389768374583267  1.0000
  N   N9        1.0  0.6495203243319169  0.3295396520478704  0.8912981365530752  1.0000
  N   N10       1.0  0.14951497420035761  0.6704640227510622  0.6087015879812652  1.0000
  N   N11       1.0  0.35048414748467854  0.6704592203575359  0.10870224341080358  1.0000
  N   N12       1.0  0.8504830716663747  0.3295374037947808  0.3912988869404969  1.0000
  O   O1        1.0  0.561861159608597  0.4289526716335954  0.9409772212010094  1.0000
  O   O2        1.0  0.0618587662976111  0.5710496423854393  0.5590215347811592  1.0000
  O   O3        1.0  0.43814331220661273  0.5710436466278778  0.05902306381098299  1.0000
  O   O4        1.0  0.9381418499496165  0.42895178416180346  0.4409789401382084  1.0000
