data_image0
_chemical_formula_structural       Sm4H12C4S4O28
_chemical_formula_sum              "Sm4 H12 C4 S4 O28"
_cell_length_a       6.93088880247431
_cell_length_b       6.930858072475803
_cell_length_c       11.615835559000953
_cell_angle_alpha    89.99995515385953
_cell_angle_beta     89.99998828142078
_cell_angle_gamma    90.00134127148756

_space_group_name_H-M_alt    "P 1"
_space_group_IT_number       1

loop_
  _space_group_symop_operation_xyz
  'x, y, z'

loop_
  _atom_site_type_symbol
  _atom_site_label
  _atom_site_symmetry_multiplicity
  _atom_site_fract_x
  _atom_site_fract_y
  _atom_site_fract_z
  _atom_site_occupancy
  Sm  Sm1       1.0  0.6235609107707701  0.8811477300578688  0.1544707795738773  1.0000
  Sm  Sm2       1.0  0.37643928969547613  0.11885217376053703  0.6544703027333371  1.0000
  Sm  Sm3       1.0  0.11874958003882342  0.6236814756727468  0.40449507064728624  1.0000
  Sm  Sm4       1.0  0.8812490906136791  0.3763195430367715  0.9044952737638213  1.0000
  H   H1        1.0  0.39631071070883916  0.8204233642282333  0.9322874314604024  1.0000
  H   H2        1.0  0.6036893930875848  0.1795776180472544  0.4322882384074519  1.0000
  H   H3        1.0  0.1794851993097382  0.39644062767391125  0.182318248947233  1.0000
  H   H4        1.0  0.8205164342812454  0.6035592396382014  0.6823183532141572  1.0000
  H   H5        1.0  0.4523962780003927  0.6095107141897599  0.9742095584210448  1.0000
  H   H6        1.0  0.5476038112063436  0.39049021310422916  0.4742094126930639  1.0000
  H   H7        1.0  0.39042849243411143  0.4526049451770291  0.22420586847459845  1.0000
  H   H8        1.0  0.6095702409463899  0.5473948671649822  0.7242051634348317  1.0000
  H   H9        1.0  0.12967872338198563  0.9726688858383241  0.11349052454622212  1.0000
  H   H10       1.0  0.8703214913461681  0.027331071726358395  0.6134908919957098  1.0000
  H   H11       1.0  0.027365913592063907  0.12988587523303607  0.36349512758440744  1.0000
  H   H12       1.0  0.9726342141457921  0.8701151972661804  0.8634950890560165  1.0000
  C   C1        1.0  0.12644718081506315  0.8818878297484077  0.19123871958199606  1.0000
  C   C2        1.0  0.8735530068549692  0.11811202584721772  0.6912390442374061  1.0000
  C   C3        1.0  0.11815364136104733  0.12667660563492691  0.4412398529423029  1.0000
  C   C4        1.0  0.881847902119226  0.8733229220932587  0.9412406847197377  1.0000
  S   S1        1.0  0.7724162394251908  0.3858803101817259  0.21263028401314443  1.0000
  S   S2        1.0  0.22758394078321942  0.6141180745355256  0.7126304546064619  1.0000
  S   S3        1.0  0.6140543102807071  0.7724913179227285  0.46256917535803416  1.0000
  S   S4        1.0  0.385945782960171  0.22750818181486204  0.9625695075131305  1.0000
  O   O1        1.0  0.9009192058368857  0.3815461977319571  0.1108778037948071  1.0000
  O   O2        1.0  0.09908245261698312  0.6184537632763919  0.6108779878066956  1.0000
  O   O3        1.0  0.6182904998232815  0.9010657017162557  0.3608554117826089  1.0000
  O   O4        1.0  0.3817096288162745  0.09893393142194641  0.8608558045065638  1.0000
  O   O5        1.0  0.6203466220959158  0.5383185409428749  0.19673127214419853  1.0000
  O   O6        1.0  0.37965212082885813  0.46167986460780236  0.6967340783500264  1.0000
  O   O7        1.0  0.4616665927402863  0.6204059235319336  0.4466056676031372  1.0000
  O   O8        1.0  0.5383335060562688  0.37959359714233903  0.9466059104018855  1.0000
  O   O9        1.0  0.6793826729694603  0.19760093520783778  0.2307779734039528  1.0000
  O   O10       1.0  0.3206189437564505  0.8023988685479183  0.7307780448667601  1.0000
  O   O11       1.0  0.8023898140304341  0.6795439793984103  0.48063331888366895  1.0000
  O   O12       1.0  0.19760883010746977  0.32045549663121164  0.9806327693617831  1.0000
  O   O13       1.0  0.8874654619774703  0.4289137781348841  0.3159728112767796  1.0000
  O   O14       1.0  0.11253323948278653  0.5710873566742335  0.815973015798079  1.0000
  O   O15       1.0  0.5710092115582699  0.8874635236320998  0.565940104812654  1.0000
  O   O16       1.0  0.42898813408578473  0.1125364962628694  0.06594010317762412  1.0000
  O   O17       1.0  0.9641241167074315  0.8294697500792905  0.23328817483046294  1.0000
  O   O18       1.0  0.0358760563284193  0.17053005036716232  0.7332885756729652  1.0000
  O   O19       1.0  0.17029528641148775  0.964390201210456  0.4834466910468863  1.0000
  O   O20       1.0  0.8297047995804336  0.03561071396841701  0.9834470595103398  1.0000
  O   O21       1.0  0.28423591304884616  0.8352561687953184  0.23910527326649603  1.0000
  O   O22       1.0  0.7157642579625332  0.16474362402188797  0.7391055951024655  1.0000
  O   O23       1.0  0.16500805862150264  0.2845421355263155  0.4889651789587219  1.0000
  O   O24       1.0  0.8349949110656569  0.7154573296255081  0.9889660901093863  1.0000
  O   O25       1.0  0.4232935080670758  0.7421237405993466  0.0007763273777073  1.0000
  O   O26       1.0  0.5767067459052342  0.2578778076167936  0.5007757615274784  1.0000
  O   O27       1.0  0.2577857085674324  0.4236112948089853  0.2507730637208567  1.0000
  O   O28       1.0  0.742214458400227  0.5763899255284811  0.7507731900897525  1.0000
