data_image0
_chemical_formula_structural       CdH8C8Cl2O6
_chemical_formula_sum              "Cd1 H8 C8 Cl2 O6"
_cell_length_a       4.927842747590553
_cell_length_b       7.481553788213367
_cell_length_c       8.429576250876877
_cell_angle_alpha    99.48374810685237
_cell_angle_beta     100.318695202707
_cell_angle_gamma    99.77877164867037

_space_group_name_H-M_alt    "P 1"
_space_group_IT_number       1

loop_
  _space_group_symop_operation_xyz
  'x, y, z'

loop_
  _atom_site_type_symbol
  _atom_site_label
  _atom_site_symmetry_multiplicity
  _atom_site_fract_x
  _atom_site_fract_y
  _atom_site_fract_z
  _atom_site_occupancy
  Cd  Cd1       1.0  0.9999973386576498  0.5000004636433245  0.9999997773752722  1.0000
  H   H1        1.0  0.7736264746857061  0.0250568828311231  0.10849951814097379  1.0000
  H   H2        1.0  0.22636859313104202  0.9749414312155051  0.8914987256207991  1.0000
  H   H3        1.0  0.9765584268430203  0.9025734921267838  0.23209638516377845  1.0000
  H   H4        1.0  0.0234391340098981  0.09742621038760287  0.7679011374743678  1.0000
  H   H5        1.0  0.601515854041267  0.847119015688058  0.19919039538219604  1.0000
  H   H6        1.0  0.39847921104591677  0.15287930225634477  0.8008066623713785  1.0000
  H   H7        1.0  0.5968842659597868  0.723911399940988  0.9235101162464614  1.0000
  H   H8        1.0  0.40311166544025673  0.276089687350229  0.0764874438823142  1.0000
  C   C1        1.0  0.7403104411862884  0.36073773242056717  0.4538709293746449  1.0000
  C   C2        1.0  0.2596958087194068  0.6392633465579677  0.5461300712553764  1.0000
  C   C3        1.0  0.8565320801798252  0.42711126527786547  0.330026504826371  1.0000
  C   C4        1.0  0.14347624598297404  0.5728897941083486  0.6699806395416202  1.0000
  C   C5        1.0  0.7799161952794691  0.8901588527383808  0.1427484941665682  1.0000
  C   C6        1.0  0.22008093241701934  0.10983946510260269  0.8572487772839779  1.0000
  C   C7        1.0  0.8653354584400574  0.4283364999227857  0.6218563578301824  1.0000
  C   C8        1.0  0.13467241272983443  0.5716632059722642  0.3781410472846146  1.0000
  Cl  Cl1       1.0  0.43031510612678403  0.19702703942954972  0.40111791043626244  1.0000
  Cl  Cl2       1.0  0.5696841873518537  0.8029782017784513  0.5988806169523001  1.0000
  O   O1        1.0  0.7453097317902576  0.37565983521938046  0.17692156311216678  1.0000
  O   O2        1.0  0.2546919624699556  0.6243398553948155  0.823079944944517  1.0000
  O   O3        1.0  0.75844893339017  0.37513760436411986  0.7360691558593471  1.0000
  O   O4        1.0  0.24155276905872106  0.6248620745567377  0.26393591022193147  1.0000
  O   O5        1.0  0.7836274177248654  0.7543991205489605  0.0006485762929458643  1.0000
  O   O6        1.0  0.21637057901404694  0.24560196274104837  0.9993503835410065  1.0000
