data_image0
_chemical_formula_structural       Lu2H26C24N6O16
_chemical_formula_sum              "Lu2 H26 C24 N6 O16"
_cell_length_a       10.081244116569856
_cell_length_b       10.233899115304437
_cell_length_c       10.618014305156843
_cell_angle_alpha    103.22274461259717
_cell_angle_beta     115.49999426234632
_cell_angle_gamma    92.7874170339935

_space_group_name_H-M_alt    "P 1"
_space_group_IT_number       1

loop_
  _space_group_symop_operation_xyz
  'x, y, z'

loop_
  _atom_site_type_symbol
  _atom_site_label
  _atom_site_symmetry_multiplicity
  _atom_site_fract_x
  _atom_site_fract_y
  _atom_site_fract_z
  _atom_site_occupancy
  Lu  Lu1       1.0  0.4691469547003281  0.23585642342985125  0.014459200883337225  1.0000
  Lu  Lu2       1.0  0.5308576864260458  0.7641441099077682  0.9855368769985946  1.0000
  H   H1        1.0  0.41224346542607293  0.4292240279574245  0.8392233356891057  1.0000
  H   H2        1.0  0.5877538379424577  0.5707724216318937  0.16076976731966416  1.0000
  H   H3        1.0  0.3742646255063562  0.27754998254782504  0.7412970240214708  1.0000
  H   H4        1.0  0.625737253296741  0.7224474851388933  0.2587010072268828  1.0000
  H   H5        1.0  0.2697464240664972  0.006018003212751901  0.7465692522361496  1.0000
  H   H6        1.0  0.7302430099190289  0.9939835247209887  0.25342175062277766  1.0000
  H   H7        1.0  0.43902682031432505  0.9858305013768671  0.8131905648719314  1.0000
  H   H8        1.0  0.560963107633718  0.014161829553032098  0.18681555064414115  1.0000
  H   H9        1.0  0.2222369611048833  0.1729711345801377  0.1741597648541174  1.0000
  H   H10       1.0  0.777757013412959  0.8270252816574413  0.8258451505003068  1.0000
  H   H11       1.0  0.2677325147182756  0.596236868280954  0.1547482934184928  1.0000
  H   H12       1.0  0.732283880127582  0.40377996729466764  0.8452562257866209  1.0000
  H   H13       1.0  0.8909888585577336  0.5893680319639361  0.2852788953531517  1.0000
  H   H14       1.0  0.1090062130227878  0.41062838375385274  0.7147274116795403  1.0000
  H   H15       1.0  0.9391213949201287  0.6851571971909252  0.7741847518621159  1.0000
  H   H16       1.0  0.06086771899403232  0.31485453560166127  0.22579614247102608  1.0000
  H   H17       1.0  0.1287555002587411  0.7327286586172762  0.8607825343549895  1.0000
  H   H18       1.0  0.8712187598176937  0.2672738947164888  0.13918928696876517  1.0000
  H   H19       1.0  0.8175973828501101  0.18349836202791184  0.796417980294173  1.0000
  H   H20       1.0  0.18242230815963723  0.8165123791594696  0.20358277038705824  1.0000
  H   H21       1.0  0.99729345367421  0.17872862956342322  0.8262168191514335  1.0000
  H   H22       1.0  0.0027229190171383583  0.8212881854762558  0.17379710439512772  1.0000
  H   H23       1.0  0.7375215369271401  0.24202412443373333  0.4402798265363758  1.0000
  H   H24       1.0  0.2624733541158761  0.7579712772682683  0.559724297667387  1.0000
  H   H25       1.0  0.8754310926519435  0.2577328994266423  0.6162687697208186  1.0000
  H   H26       1.0  0.12457093788780328  0.742265555579138  0.3837436700003425  1.0000
  C   C1        1.0  0.10975907053579449  0.4235191128900553  0.9953885550106069  1.0000
  C   C2        1.0  0.8902477575246194  0.5764875101832703  0.00461919022071581  1.0000
  C   C3        1.0  0.7128626311880238  0.3783014161774574  0.2602200768177951  1.0000
  C   C4        1.0  0.2871300707054942  0.6216878937352562  0.7397733204707253  1.0000
  C   C5        1.0  0.29540985025537486  0.9654484039182311  0.03423401792213104  1.0000
  C   C6        1.0  0.7045654542578887  0.0345480026734251  0.9657557028089631  1.0000
  C   C7        1.0  0.1234433438938822  0.097281979147894  0.09826093500775814  1.0000
  C   C8        1.0  0.8765570529465379  0.9027073415014543  0.9017356209896551  1.0000
  C   C9        1.0  0.14234325744155288  0.9797100930519419  0.013792918256548619  1.0000
  C   C10       1.0  0.8576485345731371  0.0202802375571309  0.9861984488801884  1.0000
  C   C11       1.0  0.9575316485694074  0.3649169957815062  0.904541206916136  1.0000
  C   C12       1.0  0.042481050249357104  0.6350916753139729  0.09546751758880138  1.0000
  C   C13       1.0  0.8583671674048928  0.4395190198220861  0.38553299355235293  1.0000
  C   C14       1.0  0.1416321340433413  0.5604764003367039  0.6144672930230473  1.0000
  C   C15       1.0  0.1491777121546747  0.5557898033859843  0.08809143217288107  1.0000
  C   C16       1.0  0.8508368174989869  0.44421683658475086  0.9119166504648891  1.0000
  C   C17       1.0  0.016025844413654525  0.8777749536213123  0.9121719373611302  1.0000
  C   C18       1.0  0.9839756710989886  0.122220483980243  0.08782266866351306  1.0000
  C   C19       1.0  0.9401888796241948  0.5514571245866905  0.38070771666928516  1.0000
  C   C20       1.0  0.05981480785930418  0.4485382914393411  0.6192990770533556  1.0000
  C   C21       1.0  0.918379332800754  0.38413293871797555  0.5073609681520496  1.0000
  C   C22       1.0  0.08162654880809579  0.6158624762684823  0.4926486089271337  1.0000
  C   C23       1.0  0.23255763149611403  0.34840074316863934  0.000690084166180369  1.0000
  C   C24       1.0  0.7674477334507585  0.6516099452217717  0.9993198472877156  1.0000
  N   N1        1.0  0.0272494895995976  0.7622012215004191  0.8236232994075012  1.0000
  N   N2        1.0  0.9727373908560535  0.2378043784309867  0.17636567669329398  1.0000
  N   N3        1.0  0.9129636685160277  0.23459290334303515  0.808061791057249  1.0000
  N   N4        1.0  0.0870550815985922  0.7654188297903844  0.19195009555022594  1.0000
  N   N5        1.0  0.8462574478627474  0.27130575884766023  0.5153911206037523  1.0000
  N   N6        1.0  0.1537416575398254  0.728688632920182  0.48461356618173584  1.0000
  O   O1        1.0  0.36316504710811864  0.39243047916800583  0.10755613202054803  1.0000
  O   O2        1.0  0.6368404623484805  0.6075628975189105  0.8924537815715117  1.0000
  O   O3        1.0  0.6602412922249172  0.4271034044821179  0.1486873491398699  1.0000
  O   O4        1.0  0.339764252133925  0.5728961019983672  0.8513135801962766  1.0000
  O   O5        1.0  0.39614627232342053  0.07334295760518471  0.09198355856153748  1.0000
  O   O6        1.0  0.6038438771301385  0.9266382304330776  0.9079956865880381  1.0000
  O   O7        1.0  0.21213808546247748  0.23976586430543279  0.9000249837966624  1.0000
  O   O8        1.0  0.7878744538833685  0.7602540071823183  0.09998427891871126  1.0000
  O   O9        1.0  0.4451279213285844  0.3377904232940878  0.8351662069168386  1.0000
  O   O10       1.0  0.5548752550137479  0.6622080763709804  0.16482693493140502  1.0000
  O   O11       1.0  0.3265071972388683  0.8478732159890403  0.9976019361498206  1.0000
  O   O12       1.0  0.6734849791308691  0.1521313591132554  0.002395577249991755  1.0000
  O   O13       1.0  0.6365982745531227  0.2705701725155265  0.25404356405358197  1.0000
  O   O14       1.0  0.36339990600743727  0.7294191286374527  0.7459596129287364  1.0000
  O   O15       1.0  0.3716110961661058  0.0550158735365258  0.7949054257848477  1.0000
  O   O16       1.0  0.6283808564470447  0.9449754526059809  0.2050965880881252  1.0000
