data_image0
_chemical_formula_structural       Al6H16C60N2O28
_chemical_formula_sum              "Al6 H16 C60 N2 O28"
_cell_length_a       12.328466317984812
_cell_length_b       12.437829968103554
_cell_length_c       27.06885366274421
_cell_angle_alpha    98.03463214447271
_cell_angle_beta     89.61007021120888
_cell_angle_gamma    120.55641799853365

_space_group_name_H-M_alt    "P 1"
_space_group_IT_number       1

loop_
  _space_group_symop_operation_xyz
  'x, y, z'

loop_
  _atom_site_type_symbol
  _atom_site_label
  _atom_site_symmetry_multiplicity
  _atom_site_fract_x
  _atom_site_fract_y
  _atom_site_fract_z
  _atom_site_occupancy
  Al  Al1       1.0  0.41297673588574935  0.8149298397776409  0.48747178238141226  1.0000
  Al  Al2       1.0  0.6727341037790069  0.08245426368173271  0.5022288274404687  1.0000
  Al  Al3       1.0  0.42828014520210184  0.08212910500479612  0.5036030388309314  1.0000
  Al  Al4       1.0  0.926445376238476  0.8456829367225115  0.0197702231133903  1.0000
  Al  Al5       1.0  0.9167180384693764  0.5800789477366595  0.004735091222940505  1.0000
  Al  Al6       1.0  0.6700173886857427  0.5748142386943443  0.002838961054557402  1.0000
  H   H1        1.0  0.7159592283599779  0.17455780839070206  0.2827788569806842  1.0000
  H   H2        1.0  0.040728445748868754  0.9200265339933226  0.8490297396053349  1.0000
  H   H3        1.0  0.055556227637822475  0.010750180441611702  0.8048212592442424  1.0000
  H   H4        1.0  0.08346811366060808  0.9701183130685113  0.6768764659303345  1.0000
  H   H5        1.0  0.9907986069961155  0.952438518346  0.7251771819993563  1.0000
  H   H6        1.0  0.8091683150452195  0.036369088014311005  0.7265781178073141  1.0000
  H   H7        1.0  0.8046449444552766  0.9981715506778815  0.8148446275170399  1.0000
  H   H8        1.0  0.5822502068473625  0.5962402475256924  0.7645413374004731  1.0000
  H   H9        1.0  0.6285362456039748  0.4704085777842693  0.3178894633099744  1.0000
  H   H10       1.0  0.26796530079881364  0.7303793226730876  0.6986616055668478  1.0000
  H   H11       1.0  0.23101925502530932  0.6896648040258884  0.7871715622452767  1.0000
  H   H12       1.0  0.5867879291344237  0.6340638095832887  0.6763496306565953  1.0000
  H   H13       1.0  0.7262821989815507  0.2021237298734277  0.1933003017400665  1.0000
  H   H14       1.0  0.638936224609587  0.4979778378877954  0.22842177471383  1.0000
  H   H15       1.0  0.32020506835368684  0.6098289824199555  0.5062519154584776  1.0000
  H   H16       1.0  0.048958126889807795  0.053055311848169105  0.003442861650505299  1.0000
  C   C1        1.0  0.6219394418163517  0.9008900079064832  0.4185067271565401  1.0000
  C   C2        1.0  0.12916848210463885  0.8006692306172667  0.18294585328012397  1.0000
  C   C3        1.0  0.15582025997562715  0.8192519928334434  0.23237871021878215  1.0000
  C   C4        1.0  0.6310314254084517  0.2342818716994586  0.44634334570691436  1.0000
  C   C5        1.0  0.17776651933477441  0.8360943617640827  0.27807581644140805  1.0000
  C   C6        1.0  0.20451722802704356  0.8560583335765345  0.32754231017756297  1.0000
  C   C7        1.0  0.23123177347206086  0.8758700124639989  0.3727304067951139  1.0000
  C   C8        1.0  0.669398043889444  0.7809877006772155  0.1313254358251044  1.0000
  C   C9        1.0  0.6617580307215076  0.800668902467194  0.17654662809433566  1.0000
  C   C10       1.0  0.6566680195692101  0.8219046346794202  0.22615177666203576  1.0000
  C   C11       1.0  0.6560489674366395  0.8414414497111128  0.2720911535144949  1.0000
  C   C12       1.0  0.655480069365062  0.4272660972739788  0.24054226674090978  1.0000
  C   C13       1.0  0.6528753605495938  0.8617372919717001  0.32185232693940685  1.0000
  C   C14       1.0  0.6479560621007465  0.8799703717168371  0.3673261257793569  1.0000
  C   C15       1.0  0.696251342271502  0.37594966602571134  0.8741477814904358  1.0000
  C   C16       1.0  0.2836002803216007  0.9037144142425365  0.4232537729595619  1.0000
  C   C17       1.0  0.6853920633662794  0.35391303847828953  0.8282260529405148  1.0000
  C   C18       1.0  0.674900760451159  0.3323733215773501  0.7780311812276536  1.0000
  C   C19       1.0  0.6667236536118395  0.3153676597584579  0.7318227988902564  1.0000
  C   C20       1.0  0.6559517192682591  0.2938533753388129  0.6816197705160575  1.0000
  C   C21       1.0  0.6449082427025701  0.2719172738239665  0.6356978828948314  1.0000
  C   C22       1.0  0.23007862793129166  0.8828992330895673  0.6104583462317095  1.0000
  C   C23       1.0  0.6498650644634977  0.412096047215229  0.2904743590683267  1.0000
  C   C24       1.0  0.2207518885749808  0.7688466328630955  0.7227788582715461  1.0000
  C   C25       1.0  0.2005479209158597  0.7465950828432997  0.7713246225568752  1.0000
  C   C26       1.0  0.10002200529914539  0.8751836147694834  0.7830892823835853  1.0000
  C   C27       1.0  0.11678240239657389  0.8942852578424554  0.7324618454921534  1.0000
  C   C28       1.0  0.6464980802567766  0.9056342069136392  0.5587341604774209  1.0000
  C   C29       1.0  0.1795557943594163  0.8429979372931273  0.7028897346417081  1.0000
  C   C30       1.0  0.1415989242170854  0.8005994158953842  0.8021605473780082  1.0000
  C   C31       1.0  0.1241858918901574  0.7838825390244825  0.852508409694039  1.0000
  C   C32       1.0  0.20339704879678075  0.8653619541897157  0.6532877002375483  1.0000
  C   C33       1.0  0.10565493880066171  0.7752010587684027  0.8965654526382422  1.0000
  C   C34       1.0  0.6716163547714871  0.32073932447816844  0.3062777873114583  1.0000
  C   C35       1.0  0.6809800990171978  0.8793541675121687  0.6042404754916858  1.0000
  C   C36       1.0  0.7609327891703758  0.9403372096698351  0.735165116101868  1.0000
  C   C37       1.0  0.7579378170416078  0.9192121371964745  0.7842371986680874  1.0000
  C   C38       1.0  0.6319794597268427  0.6922154918817043  0.7559431638655523  1.0000
  C   C39       1.0  0.634866026624138  0.7131674272467309  0.7068199539891324  1.0000
  C   C40       1.0  0.6190419448533929  0.2233239770160226  0.5830033759794019  1.0000
  C   C41       1.0  0.6981540082087888  0.8375649448905166  0.6956885551399097  1.0000
  C   C42       1.0  0.6924942190366182  0.7948620971958038  0.7954552321944774  1.0000
  C   C43       1.0  0.689534191265352  0.7751128193280366  0.8457424743577916  1.0000
  C   C44       1.0  0.6924785131708758  0.8598236627137938  0.6462335728413747  1.0000
  C   C45       1.0  0.6829572344300416  0.3516075720956096  0.20489933732390134  1.0000
  C   C46       1.0  0.6904273345967199  0.7618280843177704  0.8894807357812196  1.0000
  C   C47       1.0  0.0520833880469455  0.7595328188829957  0.08725031346713762  1.0000
  C   C48       1.0  0.7187781974979046  0.4338041102818195  0.064076396123987  1.0000
  C   C49       1.0  0.7018949545333371  0.7574135421376978  0.0815489642668012  1.0000
  C   C50       1.0  0.05963133653705913  0.7578790754394688  0.9451288467385834  1.0000
  C   C51       1.0  0.7222915143378472  0.4273234980084626  0.9265449858963918  1.0000
  C   C52       1.0  0.28573609441851033  0.9032703099591259  0.5635728935521057  1.0000
  C   C53       1.0  0.7121457240762368  0.7457843951706168  0.9393389232768924  1.0000
  C   C54       1.0  0.6547926818684999  0.2833514002510782  0.4002040260487973  1.0000
  C   C55       1.0  0.6994286750307521  0.24528942506244536  0.2706621969680683  1.0000
  C   C56       1.0  0.6898195174544526  0.36907877592638993  0.15414417229411728  1.0000
  C   C57       1.0  0.7049979100360985  0.2604554039421956  0.22072138482298695  1.0000
  C   C58       1.0  0.663608234431571  0.3025206697214173  0.3569485304342875  1.0000
  C   C59       1.0  0.6968656992008918  0.3873521924699547  0.11079202102440178  1.0000
  C   C60       1.0  0.10269464914863155  0.7834666399626046  0.137840061050575  1.0000
  N   N1        1.0  0.03910298487931408  0.9258123656426066  0.8119249579622903  1.0000
  N   N2        1.0  0.07594445867147948  0.9674497116538491  0.7142087472546663  1.0000
  O   O1        1.0  0.29828014069381237  0.8210594708665867  0.4391904916819698  1.0000
  O   O2        1.0  0.6389797073467208  0.45948798443274813  0.0473017285239479  1.0000
  O   O3        1.0  0.620383152647925  0.6540067467410894  0.05348958281187779  1.0000
  O   O4        1.0  0.5145644370791514  0.8212744201926653  0.43052864365963467  1.0000
  O   O5        1.0  0.8137102722353121  0.8314261979436213  0.9635464308538814  1.0000
  O   O6        1.0  0.034736321525066755  0.8389549357245444  0.9669558463024187  1.0000
  O   O7        1.0  0.042078719248934304  0.6585532769121444  0.9621735302951108  1.0000
  O   O8        1.0  0.8299548801540195  0.45774614127194  0.9461085508263309  1.0000
  O   O9        1.0  0.6389013268661614  0.4445346981072547  0.9483269875108462  1.0000
  O   O10       1.0  0.6283879561617881  0.6426122631924828  0.9543102768343842  1.0000
  O   O11       1.0  0.8364727280184424  0.6645133393008182  0.008591413812929698  1.0000
  O   O12       1.0  0.7004763862326866  0.20355057299795484  0.5610443136966409  1.0000
  O   O13       1.0  0.7081760821252698  0.0007258837186867982  0.4467412629125178  1.0000
  O   O14       1.0  0.7106505324091899  0.20772253658773118  0.46284855628310584  1.0000
  O   O15       1.0  0.5296456883459583  0.21390937747363384  0.4667274333510107  1.0000
  O   O16       1.0  0.31598083013670214  0.0143176419168967  0.4471800895841937  1.0000
  O   O17       1.0  0.32215887940425597  0.8283214999386671  0.5456798237257345  1.0000
  O   O18       1.0  0.539990983685037  0.824970026670016  0.5367149764000486  1.0000
  O   O19       1.0  0.7259718017224015  0.013159284125741499  0.5454809655296557  1.0000
  O   O20       1.0  0.5130731771727993  0.19833428541393522  0.5634460319996321  1.0000
  O   O21       1.0  0.29869310684151873  0.9980233984218855  0.5440017318958538  1.0000
  O   O22       1.0  0.5064372383086211  0.9956998495249538  0.4978631651115179  1.0000
  O   O23       1.0  0.8099463214944224  0.837827139775378  0.07050128770942621  1.0000
  O   O24       1.0  0.027253069251372743  0.8386366127867505  0.0742669332963004  1.0000
  O   O25       1.0  0.03214240320986777  0.6561196702306875  0.06026880246422912  1.0000
  O   O26       1.0  0.8196020948922679  0.4525615675014409  0.0434683938250444  1.0000
  O   O27       1.0  0.3288122376393758  0.6499189296150902  0.4771907210970524  1.0000
  O   O28       1.0  0.0060831936891503  0.0106150062823218  0.030938289206872593  1.0000
