data_image0
_chemical_formula_structural       Zn2H40C38N8O10
_chemical_formula_sum              "Zn2 H40 C38 N8 O10"
_cell_length_a       9.062233591994906
_cell_length_b       9.339576342013407
_cell_length_c       12.277084623902132
_cell_angle_alpha    83.73508817132729
_cell_angle_beta     84.82079393804338
_cell_angle_gamma    87.63077715970327

_space_group_name_H-M_alt    "P 1"
_space_group_IT_number       1

loop_
  _space_group_symop_operation_xyz
  'x, y, z'

loop_
  _atom_site_type_symbol
  _atom_site_label
  _atom_site_symmetry_multiplicity
  _atom_site_fract_x
  _atom_site_fract_y
  _atom_site_fract_z
  _atom_site_occupancy
  Zn  Zn1       1.0  0.15631723457047295  0.7409269354502398  0.2456104015764495  1.0000
  Zn  Zn2       1.0  0.8436744620591199  0.25909010975591673  0.7543894350709974  1.0000
  H   H1        1.0  0.5303851437383429  0.9013819184640892  0.3980638255553968  1.0000
  H   H2        1.0  0.469628931257752  0.09861192785928097  0.6019330979269454  1.0000
  H   H3        1.0  0.7529528963024603  0.04001316652250608  0.4206130906303329  1.0000
  H   H4        1.0  0.24707484792842396  0.9599712855220656  0.5793632804590416  1.0000
  H   H5        1.0  0.5999496112450018  0.8923333719787295  0.9404180162166682  1.0000
  H   H6        1.0  0.40004677580216014  0.10767730434360348  0.059568986098618396  1.0000
  H   H7        1.0  0.5221197888023781  0.8619005155002668  0.07825551445015576  1.0000
  H   H8        1.0  0.47787123820856453  0.13810679421325026  0.92173052265845  1.0000
  H   H9        1.0  0.04241783760857494  0.8771539756176093  0.477273496958638  1.0000
  H   H10       1.0  0.9575592409326107  0.12286595134627729  0.5227222537718247  1.0000
  H   H11       1.0  0.868344310913855  0.9480324892611021  0.2273784115985791  1.0000
  H   H12       1.0  0.13163842674453724  0.051985416103526895  0.772617104703869  1.0000
  H   H13       1.0  0.8134456709728682  0.7494888166804968  0.615431426205511  1.0000
  H   H14       1.0  0.18655660590481923  0.25049935627399106  0.3845741441223182  1.0000
  H   H15       1.0  0.9115095777060847  0.5130152117949365  0.34006770620509735  1.0000
  H   H16       1.0  0.08850297320946508  0.48698615153528385  0.6599311407143488  1.0000
  H   H17       1.0  0.8553066798829293  0.8514042175945774  0.899241314841177  1.0000
  H   H18       1.0  0.14469471257061173  0.14859795404669274  0.10075500200239418  1.0000
  H   H19       1.0  0.29175748199853047  0.3596846859838933  0.0323764785461051  1.0000
  H   H20       1.0  0.7082249643259217  0.6403030168391267  0.9676411342911847  1.0000
  H   H21       1.0  0.473717767168786  0.38375434921501045  0.06669624578604777  1.0000
  H   H22       1.0  0.5262644842472212  0.6162365849907943  0.9333202960704909  1.0000
  H   H23       1.0  0.77643155814107  0.2899610586022519  0.3263052793491852  1.0000
  H   H24       1.0  0.2235881606821977  0.7100285973806918  0.6736753013866944  1.0000
  H   H25       1.0  0.5245841832382964  0.6617285474055733  0.5014806987512301  1.0000
  H   H26       1.0  0.47543033841017046  0.3382599254293551  0.4985321187295426  1.0000
  H   H27       1.0  0.5749371411063892  0.5621267982728425  0.38830221029732565  1.0000
  H   H28       1.0  0.4250728141430642  0.43786372138411167  0.6117091324943615  1.0000
  H   H29       1.0  0.09479710489907231  0.7020106432177825  0.9923305612700373  1.0000
  H   H30       1.0  0.9052017896004898  0.2979979484537977  0.007675985654039204  1.0000
  H   H31       1.0  0.7238741070107437  0.11285984166774199  0.9895674713220683  1.0000
  H   H32       1.0  0.27612147998980424  0.8871465041924576  0.01042646666977731  1.0000
  H   H33       1.0  0.6647129134216386  0.06290509437026509  0.12926186123656438  1.0000
  H   H34       1.0  0.3352761160341728  0.9370989328139744  0.8707278511044477  1.0000
  H   H35       1.0  0.6929150045490502  0.5033634844232392  0.617445885073998  1.0000
  H   H36       1.0  0.3071071456629255  0.4966262465379642  0.3825597668162359  1.0000
  H   H37       1.0  0.7403655581174533  0.3986980641712421  0.5069001404907638  1.0000
  H   H38       1.0  0.25964759860507064  0.601293607113412  0.4931043613185224  1.0000
  H   H39       1.0  0.5776838053269698  0.4004665252859354  0.21531895765438236  1.0000
  H   H40       1.0  0.4223067085173398  0.5995343153644653  0.7846929080611174  1.0000
  C   C1        1.0  0.4256981423017053  0.0723793963621162  0.29941966231779554  1.0000
  C   C2        1.0  0.5743059512770898  0.9276152919062991  0.700582789761931  1.0000
  C   C3        1.0  0.4392480012586901  0.21472009470878103  0.2471001654619158  1.0000
  C   C4        1.0  0.5607504894205706  0.7852766207663675  0.7529090329060679  1.0000
  C   C5        1.0  0.2941665941399805  0.9827540227685532  0.2886558251670762  1.0000
  C   C6        1.0  0.7058375205204398  0.01724066760267109  0.7113490688602438  1.0000
  C   C7        1.0  0.3033486670342285  0.532079088494882  0.12866103340254398  1.0000
  C   C8        1.0  0.6966415049480331  0.4679260524883302  0.8713399078757789  1.0000
  C   C9        1.0  0.5405998552373674  0.012077994001813896  0.3602880901697105  1.0000
  C   C10       1.0  0.45941094801355575  0.987914693684516  0.6397075344697354  1.0000
  C   C11       1.0  0.6656219518670952  0.0895182002040045  0.37208264878587727  1.0000
  C   C12       1.0  0.3343965560110291  0.9104735859795741  0.62790028371748  1.0000
  C   C13       1.0  0.5625019233661918  0.9458022670176545  0.013686984844277102  1.0000
  C   C14       1.0  0.43749785365308475  0.054207412518309184  0.9863006736635214  1.0000
  C   C15       1.0  0.9808317055340298  0.7822163587541907  0.4698731295901694  1.0000
  C   C16       1.0  0.01915695580430571  0.2177952169680849  0.5301241229136195  1.0000
  C   C17       1.0  0.8974966897236458  0.897984190401466  0.1523689737688727  1.0000
  C   C18       1.0  0.10249639870512081  0.10202749181938486  0.8476279541267929  1.0000
  C   C19       1.0  0.8658334735679177  0.7209373948766569  0.5374806037836349  1.0000
  C   C20       1.0  0.1341638330394375  0.27905928626356763  0.4625197219285511  1.0000
  C   C21       1.0  0.915764328226942  0.596502521968901  0.39443734129872604  1.0000
  C   C22       1.0  0.08424041265326572  0.40349973235004194  0.60556198801887  1.0000
  C   C23       1.0  0.8924748643039209  0.8457323010783993  0.9812523598437578  1.0000
  C   C24       1.0  0.10752519195032312  0.154274155485993  0.018746137435144295  1.0000
  C   C25       1.0  0.3565291063493774  0.3832071660011279  0.09961328093209688  1.0000
  C   C26       1.0  0.6434540013309161  0.616788104274292  0.9004028371081106  1.0000
  C   C27       1.0  0.6777258406306572  0.22956046597452937  0.31977753472077797  1.0000
  C   C28       1.0  0.322284940920838  0.77043113593934  0.6802084077943888  1.0000
  C   C29       1.0  0.5597805028384856  0.5538699458755686  0.47879538222068857  1.0000
  C   C30       1.0  0.44023172858327103  0.4461195496694402  0.5212158839330172  1.0000
  C   C31       1.0  0.010137522681716901  0.7729809679052054  0.027424959018034677  1.0000
  C   C32       1.0  0.9898622626003757  0.22703087967099825  0.9725779938256736  1.0000
  C   C33       1.0  0.692763520240014  0.020938616262398593  0.049668496311362303  1.0000
  C   C34       1.0  0.3072207063628696  0.9790717685907068  0.9503210266413332  1.0000
  C   C35       1.0  0.7051503501918504  0.507164423296949  0.5274710942640225  1.0000
  C   C36       1.0  0.29486529166584324  0.4928229938948404  0.47253602985308146  1.0000
  C   C37       1.0  0.5657609119962927  0.2922665087825607  0.2574615984687583  1.0000
  C   C38       1.0  0.43424056416596113  0.7077345876002709  0.7425372459884726  1.0000
  N   N1        1.0  0.012751667252622717  0.8072767210642265  0.1340140822545806  1.0000
  N   N2        1.0  0.9872424934305145  0.19273606794624945  0.8659859347530983  1.0000
  N   N3        1.0  0.8222013723560907  0.9234781949639839  0.06181584233073065  1.0000
  N   N4        1.0  0.17778964121823998  0.07653019701731269  0.9381758069895126  1.0000
  N   N5        1.0  0.011237826027311805  0.7031417345485593  0.3812195428039401  1.0000
  N   N6        1.0  0.9887540303746861  0.29687207577013197  0.6187772949116094  1.0000
  N   N7        1.0  0.8259772452098916  0.6037332943954538  0.48816176663397204  1.0000
  N   N8        1.0  0.1740313591680405  0.39626042511310533  0.5118428884512909  1.0000
  O   O1        1.0  0.2309413488243309  0.5404760567084776  0.22339115702078516  1.0000
  O   O2        1.0  0.7690602678310867  0.45954339125318455  0.7766175457165828  1.0000
  O   O3        1.0  0.3278622138016161  0.2670402631916104  0.18469382346157906  1.0000
  O   O4        1.0  0.6721250365603454  0.7329615868619895  0.8153320377469482  1.0000
  O   O5        1.0  0.32860209375488136  0.849901225063064  0.2712607255251527  1.0000
  O   O6        1.0  0.6714046038038362  0.15008813735871473  0.7287509463887075  1.0000
  O   O7        1.0  0.1647416629658736  0.03473641474465689  0.29722214777793704  1.0000
  O   O8        1.0  0.835264455659086  0.9652604751871221  0.7027726448228223  1.0000
  O   O9        1.0  0.32854340562439444  0.6352104857089881  0.05622204599676192  1.0000
  O   O10       1.0  0.671433421274898  0.36477490824028536  0.9437717244569369  1.0000
