data_image0
_chemical_formula_structural       Cu2H28C16O8
_chemical_formula_sum              "Cu2 H28 C16 O8"
_cell_length_a       5.220734962089891
_cell_length_b       8.700782269337399
_cell_length_c       11.109000320552141
_cell_angle_alpha    93.13270903073173
_cell_angle_beta     95.73946826969632
_cell_angle_gamma    101.45124822034558

_space_group_name_H-M_alt    "P 1"
_space_group_IT_number       1

loop_
  _space_group_symop_operation_xyz
  'x, y, z'

loop_
  _atom_site_type_symbol
  _atom_site_label
  _atom_site_symmetry_multiplicity
  _atom_site_fract_x
  _atom_site_fract_y
  _atom_site_fract_z
  _atom_site_occupancy
  Cu  Cu1       1.0  0.2915392409248198  0.5271903705132104  0.4450994082284652  1.0000
  Cu  Cu2       1.0  0.7084604611639306  0.472811325917334  0.5548784679125092  1.0000
  H   H1        1.0  0.0646007883777315  0.20041848003763366  0.7555498258451577  1.0000
  H   H2        1.0  0.9352646235696723  0.7996059026517273  0.2444536811250941  1.0000
  H   H3        1.0  0.9161151348889404  0.363328344464442  0.7750373090172786  1.0000
  H   H4        1.0  0.08387190779824039  0.6366848335452816  0.2249882686801428  1.0000
  H   H5        1.0  0.4297427011417128  0.31832390896231993  0.9169201245985903  1.0000
  H   H6        1.0  0.5702577157730744  0.6816563035245196  0.08304343395601417  1.0000
  H   H7        1.0  0.2940613405175227  0.4867864946521648  0.9342906084810209  1.0000
  H   H8        1.0  0.705959423633402  0.5132328300020818  0.06570584212212789  1.0000
  H   H9        1.0  0.15220069127658317  0.3078942864438474  0.0948121709610419  1.0000
  H   H10       1.0  0.8478740388137069  0.6920946562941523  0.9051904936838681  1.0000
  H   H11       1.0  0.02528205832877719  0.15043085449085683  0.982589018852849  1.0000
  H   H12       1.0  0.9747532104331212  0.8495647398645972  0.017419648776822786  1.0000
  H   H13       1.0  0.8741123294619796  0.31464929496271316  0.9911809136266997  1.0000
  H   H14       1.0  0.12593636488460894  0.6853556045872295  0.008833115579534498  1.0000
  H   H15       1.0  0.1206800019553782  0.03795768773203889  0.2888833589370066  1.0000
  H   H16       1.0  0.8793559168643481  0.9620698021319499  0.7111238752547493  1.0000
  H   H17       1.0  0.26100848826727924  0.9732166678549772  0.425297538289648  1.0000
  H   H18       1.0  0.7389289362270547  0.026781510688074696  0.5746932040236103  1.0000
  H   H19       1.0  0.4627591884134077  0.8738061347619992  0.2581316296342706  1.0000
  H   H20       1.0  0.5372220274266226  0.1261748761431321  0.7418681668909315  1.0000
  H   H21       1.0  0.7000906145206969  0.017553251229486498  0.349382446665139  1.0000
  H   H22       1.0  0.2998814105916664  0.9824459746685433  0.6506420314456918  1.0000
  H   H23       1.0  0.7302066987319691  0.0519823535673751  0.126788727810677  1.0000
  H   H24       1.0  0.26984274286559173  0.9479978800662892  0.8732387738666675  1.0000
  H   H25       1.0  0.6482168093122098  0.2186323298015651  0.1997674480111158  1.0000
  H   H26       1.0  0.3518279788375337  0.7813562132292305  0.8002566038840513  1.0000
  H   H27       1.0  0.4006239552009134  0.0781071171207586  0.1086293580266258  1.0000
  H   H28       1.0  0.599432441555315  0.9218987334849729  0.8913768894334027  1.0000
  C   C1        1.0  0.2637200707596037  0.4016504848173242  0.6848330748356872  1.0000
  C   C2        1.0  0.7362539336300243  0.5983540429312839  0.3151475627852491  1.0000
  C   C3        1.0  0.10680090130475858  0.32771524517129086  0.781641789324965  1.0000
  C   C4        1.0  0.8932000212650023  0.6723211186046854  0.2183662971757769  1.0000
  C   C5        1.0  0.24295307186748258  0.3591730709344105  0.911081165309831  1.0000
  C   C6        1.0  0.7570726712373028  0.6408343306625852  0.08891410411454359  1.0000
  C   C7        1.0  0.06540359808022339  0.27919445111240293  0.00014968753186649596  1.0000
  C   C8        1.0  0.934635094306749  0.7207951605960973  0.9998579730317729  1.0000
  C   C9        1.0  0.37565346099992775  0.2182145757114924  0.40504306250658567  1.0000
  C   C10       1.0  0.6243138970474789  0.7817818738056063  0.594944217583965  1.0000
  C   C11       1.0  0.3024728381610871  0.049487259239185684  0.3506185417552956  1.0000
  C   C12       1.0  0.6975328654843975  0.9505122818927347  0.6493828831986903  1.0000
  C   C13       1.0  0.5210148912493082  0.0004892687822887955  0.2847613749159876  1.0000
  C   C14       1.0  0.4789939334740793  0.9994819950452438  0.7152516686594622  1.0000
  C   C15       1.0  0.5778049583365713  0.0923205510236116  0.1740047175181374  1.0000
  C   C16       1.0  0.42223191495399687  0.9076701784152945  0.8259957160011525  1.0000
  O   O1        1.0  0.13456025596070018  0.4501737886864349  0.5954596338896322  1.0000
  O   O2        1.0  0.8653814693228058  0.5498445380705733  0.4045401569539919  1.0000
  O   O3        1.0  0.49028105334736677  0.593750983768068  0.3052766796076938  1.0000
  O   O4        1.0  0.5097011694455418  0.4062472343345931  0.6946842067966941  1.0000
  O   O5        1.0  0.21851480563961448  0.30796659928657283  0.3741545041597476  1.0000
  O   O6        1.0  0.7814396606276118  0.6920254344789285  0.6258402306082189  1.0000
  O   O7        1.0  0.41242452572932103  0.7437456713250513  0.5224865147750322  1.0000
  O   O8        1.0  0.5875545350879249  0.2562564674544063  0.477498718819831  1.0000
