data_image0
_chemical_formula_structural       Cu2H40C34S4Br4O2
_chemical_formula_sum              "Cu2 H40 C34 S4 Br4 O2"
_cell_length_a       7.315041807538319
_cell_length_b       11.826989605409008
_cell_length_c       11.622249710334897
_cell_angle_alpha    62.16308524215911
_cell_angle_beta     81.26380417896179
_cell_angle_gamma    87.91286585878933

_space_group_name_H-M_alt    "P 1"
_space_group_IT_number       1

loop_
  _space_group_symop_operation_xyz
  'x, y, z'

loop_
  _atom_site_type_symbol
  _atom_site_label
  _atom_site_symmetry_multiplicity
  _atom_site_fract_x
  _atom_site_fract_y
  _atom_site_fract_z
  _atom_site_occupancy
  Cu  Cu1       1.0  0.22757956053868608  0.008622368816574503  0.25656430887534026  1.0000
  Cu  Cu2       1.0  0.7724252099234475  0.9913813577035812  0.7434323425701379  1.0000
  H   H1        1.0  0.4316794282397609  0.7352964240306507  0.4020624156342193  1.0000
  H   H2        1.0  0.5683153609374683  0.2647015091298073  0.5979395894173434  1.0000
  H   H3        1.0  0.523085164318978  0.7738441170811398  0.23545666089268016  1.0000
  H   H4        1.0  0.4769167220966112  0.22615763279502238  0.7645454833462962  1.0000
  H   H5        1.0  0.6198309975699698  0.5997508821219101  0.20024873793813203  1.0000
  H   H6        1.0  0.38017367632943433  0.40025093070595835  0.7997488126148935  1.0000
  H   H7        1.0  0.5728547547712848  0.3793231599569538  0.23508378943085972  1.0000
  H   H8        1.0  0.4271513107862645  0.6206786789258558  0.7649118972345902  1.0000
  H   H9        1.0  0.1117166866331658  0.31788233251391773  0.5384081689572682  1.0000
  H   H10       1.0  0.8882918517148609  0.6821137631928237  0.46159081680965386  1.0000
  H   H11       1.0  0.16711518311596046  0.5354087328405299  0.5096404171145605  1.0000
  H   H12       1.0  0.8328878136046356  0.4645873236973371  0.49036082873787723  1.0000
  H   H13       1.0  0.38591608216361806  0.13544893267432206  0.44097178674075366  1.0000
  H   H14       1.0  0.6140954809075225  0.8645519993730345  0.5590212234821549  1.0000
  H   H15       1.0  0.14725653318313195  0.17211707921430272  0.45210692677585473  1.0000
  H   H16       1.0  0.8527522024578785  0.8278828547188369  0.5478893948651801  1.0000
  H   H17       1.0  0.07498849242635691  0.8789506338157125  0.07448924831791713  1.0000
  H   H18       1.0  0.9249980284235733  0.12104818659576473  0.9255165632189416  1.0000
  H   H19       1.0  0.3177656243973317  0.8602624507742147  0.04667898211921801  1.0000
  H   H20       1.0  0.6822210221880026  0.13973835922226396  0.9533198689345068  1.0000
  H   H21       1.0  0.9063285425141315  0.6360756343167537  0.2642423211250175  1.0000
  H   H22       1.0  0.09366351162817209  0.3639232035799651  0.7357629621479234  1.0000
  H   H23       1.0  0.3840644754453847  0.7076574216590785  0.9696271340910838  1.0000
  H   H24       1.0  0.6159235944093523  0.29234432787121994  0.0303728671644876  1.0000
  H   H25       1.0  0.8697424550144816  0.41729973668456916  0.2917617279981854  1.0000
  H   H26       1.0  0.13025497507353379  0.5826962156335186  0.7082469734045488  1.0000
  H   H27       1.0  0.33855959766433585  0.49203630480621996  0.990432376975498  1.0000
  H   H28       1.0  0.6614325172619077  0.5079635224620916  0.009569859011278794  1.0000
  H   H29       1.0  0.9675092742779299  0.2513689026875952  0.244640253712916  1.0000
  H   H30       1.0  0.032492318281946084  0.7486270952698745  0.7553654537594878  1.0000
  H   H31       1.0  0.08521049540063788  0.29159966993309183  0.08352518521891021  1.0000
  H   H32       1.0  0.914780284483882  0.7084011098100548  0.9164767332800706  1.0000
  H   H33       1.0  0.8684249318405859  0.032019578855624814  0.37530102962100637  1.0000
  H   H34       1.0  0.13157687468237358  0.9679803006955083  0.6246985500823214  1.0000
  H   H35       1.0  0.6986943980548331  0.09264885625922402  0.19874478575868432  1.0000
  H   H36       1.0  0.3013075533122276  0.9073538938303473  0.8012534452833221  1.0000
  H   H37       1.0  0.8275021676206078  0.9790537961798904  0.16246110805143144  1.0000
  H   H38       1.0  0.1724970296028303  0.020948977692505404  0.8375347893901405  1.0000
  H   H39       1.0  0.6657857750343652  0.9250755441034996  0.3111371741288664  1.0000
  H   H40       1.0  0.3342106996567295  0.0749281670306061  0.6888594038016861  1.0000
  C   C1        1.0  0.4108786022308806  0.7223428748522664  0.3172354982293939  1.0000
  C   C2        1.0  0.5891244344360304  0.2776541168481117  0.6827670298908683  1.0000
  C   C3        1.0  0.3950675486855033  0.5836733041507643  0.35086533487294236  1.0000
  C   C4        1.0  0.6049341612747269  0.41632466170807436  0.6491351439379258  1.0000
  C   C5        1.0  0.5120056809198416  0.5365215165790644  0.2776807954087204  1.0000
  C   C6        1.0  0.48799902875835227  0.4634812205695055  0.7223189033229218  1.0000
  C   C7        1.0  0.4847164620195628  0.4125877846698102  0.2968092043986203  1.0000
  C   C8        1.0  0.5152883126100961  0.5874159526921617  0.7031865811360588  1.0000
  C   C9        1.0  0.3355670878134801  0.3346086389221909  0.38619892198798295  1.0000
  C   C10       1.0  0.6644443703598809  0.6653903577492458  0.6137967191640711  1.0000
  C   C11       1.0  0.22726525347765392  0.37830400194275166  0.4666723359428815  1.0000
  C   C12       1.0  0.7727432365890079  0.6216911369178462  0.5333270993778072  1.0000
  C   C13       1.0  0.258107487395236  0.5008978047150021  0.4502140626958564  1.0000
  C   C14       1.0  0.7418954652115204  0.49909730581853046  0.5497867667995564  1.0000
  C   C15       1.0  0.2851367321571204  0.20814540255710065  0.39488646270915234  1.0000
  C   C16       1.0  0.7148733993095604  0.791854568272797  0.6051071291335076  1.0000
  C   C17       1.0  0.18782181373599366  0.8135238792424176  0.11081670972448877  1.0000
  C   C18       1.0  0.8121661512209711  0.1864759349119609  0.8891859224602214  1.0000
  C   C19       1.0  0.14999945726631836  0.6863657472210394  0.11696951254867109  1.0000
  C   C20       1.0  0.8499926493248752  0.3136340583636468  0.883034455259704  1.0000
  C   C21       1.0  0.26695319501166637  0.6457549768049873  0.03724009408335155  1.0000
  C   C22       1.0  0.7330334915199755  0.35424676835400254  0.9627600392381976  1.0000
  C   C23       1.0  0.24221209216344156  0.524010658630196  0.049705199956555625  1.0000
  C   C24       1.0  0.7577785869908168  0.4759881965788396  0.9502984835607717  1.0000
  C   C25       1.0  0.1032885037556923  0.43883563383716523  0.14447484754477802  1.0000
  C   C26       1.0  0.8967021670635161  0.5611631996882452  0.8555305677941404  1.0000
  C   C27       1.0  0.9797855827356796  0.4822958127006844  0.21821370618301458  1.0000
  C   C28       1.0  0.0202078988435588  0.5177039755716777  0.7817918613809736  1.0000
  C   C29       1.0  0.0011113704143924006  0.6052872391028501  0.2031786107424196  1.0000
  C   C30       1.0  0.9988808327395304  0.39471448017412314  0.7968244579584078  1.0000
  C   C31       1.0  0.08954155632110877  0.30185935616852083  0.17232425282749372  1.0000
  C   C32       1.0  0.9104533252513249  0.6981404798424221  0.8276777190273206  1.0000
  C   C33       1.0  0.7683888827832632  0.0012190026923236004  0.24177036561157905  1.0000
  C   C34       1.0  0.23161164114685556  0.9987827970216047  0.7582275811393798  1.0000
  S   S1        1.0  0.19598193224587132  0.804533310125507  0.2714057087815717  1.0000
  S   S2        1.0  0.804018482618943  0.19546654337068506  0.7285957348093319  1.0000
  S   S3        1.0  0.2932150828199696  0.21169947444029447  0.23531668657999918  1.0000
  S   S4        1.0  0.7067841710198833  0.788304277961878  0.7646770294862005  1.0000
  Br  Br1       1.0  0.25770798384185417  0.8876483029082609  0.49207706668042317  1.0000
  Br  Br2       1.0  0.742335603727092  0.11235742717548902  0.5079175855424936  1.0000
  Br  Br3       1.0  0.2844581910146075  0.11995440184010422  0.01821808498386448  1.0000
  Br  Br4       1.0  0.7155335626658681  0.8800378357099276  0.9817825519683011  1.0000
  O   O1        1.0  0.9170368629382464  0.0085027297890576  0.30541511209084854  1.0000
  O   O2        1.0  0.0829649036383984  0.9914962145995646  0.6945831853446547  1.0000
