data_image0
_chemical_formula_structural       Zn2H28C40N12O12
_chemical_formula_sum              "Zn2 H28 C40 N12 O12"
_cell_length_a       8.251097188132844
_cell_length_b       11.123142232248357
_cell_length_c       11.255404717838752
_cell_angle_alpha    73.52007066323652
_cell_angle_beta     74.68733432035367
_cell_angle_gamma    82.78107580179982

_space_group_name_H-M_alt    "P 1"
_space_group_IT_number       1

loop_
  _space_group_symop_operation_xyz
  'x, y, z'

loop_
  _atom_site_type_symbol
  _atom_site_label
  _atom_site_symmetry_multiplicity
  _atom_site_fract_x
  _atom_site_fract_y
  _atom_site_fract_z
  _atom_site_occupancy
  Zn  Zn1       1.0  0.7614105959936238  0.7962667684591409  0.7454695921258931  1.0000
  Zn  Zn2       1.0  0.23858941500390773  0.20373250564151132  0.25452892027032453  1.0000
  H   H1        1.0  0.3991278864097367  0.91701485216101  0.8835822882820139  1.0000
  H   H2        1.0  0.6008759640127722  0.08298347051792379  0.11641662458497147  1.0000
  H   H3        1.0  0.10897763432876671  0.8453473491249353  0.9797706708982405  1.0000
  H   H4        1.0  0.8910248874191351  0.15465192880874667  0.020226462924732475  1.0000
  H   H5        1.0  0.05174378224653961  0.6238721422504269  0.9952059385786002  1.0000
  H   H6        1.0  0.9482547798319558  0.3761299284661489  0.0047947578100392  1.0000
  H   H7        1.0  0.2881149773781361  0.4834385945975725  0.9140827491879194  1.0000
  H   H8        1.0  0.7118788862119346  0.5165588030158472  0.08591836149916793  1.0000
  H   H9        1.0  0.4887013663372529  0.3832192290174489  0.82613149765875  1.0000
  H   H10       1.0  0.5113024840852489  0.6167790936614778  0.17386741520823532  1.0000
  H   H11       1.0  0.025196705696657818  0.3751618404472764  0.6656622475905679  1.0000
  H   H12       1.0  0.9748056931713763  0.6248392861457077  0.3343379592990701  1.0000
  H   H13       1.0  0.23863257204759955  0.47473926746165757  0.6202905124389133  1.0000
  H   H14       1.0  0.7613674363144937  0.5252600139371282  0.37970710998753526  1.0000
  H   H15       1.0  0.481787165986475  0.6145490440885621  0.5484040578587184  1.0000
  H   H16       1.0  0.518212652784925  0.38545302489545463  0.451596394228183  1.0000
  H   H17       1.0  0.42228954749608505  0.8422437135996431  0.5512340188221572  1.0000
  H   H18       1.0  0.5777053937379576  0.15775644067391426  0.448773237102728  1.0000
  H   H19       1.0  0.12980651112199845  0.9202318665199055  0.6178202668523057  1.0000
  H   H20       1.0  0.8701884704684701  0.07976742180908049  0.38217833278109486  1.0000
  H   H21       1.0  0.5072526997129714  0.24103005717736886  0.7113972568918568  1.0000
  H   H22       1.0  0.4927485118084078  0.7589701249241115  0.2886043276754934  1.0000
  H   H23       1.0  0.5310065569161324  0.0227826414637065  0.6974817969652136  1.0000
  H   H24       1.0  0.468993259219829  0.9772194348184439  0.30251776515192574  1.0000
  H   H25       1.0  0.9920259784763847  0.9554958551023989  0.7952426177105918  1.0000
  H   H26       1.0  0.007974035156586002  0.044503411700112794  0.2047567846553946  1.0000
  H   H27       1.0  0.006098744635870906  0.17884233376681632  0.7857697722427163  1.0000
  H   H28       1.0  0.9939038464582878  0.8211559979428029  0.21422849495623114  1.0000
  C   C1        1.0  0.3707360622497973  0.8221939429885339  0.8890806053344845  1.0000
  C   C2        1.0  0.6292639434768504  0.17780534570838566  0.11091612712219505  1.0000
  C   C3        1.0  0.20831605633936323  0.7811577397553717  0.9440742454703327  1.0000
  C   C4        1.0  0.7916863960622821  0.21884248440237286  0.055921754976665725  1.0000
  C   C5        1.0  0.17768852274901548  0.6580498967354912  0.9531746099450801  1.0000
  C   C6        1.0  0.8223113495560028  0.34195126981327917  0.04682163569918178  1.0000
  C   C7        1.0  0.3101096812367815  0.5801818425963033  0.9065396258901971  1.0000
  C   C8        1.0  0.6898890037215891  0.41981837946095607  0.09345799743178432  1.0000
  C   C9        1.0  0.4688166021263527  0.6287565355170697  0.8498472217249146  1.0000
  C   C10       1.0  0.5311822750581499  0.37124089165681795  0.1501484619063761  1.0000
  C   C11       1.0  0.6158350751877035  0.5519320343380514  0.7973421648806395  1.0000
  C   C12       1.0  0.38416361504154384  0.44806817312294106  0.2026572383808798  1.0000
  C   C13       1.0  0.6079652844311384  0.42860066118139867  0.792771059674486  1.0000
  C   C14       1.0  0.3920372425876408  0.5713986021560088  0.2072278540880249  1.0000
  C   C15       1.0  0.7571885697284768  0.3631802401867432  0.7469790837400581  1.0000
  C   C16       1.0  0.24281276994366155  0.6368180786591536  0.2530212077001721  1.0000
  C   C17       1.0  0.9086761285960775  0.42419109304772457  0.7035299678028936  1.0000
  C   C18       1.0  0.09132772973274682  0.575807207736794  0.2964716149733918  1.0000
  C   C19       1.0  0.9058813092024919  0.5486978611514245  0.7074201908135864  1.0000
  C   C20       1.0  0.09412004101140069  0.4513004285019305  0.2925836605057128  1.0000
  C   C21       1.0  0.0561929039110538  0.6244989695523131  0.6609221853224342  1.0000
  C   C22       1.0  0.9438072563207528  0.3754983829076649  0.3390821537048154  1.0000
  C   C23       1.0  0.21846368362634655  0.5737184109225096  0.6192458082309287  1.0000
  C   C24       1.0  0.7815351479308531  0.4262798967922165  0.38075675175230833  1.0000
  C   C25       1.0  0.35333870770472225  0.6512330175122757  0.579603342156858  1.0000
  C   C26       1.0  0.6466588671595731  0.34876529193500255  0.42039946212812407  1.0000
  C   C27       1.0  0.32244712598054553  0.7772277644337746  0.5802506740320369  1.0000
  C   C28       1.0  0.6775491307509112  0.22277147107570974  0.4197539110880086  1.0000
  C   C29       1.0  0.15706527790516134  0.8213212284727192  0.6201663285935198  1.0000
  C   C30       1.0  0.8429321635374977  0.17867895882641696  0.37983598887904435  1.0000
  C   C31       1.0  0.7571516412175258  0.23069631033214216  0.7470813512730601  1.0000
  C   C32       1.0  0.24285214512960354  0.76930294397458  0.2529182081574818  1.0000
  C   C33       1.0  0.6206532606152423  0.18334366691667733  0.7263540941712421  1.0000
  C   C34       1.0  0.3793478148490692  0.816658400334795  0.2736461136139212  1.0000
  C   C35       1.0  0.630800221164421  0.05905222177010218  0.7220996487923443  1.0000
  C   C36       1.0  0.369202110992795  0.9409498437488106  0.2779003146910882  1.0000
  C   C37       1.0  0.8906107795068009  0.0232366087490732  0.771786362135785  1.0000
  C   C38       1.0  0.10939168080116703  0.9767635935142562  0.22821230822052038  1.0000
  C   C39       1.0  0.8956188615504671  0.14797450813217236  0.769216720318319  1.0000
  C   C40       1.0  0.10438485808584376  0.8520256851004784  0.23078259570601742  1.0000
  N   N1        1.0  0.4978144639128317  0.7484407550564571  0.8412066625959014  1.0000
  N   N2        1.0  0.5021868652175455  0.2515575929819888  0.1587900689652457  1.0000
  N   N3        1.0  0.7621360611229518  0.6081035320049537  0.7545393292664642  1.0000
  N   N4        1.0  0.23786534789543629  0.39189384061688043  0.2454620955497404  1.0000
  N   N5        1.0  0.027070455958146108  0.7468088575135708  0.6614688597358338  1.0000
  N   N6        1.0  0.972927188252406  0.2531885057096446  0.3385350779251155  1.0000
  N   N7        1.0  0.7624910814593093  0.9796976164807132  0.7455802656464957  1.0000
  N   N8        1.0  0.23750879875203168  0.020303528173656105  0.2544186499070804  1.0000
  N   N9        1.0  0.7365501344932783  0.8300855608032052  0.4593559982065329  1.0000
  N   N10       1.0  0.26344717352775154  0.16991650434778188  0.5406458324536204  1.0000
  N   N11       1.0  0.7623443622973624  0.7679574343073693  0.04441550360859742  1.0000
  N   N12       1.0  0.23765419978113306  0.2320446364092064  0.9555851927800489  1.0000
  O   O1        1.0  0.7109307532716045  0.8803735304545408  0.5540266734921107  1.0000
  O   O2        1.0  0.2890689294427204  0.11963042367946743  0.44597240181261105  1.0000
  O   O3        1.0  0.7723049455171846  0.7138849491056048  0.4761991616333319  1.0000
  O   O4        1.0  0.22769103910011526  0.2861180567038631  0.5238026699223468  1.0000
  O   O5        1.0  0.7233831444444617  0.9003899342985802  0.3529045852965212  1.0000
  O   O6        1.0  0.27661415830569064  0.09961214544868109  0.6470954654240941  1.0000
  O   O7        1.0  0.8098569017184899  0.7228864633989714  0.9455504248618782  1.0000
  O   O8        1.0  0.1901416550891213  0.2771156219138788  0.05444849158722322  1.0000
  O   O9        1.0  0.7112290419099024  0.8805125835968043  0.03299195531793939  1.0000
  O   O10       1.0  0.2887695842439726  0.11948855549197651  0.9670080945071433  1.0000
  O   O11       1.0  0.7700134868758826  0.6935618048671798  0.1516689612524615  1.0000
  O   O12       1.0  0.22998381587427022  0.3064402748800815  0.8483310894681537  1.0000
