data_image0
_chemical_formula_structural       Cd4H16C8S4N16O16
_chemical_formula_sum              "Cd4 H16 C8 S4 N16 O16"
_cell_length_a       6.743083680002396
_cell_length_b       6.688679323000888
_cell_length_c       14.049203864004099
_cell_angle_alpha    90.00002944509424
_cell_angle_beta     90.00008370072645
_cell_angle_gamma    89.99995143826104

_space_group_name_H-M_alt    "P 1"
_space_group_IT_number       1

loop_
  _space_group_symop_operation_xyz
  'x, y, z'

loop_
  _atom_site_type_symbol
  _atom_site_label
  _atom_site_symmetry_multiplicity
  _atom_site_fract_x
  _atom_site_fract_y
  _atom_site_fract_z
  _atom_site_occupancy
  Cd  Cd1       1.0  0.17378317952383776  0.5593722648936605  0.6109571706412424  1.0000
  Cd  Cd2       1.0  0.8262157997215028  0.559370386629105  0.3890416248750839  1.0000
  Cd  Cd3       1.0  0.3262156551216576  0.5593734319688579  0.110958074104893  1.0000
  Cd  Cd4       1.0  0.6737818411241322  0.5593707146187156  0.8890421449793067  1.0000
  H   H1        1.0  0.0005200908868160999  0.25092139219050574  0.7668043359778736  1.0000
  H   H2        1.0  0.9994806433482992  0.2509236924517708  0.23319509478842093  1.0000
  H   H3        1.0  0.49948244967748684  0.25092391351356713  0.2668046507874919  1.0000
  H   H4        1.0  0.5005197675562627  0.2509241612546305  0.7331940681956013  1.0000
  H   H5        1.0  0.32588268549543636  0.17569249834591005  0.4682893064066675  1.0000
  H   H6        1.0  0.6741195980786613  0.17569089551928843  0.5317101056933069  1.0000
  H   H7        1.0  0.17411904335837386  0.1756958161896591  0.9682891149653301  1.0000
  H   H8        1.0  0.8258802742112935  0.17569056780326517  0.0317095853498515  1.0000
  H   H9        1.0  0.32168250881853305  0.9178405060561801  0.4745723152839787  1.0000
  H   H10       1.0  0.6783176373336772  0.9178403881941294  0.525427280963072  1.0000
  H   H11       1.0  0.1783171014794789  0.9178438204876188  0.9745728386108327  1.0000
  H   H12       1.0  0.8216815616703953  0.9178400638901963  0.0254267576360618  1.0000
  H   H13       1.0  0.9555991686391251  0.8697980340427095  0.7650480689479338  1.0000
  H   H14       1.0  0.04440250287642299  0.8697981222539038  0.23495080359490572  1.0000
  H   H15       1.0  0.544402275188652  0.8697979350897925  0.2650487721411565  1.0000
  H   H16       1.0  0.45559643032311925  0.8697997162711033  0.7349493886167053  1.0000
  C   C1        1.0  0.017950884456773498  0.9599701468617354  0.7082893706409337  1.0000
  C   C2        1.0  0.9820507075492343  0.959969533433707  0.29171165962831946  1.0000
  C   C3        1.0  0.48205085518304003  0.9599711872875785  0.20828896127886762  1.0000
  C   C4        1.0  0.5179492538198076  0.9599684930077074  0.7917106454216452  1.0000
  C   C5        1.0  0.17263699750252207  0.0573867550499543  0.5819454996150384  1.0000
  C   C6        1.0  0.8273653903931546  0.0573864017904526  0.418054594914274  1.0000
  C   C7        1.0  0.3273651586843016  0.0573894162557309  0.0819464038945767  1.0000
  C   C8        1.0  0.6726342632090763  0.057386730713162096  0.9180544024181501  1.0000
  S   S1        1.0  0.6573705647803222  0.5441059838819913  0.6267617948468996  1.0000
  S   S2        1.0  0.34263139393112857  0.544105976881191  0.37323913223504945  1.0000
  S   S3        1.0  0.842629268036255  0.5441056425541574  0.1267619981901547  1.0000
  S   S4        1.0  0.1573667586715075  0.5441078132752679  0.8732396406739723  1.0000
  N   N1        1.0  0.12475682437550262  0.2255395766547892  0.6299460881608852  1.0000
  N   N2        1.0  0.8752454152443931  0.22553913340080808  0.3700540480917738  1.0000
  N   N3        1.0  0.37524532765436186  0.225542198946826  0.1299456028980259  1.0000
  N   N4        1.0  0.6247554289614641  0.2255409962993511  0.8700538215705578  1.0000
  N   N5        1.0  0.024038957765320397  0.1579598012755241  0.7086245236170896  1.0000
  N   N6        1.0  0.9759633414463663  0.15796068750176315  0.2913763076514257  1.0000
  N   N7        1.0  0.475963490087409  0.15796084664895463  0.2086241099288202  1.0000
  N   N8        1.0  0.5240358431187744  0.1579626322556891  0.7913752977708056  1.0000
  N   N9        1.0  0.10833229547409218  0.88985159265183  0.6301646824623361  1.0000
  N   N10       1.0  0.891666392358715  0.8898511358182688  0.3698356186234335  1.0000
  N   N11       1.0  0.3916677884281937  0.8898512114697041  0.1301649206544866  1.0000
  N   N12       1.0  0.60833238240523  0.8898500219359633  0.8698346686475134  1.0000
  N   N13       1.0  0.264577005495262  0.050282131291844195  0.49761406241134415  1.0000
  N   N14       1.0  0.7354253886658029  0.0502804474344032  0.5023860303549483  1.0000
  N   N15       1.0  0.2354249219923119  0.05028390424794791  0.9976139145364799  1.0000
  N   N16       1.0  0.7645745061632495  0.0502816646056488  0.0023847546609160994  1.0000
  O   O1        1.0  0.5184473764906556  0.7127731091884612  0.6087550521185037  1.0000
  O   O2        1.0  0.48155146748666766  0.712774503509003  0.39124449324532407  1.0000
  O   O3        1.0  0.9815537365373217  0.7127696648292244  0.1087574895392507  1.0000
  O   O4        1.0  0.0184480734491146  0.712776452805855  0.891246326530073  1.0000
  O   O5        1.0  0.7558938719753385  0.5609718048485277  0.7211002736714249  1.0000
  O   O6        1.0  0.24410658886386474  0.5609672923354196  0.2788999458102026  1.0000
  O   O7        1.0  0.7441062292180476  0.5609730386555113  0.22110040699985234  1.0000
  O   O8        1.0  0.2558897826165065  0.5609720387844277  0.7789005242650404  1.0000
  O   O9        1.0  0.544444558761583  0.3530503721295659  0.6192303434023289  1.0000
  O   O10       1.0  0.4555590514247996  0.35305177643069635  0.38077267162645967  1.0000
  O   O11       1.0  0.9555539369107322  0.3530514340885631  0.1192299152115055  1.0000
  O   O12       1.0  0.04444077526604669  0.35305370460146424  0.8807716762462761  1.0000
  O   O13       1.0  0.8201935843328059  0.5474787417539346  0.553255908584191  1.0000
  O   O14       1.0  0.1798068884034549  0.5474789453066435  0.44674501933413063  1.0000
  O   O15       1.0  0.679807507808519  0.5474800278175564  0.0532552844345844  1.0000
  O   O16       1.0  0.32019296492601507  0.5474791543061032  0.9467449316998112  1.0000
