data_image0
_chemical_formula_structural       AlH15C27O18
_chemical_formula_sum              "Al1 H15 C27 O18"
_cell_length_a       4.093029811418651
_cell_length_b       15.927208140907663
_cell_length_c       15.764276251082974
_cell_angle_alpha    118.273054302902
_cell_angle_beta     90.51980844830403
_cell_angle_gamma    87.68619449102889

_space_group_name_H-M_alt    "P 1"
_space_group_IT_number       1

loop_
  _space_group_symop_operation_xyz
  'x, y, z'

loop_
  _atom_site_type_symbol
  _atom_site_label
  _atom_site_symmetry_multiplicity
  _atom_site_fract_x
  _atom_site_fract_y
  _atom_site_fract_z
  _atom_site_occupancy
  Al  Al1       1.0  0.9929972506121771  0.497422898771063  0.4984954860630851  1.0000
  H   H1        1.0  0.5159398569505527  0.9268035984964696  0.06856212616337849  1.0000
  H   H2        1.0  0.3692426214867552  0.6665876884886613  0.0808909659762591  1.0000
  H   H3        1.0  0.6275356368023423  0.9191559194015751  0.3364235307409232  1.0000
  H   H4        1.0  0.022777555653398507  0.28307529135392423  0.49333547207002953  1.0000
  H   H5        1.0  0.0159206994366912  0.2958553864650852  0.3040209649685721  1.0000
  H   H6        1.0  0.0761514955948428  0.09103863216589758  0.4463282994524819  1.0000
  H   H7        1.0  0.9452586438658983  0.9884927058759274  0.13511063531898063  1.0000
  H   H8        1.0  0.9536263646150404  0.696579972648088  0.7024392042526345  1.0000
  H   H9        1.0  0.08626507621566049  0.8688952498815607  0.006494586806539264  1.0000
  H   H10       1.0  0.9920130280663674  0.5054352916334466  0.715230864857219  1.0000
  H   H11       1.0  0.8002640814048902  0.6420548487074599  0.024612704239793004  1.0000
  H   H12       1.0  0.9486021261892291  0.5479449929581932  0.1376698828259535  1.0000
  H   H13       1.0  0.8547839307356568  0.4831316091627684  0.28984478701808314  1.0000
  H   H14       1.0  0.19118382312745302  0.8906532319907257  0.3641139352594537  1.0000
  H   H15       1.0  0.12041479515844598  0.7058529288614608  0.5114140091345405  1.0000
  C   C1        1.0  0.48410519874230573  0.5693614514228428  0.6471188952897367  1.0000
  C   C2        1.0  0.48291613119658194  0.5716642414086907  0.42184429404468204  1.0000
  C   C3        1.0  0.5134072837874087  0.348287001202543  0.42679812392424316  1.0000
  C   C4        1.0  0.46865689832918633  0.7878770336352544  0.060480881805112616  1.0000
  C   C5        1.0  0.5103270116819302  0.8875871134778207  0.10964139382384268  1.0000
  C   C6        1.0  0.5440830604461195  0.936918291657868  0.2107004795877501  1.0000
  C   C7        1.0  0.5629869561765233  0.8836127734869236  0.2606202925377516  1.0000
  C   C8        1.0  0.5009466546426964  0.786404600318235  0.2148256267586248  1.0000
  C   C9        1.0  0.44012689573929015  0.7405577678986643  0.11566563393131442  1.0000
  C   C10       1.0  0.7188814628786061  0.19694812020367886  0.287615650065419  1.0000
  C   C11       1.0  0.7240423901401911  0.09696642682531831  0.23482457590777275  1.0000
  C   C12       1.0  0.5486280378842919  0.0422335907282019  0.2665945845188916  1.0000
  C   C13       1.0  0.3676554067807274  0.0904179336282738  0.3535781264249494  1.0000
  C   C14       1.0  0.3516835228872708  0.19008632557963517  0.40501571380558243  1.0000
  C   C15       1.0  0.5288139793229476  0.24248948635648299  0.37223487966294044  1.0000
  C   C16       1.0  0.28354318907268095  0.7634395987981932  0.8975553105838403  1.0000
  C   C17       1.0  0.283848252295968  0.7099960480727602  0.797026340243363  1.0000
  C   C18       1.0  0.4766600811425049  0.6251751985034417  0.7537693342317341  1.0000
  C   C19       1.0  0.6632973100405977  0.5915705713874146  0.8071148510816144  1.0000
  C   C20       1.0  0.6524651918892559  0.6438828560916717  0.9081299881710907  1.0000
  C   C21       1.0  0.46557741653443674  0.7313207229909936  0.9540764539176511  1.0000
  C   C22       1.0  0.6707593139978201  0.6443991765136515  0.23415872235807458  1.0000
  C   C23       1.0  0.6750148834220653  0.5929555026698239  0.2848037995348491  1.0000
  C   C24       1.0  0.48546518604852196  0.6264212875842289  0.37091774736354216  1.0000
  C   C25       1.0  0.3016019204761378  0.7148019194205302  0.40592060292080834  1.0000
  C   C26       1.0  0.31860043083865724  0.7689019914038866  0.35689792539592724  1.0000
  C   C27       1.0  0.4967961353607606  0.7329177305371459  0.2697481791033455  1.0000
  O   O1        1.0  0.2673576496102754  0.3912087265116071  0.411283361772938  1.0000
  O   O2        1.0  0.2576480885155163  0.5109249632496358  0.6054891279461148  1.0000
  O   O3        1.0  0.24906558655592193  0.5868645825501131  0.4833441968771552  1.0000
  O   O4        1.0  0.7452046452926665  0.3893420553537296  0.4848289847496261  1.0000
  O   O5        1.0  0.7171712266213178  0.5073998916542237  0.4053379792591088  1.0000
  O   O6        1.0  0.7187285435134854  0.5836289815492889  0.6028406878394749  1.0000
  O   O7        1.0  0.16854870047320253  0.23068360412766253  0.48936562012508494  1.0000
  O   O8        1.0  0.888465285348218  0.24672101788556228  0.2526286901727204  1.0000
  O   O9        1.0  0.1911334540089626  0.041776030638835886  0.38862691971318253  1.0000
  O   O10       1.0  0.9162716554094458  0.0562391603095875  0.15393841140660675  1.0000
  O   O11       1.0  0.1107595878646066  0.7435705749051138  0.7432232209217349  1.0000
  O   O12       1.0  0.0908462468203979  0.8452823711304873  0.9370415976541296  1.0000
  O   O13       1.0  0.8411441137205883  0.5062301955194214  0.7635609888554101  1.0000
  O   O14       1.0  0.8416421333385031  0.6071008028944931  0.955018671407551  1.0000
  O   O15       1.0  0.8461078409766858  0.6091287211159299  0.1492479354963265  1.0000
  O   O16       1.0  0.8537589893121479  0.5086467806909241  0.2436440868871514  1.0000
  O   O17       1.0  0.1423993236365888  0.8534599753948199  0.3969029229250509  1.0000
  O   O18       1.0  0.11926838393887353  0.7528556631514148  0.487419568528317  1.0000
