data_image0
_chemical_formula_structural       Zn2H36C32Br4N8O8
_chemical_formula_sum              "Zn2 H36 C32 Br4 N8 O8"
_cell_length_a       7.92161346687188
_cell_length_b       7.921617094416767
_cell_length_c       15.99391264906439
_cell_angle_alpha    84.43895701914492
_cell_angle_beta     84.43881062338461
_cell_angle_gamma    80.97716537807996

_space_group_name_H-M_alt    "P 1"
_space_group_IT_number       1

loop_
  _space_group_symop_operation_xyz
  'x, y, z'

loop_
  _atom_site_type_symbol
  _atom_site_label
  _atom_site_symmetry_multiplicity
  _atom_site_fract_x
  _atom_site_fract_y
  _atom_site_fract_z
  _atom_site_occupancy
  Zn  Zn1       1.0  0.5656895370442926  0.4343113389972047  0.25000020898109204  1.0000
  Zn  Zn2       1.0  0.43431229745257144  0.5656878969559572  0.7500006527733875  1.0000
  H   H1        1.0  0.13888106179383902  0.4720290921950936  0.603660626315474  1.0000
  H   H2        1.0  0.5279732895270686  0.8611152352822985  0.8963390170332347  1.0000
  H   H3        1.0  0.8611143765802257  0.5279701470924961  0.39633744290467393  1.0000
  H   H4        1.0  0.47202889740467685  0.13888142610824872  0.10366133548951241  1.0000
  H   H5        1.0  0.3358435169773984  0.31811224832869567  0.39587243761378244  1.0000
  H   H6        1.0  0.681889394041086  0.6641493692780926  0.10412842760968034  1.0000
  H   H7        1.0  0.6641517972272698  0.6818883302984916  0.6041293198137725  1.0000
  H   H8        1.0  0.3181117135417467  0.33584602916089795  0.895872672513754  1.0000
  H   H9        1.0  0.2249925278476256  0.7358433353530672  0.5572157303896719  1.0000
  H   H10       1.0  0.2641645031105497  0.7750040664933383  0.9427830966883379  1.0000
  H   H11       1.0  0.7750056530423283  0.2641635877611179  0.4427830448888131  1.0000
  H   H12       1.0  0.735838772633386  0.22499386731391272  0.05721713252309263  1.0000
  H   H13       1.0  0.3867581060317918  0.9100614426810625  0.4484946339278368  1.0000
  H   H14       1.0  0.08993686616696556  0.6132464636668332  0.05150362751921021  1.0000
  H   H15       1.0  0.6132487696570483  0.08993771488340493  0.5515034675391562  1.0000
  H   H16       1.0  0.9100636891053359  0.3867527729532157  0.9484966757284075  1.0000
  H   H17       1.0  0.5247321124557162  0.7743079524954268  0.3180231562077936  1.0000
  H   H18       1.0  0.22568616473004977  0.4752728385002315  0.18197763666836414  1.0000
  H   H19       1.0  0.4752717061354802  0.22568613366562573  0.6819772455900834  1.0000
  H   H20       1.0  0.7743126063235626  0.5247302842934758  0.8180244326434123  1.0000
  H   H21       1.0  0.17290027329817564  0.9531546060645584  0.6324272751398328  1.0000
  H   H22       1.0  0.046849188615382883  0.827098935141983  0.867571792612701  1.0000
  H   H23       1.0  0.8270995487145002  0.046849751285279205  0.3675721737031453  1.0000
  H   H24       1.0  0.9531540682019897  0.17289897973498114  0.13242718801998885  1.0000
  H   H25       1.0  0.9816288113148631  0.9862837518893885  0.5772167520453453  1.0000
  H   H26       1.0  0.0137188495568807  0.0183698536738319  0.922782553747709  1.0000
  H   H27       1.0  0.018370274320517414  0.013716758481130903  0.4227823108772243  1.0000
  H   H28       1.0  0.9862856864850545  0.9816280605362452  0.0772169853918498  1.0000
  H   H29       1.0  0.9429541158247977  0.852459723436134  0.7239432682272524  1.0000
  H   H30       1.0  0.14753966871930405  0.0570479751117006  0.7760553423433054  1.0000
  H   H31       1.0  0.05704787123130472  0.1475382015728641  0.2760557781879386  1.0000
  H   H32       1.0  0.8524619564386244  0.9429525149947654  0.22394358901424746  1.0000
  H   H33       1.0  0.8026387726114665  0.04529284380190291  0.7080810070998639  1.0000
  H   H34       1.0  0.9547057507468255  0.19736068241994792  0.7919192476918939  1.0000
  H   H35       1.0  0.19736051289955733  0.9547064029501728  0.29191936193025475  1.0000
  H   H36       1.0  0.04529479506219053  0.8026385447349541  0.20808043126635312  1.0000
  C   C1        1.0  0.34390719621774235  0.4478848202446601  0.4101356114560844  1.0000
  C   C2        1.0  0.5521189708879961  0.6560907857601209  0.08986369987935922  1.0000
  C   C3        1.0  0.6560891784092748  0.5521170024037974  0.5898641497920354  1.0000
  C   C4        1.0  0.44788395242105866  0.34390972260974456  0.9101370385638037  1.0000
  C   C5        1.0  0.2665702162879669  0.5128394236092575  0.4856186875700815  1.0000
  C   C6        1.0  0.4871642506143633  0.7334275813326983  0.014381352458052311  1.0000
  C   C7        1.0  0.7334232379917655  0.4871649654704413  0.514379841606676  1.0000
  C   C8        1.0  0.5128361426354148  0.2665729567663746  0.9856201418394908  1.0000
  C   C9        1.0  0.28384264523488417  0.6816247404238214  0.4993600929700295  1.0000
  C   C10       1.0  0.31837448612721186  0.7161556394168047  0.0006402472617068962  1.0000
  C   C11       1.0  0.7161566308128616  0.31837449686311464  0.5006396517707188  1.0000
  C   C12       1.0  0.6816273578329304  0.2838436060015044  0.9993612387821432  1.0000
  C   C13       1.0  0.37520891019511293  0.7781472016091516  0.4392736914027254  1.0000
  C   C14       1.0  0.22185680199015684  0.6247897737040307  0.060728882792766094  1.0000
  C   C15       1.0  0.6247874833584677  0.22185463996959956  0.5607273184241353  1.0000
  C   C16       1.0  0.7781457688840023  0.37521330922844254  0.9392723648821291  1.0000
  C   C17       1.0  0.4500330865997741  0.7044747770687608  0.3665118133313571  1.0000
  C   C18       1.0  0.2955222031083908  0.5499707113839208  0.13348701740740412  1.0000
  C   C19       1.0  0.5499703417034072  0.29552184579432617  0.6334866005407778  1.0000
  C   C20       1.0  0.7044752887206587  0.45003241207667344  0.8665144933975031  1.0000
  C   C21       1.0  0.15103744874427605  0.2511698491262635  0.5463193987303613  1.0000
  C   C22       1.0  0.7488305806385683  0.8489615304549715  0.9536781870675387  1.0000
  C   C23       1.0  0.8489606817115816  0.7488280589531016  0.45367672358548833  1.0000
  C   C24       1.0  0.251173047540256  0.15103382878967153  0.04632153291215252  1.0000
  C   C25       1.0  0.04173454819839151  0.0233721053231619  0.6303115283314683  1.0000
  C   C26       1.0  0.9766312069983346  0.9582646960860474  0.8696876959008649  1.0000
  C   C27       1.0  0.9582641660755303  0.9766309606796855  0.36968679524409254  1.0000
  C   C28       1.0  0.023372059282323207  0.0417332282560636  0.13031190902118792  1.0000
  C   C29       1.0  0.9382274508660804  0.9924355508604494  0.7130484403273771  1.0000
  C   C30       1.0  0.007564741541514805  0.06177332749865631  0.7869515314985878  1.0000
  C   C31       1.0  0.061773085479657715  0.007563666829312904  0.2869506143414996  1.0000
  C   C32       1.0  0.9924370740287786  0.938225889524212  0.2130480816771582  1.0000
  Br  Br1       1.0  0.5206267027505974  0.14218397291593732  0.2539776649715009  1.0000
  Br  Br2       1.0  0.8578155219611292  0.47937400507468203  0.24602455749462857  1.0000
  Br  Br3       1.0  0.4793724018113395  0.8578165563848689  0.7460226465298022  1.0000
  Br  Br4       1.0  0.14218452831703843  0.5206291170521382  0.7539780703240171  1.0000
  N   N1        1.0  0.43384073296595477  0.5426716231660506  0.35317536441907293  1.0000
  N   N2        1.0  0.457324131983633  0.566157194148019  0.14682624827454302  1.0000
  N   N3        1.0  0.566158006580132  0.45732250352312326  0.646825300508816  1.0000
  N   N4        1.0  0.5426750009681459  0.4338433635482276  0.8531759360948713  1.0000
  N   N5        1.0  0.17558407938832946  0.41913073675978313  0.5472790670861728  1.0000
  N   N6        1.0  0.5808769348991876  0.8244104354350199  0.9527228389753336  1.0000
  N   N7        1.0  0.8244077810850858  0.580876265409991  0.4527219099729295  1.0000
  N   N8        1.0  0.41912635030803375  0.17558750783737764  0.0472780145254674  1.0000
  O   O1        1.0  0.20592485076787176  0.1567500131092672  0.4899460253938204  1.0000
  O   O2        1.0  0.8432572031724208  0.7940683348988956  0.010055764283045207  1.0000
  O   O3        1.0  0.7940659208933527  0.843255716643803  0.5100550749766057  1.0000
  O   O4        1.0  0.15674752328187944  0.20592830622759814  0.9899444566746997  1.0000
  O   O5        1.0  0.05634610155460962  0.20568040144980423  0.617217759271675  1.0000
  O   O6        1.0  0.794322080270945  0.9436524191506308  0.8827822747397465  1.0000
  O   O7        1.0  0.9436502541458514  0.7943214022683664  0.38278075339770373  1.0000
  O   O8        1.0  0.2056799351749988  0.05634553425379352  0.11721864454355574  1.0000
