data_image0
_chemical_formula_structural       Zn8H46C78Cl2O31
_chemical_formula_sum              "Zn8 H46 C78 Cl2 O31"
_cell_length_a       18.481807281691967
_cell_length_b       18.35388919479843
_cell_length_c       18.436338349112397
_cell_angle_alpha    60.37746458567857
_cell_angle_beta     60.613793174282954
_cell_angle_gamma    60.42814392891581

_space_group_name_H-M_alt    "P 1"
_space_group_IT_number       1

loop_
  _space_group_symop_operation_xyz
  'x, y, z'

loop_
  _atom_site_type_symbol
  _atom_site_label
  _atom_site_symmetry_multiplicity
  _atom_site_fract_x
  _atom_site_fract_y
  _atom_site_fract_z
  _atom_site_occupancy
  Zn  Zn1       1.0  0.9590779238073918  0.45794207686854793  0.12646442966308058  1.0000
  Zn  Zn2       1.0  0.13393240059836126  0.45783325195159824  0.9552799022767074  1.0000
  Zn  Zn3       1.0  0.9583517413587685  0.6312947675055651  0.9551987211824836  1.0000
  Zn  Zn4       1.0  0.9622319696975193  0.4558065698794635  0.9536090411625935  1.0000
  Zn  Zn5       1.0  0.5333846263978685  0.04557581906782103  0.3730388149659873  1.0000
  Zn  Zn6       1.0  0.5364050338352797  0.8732089856437286  0.541908158775989  1.0000
  Zn  Zn7       1.0  0.3609934120207539  0.04805351016541684  0.5434193676092178  1.0000
  Zn  Zn8       1.0  0.5361109415323284  0.04470649737718448  0.5467771659180157  1.0000
  H   H1        1.0  0.7109392707316998  0.19751254416864572  0.40257670414214897  1.0000
  H   H2        1.0  0.10793136388373618  0.308593652704161  0.621833191779139  1.0000
  H   H3        1.0  0.035318946876913046  0.09194610344925283  0.6774985304681566  1.0000
  H   H4        1.0  0.1209859164502091  0.9932720869505829  0.7828927181206425  1.0000
  H   H5        1.0  0.20066799299770113  0.0521838726919269  0.8062325673246135  1.0000
  H   H6        1.0  0.8528220548414466  0.9344028391262428  0.6842534679475775  1.0000
  H   H7        1.0  0.9613839542112427  0.7937194529658883  0.6544274755465623  1.0000
  H   H8        1.0  0.10285000726962322  0.7254246696089413  0.6832170747165022  1.0000
  H   H9        1.0  0.027252847158749195  0.9363653436613574  0.7741986260048391  1.0000
  H   H10       1.0  0.8859574953744414  0.0053801935937868575  0.7446499869475076  1.0000
  H   H11       1.0  0.8057801198503608  0.2901409964503119  0.30831134410322397  1.0000
  H   H12       1.0  0.7008479444323042  0.7312515711174826  0.7142427615281335  1.0000
  H   H13       1.0  0.19071512381978542  0.9092911447760484  0.6592856311456928  1.0000
  H   H14       1.0  0.3046596163540441  0.5955644058431773  0.8372027253763575  1.0000
  H   H15       1.0  0.4760365581211372  0.5864055540659692  0.6925513033156748  1.0000
  H   H16       1.0  0.6541804190739383  0.5729272344123544  0.788771400894312  1.0000
  H   H17       1.0  0.5379499736701586  0.6956440066929801  0.8479697829651442  1.0000
  H   H18       1.0  0.39069010717759756  0.7626068027567783  0.8305071157091533  1.0000
  H   H19       1.0  0.8580282409891281  0.538583657058318  0.42033468717450967  1.0000
  H   H20       1.0  0.9816057784865106  0.593451953849524  0.30069830619098786  1.0000
  H   H21       1.0  0.7829049642799288  0.30057808066025876  0.14835399247343867  1.0000
  H   H22       1.0  0.8731404022628407  0.37914562604475327  0.47204744333206616  1.0000
  H   H23       1.0  0.7749530992478667  0.811405679882675  0.8160287516634099  1.0000
  H   H24       1.0  0.19226390325468395  0.24393095157023484  0.40322862426637573  1.0000
  H   H25       1.0  0.3020862904088091  0.255506835685672  0.09430882692600312  1.0000
  H   H26       1.0  0.4668102044813551  0.22744928581175813  0.0671463962450218  1.0000
  H   H27       1.0  0.6041509075328122  0.12125133314702191  0.0010046483690545002  1.0000
  H   H28       1.0  0.6316601323528487  0.9582793881712989  0.07537597537515238  1.0000
  H   H29       1.0  0.5209150002090864  0.9025706586024143  0.2162492259728666  1.0000
  H   H30       1.0  0.38305286011785694  0.008903207323648101  0.281468628996933  1.0000
  H   H31       1.0  0.7230184828114047  0.910681059107837  0.18638866588845807  1.0000
  H   H32       1.0  0.6902396670439828  0.7413744905608082  0.33970175828906685  1.0000
  H   H33       1.0  0.8022443291839279  0.8163816550246638  0.09115823115543982  1.0000
  H   H34       1.0  0.8083691259325219  0.65380814603499  0.7716640033924661  1.0000
  H   H35       1.0  0.8091753180076465  0.6569494749461312  0.26331516456199466  1.0000
  H   H36       1.0  0.6907910197393291  0.9052998476398387  0.7114046266288196  1.0000
  H   H37       1.0  0.4828005727555363  0.4406163488604662  0.81874782551904  1.0000
  H   H38       1.0  0.6498917992542913  0.20406067047061072  0.22235041311868997  1.0000
  H   H39       1.0  0.020411254850614523  0.31646224631479214  0.559063304833984  1.0000
  H   H40       1.0  0.12144130057825459  0.5536736662556974  0.20567109397998  1.0000
  H   H41       1.0  0.06775647968392916  0.22599362793705768  0.3806258295359867  1.0000
  H   H42       1.0  0.4122860100520923  0.47881004882335537  0.7224245898235963  1.0000
  H   H43       1.0  0.3340194693882665  0.42928240369234066  0.6874770307682995  1.0000
  H   H44       1.0  0.4407073968052869  0.2367291312036742  0.9449639535204638  1.0000
  H   H45       1.0  0.4119566507417076  0.20870139304716426  0.693356485656153  1.0000
  H   H46       1.0  0.08810338194596305  0.2898424546844397  0.8093684957994752  1.0000
  C   C1        1.0  0.1406237871507584  0.3571084053287663  0.8651652881640713  1.0000
  C   C2        1.0  0.8111559014208962  0.6910418371207855  0.8009777617716479  1.0000
  C   C3        1.0  0.4016775865495957  0.4148606304717433  0.7635041618596433  1.0000
  C   C4        1.0  0.8707551737264579  0.6404612807457042  0.13462894062813996  1.0000
  C   C5        1.0  0.3576330635780848  0.3867491503523439  0.7439646931810983  1.0000
  C   C6        1.0  0.3408201187442541  0.3061909463070549  0.7959477122489105  1.0000
  C   C7        1.0  0.372340646644865  0.25322652969719417  0.8679896134247898  1.0000
  C   C8        1.0  0.4170258269759513  0.27932362236054337  0.8886904138874243  1.0000
  C   C9        1.0  0.4311057139947039  0.3611141907132022  0.8365867438272686  1.0000
  C   C10       1.0  0.3405177319439971  0.22688120405299364  0.7194724800559484  1.0000
  C   C11       1.0  0.300513566945341  0.1971043196221345  0.6963267775405341  1.0000
  C   C12       1.0  0.8045314693117189  0.31152247789337667  0.18618388368188477  1.0000
  C   C13       1.0  0.20799485382229926  0.21864319040218302  0.7295444483756838  1.0000
  C   C14       1.0  0.15955108905379226  0.2719355591226176  0.7829176129616682  1.0000
  C   C15       1.0  0.19958428423293376  0.3016713985687288  0.8060620640499464  1.0000
  C   C16       1.0  0.1422783446706219  0.37047916866174546  0.13343644108321231  1.0000
  C   C17       1.0  0.29220525759619415  0.2783321811845523  0.7746266229285653  1.0000
  C   C18       1.0  0.11025167271206016  0.23947232700773208  0.6578727713896271  1.0000
  C   C19       1.0  0.06585807996014378  0.2058611214471212  0.6445954665221406  1.0000
  C   C20       1.0  0.06976667814988244  0.11689737327451151  0.689424252884173  1.0000
  C   C21       1.0  0.11773603309099906  0.06259120169751499  0.7477230787389999  1.0000
  C   C22       1.0  0.16276234366797127  0.09527271958307885  0.7609568963152141  1.0000
  C   C23       1.0  0.7312738360267445  0.8398803878621235  0.2177848614494451  1.0000
  C   C24       1.0  0.16007740289185782  0.18385268587724823  0.7150392948724685  1.0000
  C   C25       1.0  0.9756979836859186  0.8251070546053968  0.6807445746281359  1.0000
  C   C26       1.0  0.05498452877122871  0.7865527037603002  0.6972548441962941  1.0000
  C   C27       1.0  0.07465370872670711  0.826228046094009  0.7307998470231709  1.0000
  C   C28       1.0  0.8661352895459513  0.6378926475269041  0.8588070518253444  1.0000
  C   C29       1.0  0.013074998143181957  0.9055101737180351  0.7472275372115219  1.0000
  C   C30       1.0  0.9334159211063022  0.9439144627910351  0.7311914704673512  1.0000
  C   C31       1.0  0.9146712264992799  0.9039270284539141  0.6976690669560668  1.0000
  C   C32       1.0  0.2145183957022993  0.8404832405540786  0.6998588570204021  1.0000
  C   C33       1.0  0.2999460446517119  0.8068035643525351  0.7024456506906488  1.0000
  C   C34       1.0  0.6875994338900356  0.8104887748338852  0.30487258507971393  1.0000
  C   C35       1.0  0.33445590453619906  0.717207931394526  0.7519665665966855  1.0000
  C   C36       1.0  0.280886169159153  0.6644559658130474  0.796718451970186  1.0000
  C   C37       1.0  0.19530007804252136  0.6982476206024374  0.7942104553467075  1.0000
  C   C38       1.0  0.1610311059120803  0.7875915695236061  0.743923517795217  1.0000
  C   C39       1.0  0.48812521283504384  0.6089591621805113  0.7290330629404947  1.0000
  C   C40       1.0  0.1402850447150214  0.6386674302952998  0.8527944100052808  1.0000
  C   C41       1.0  0.5706830944252272  0.572385326601129  0.7387870538238133  1.0000
  C   C42       1.0  0.5894579353138026  0.6027641599466943  0.7815617866738833  1.0000
  C   C43       1.0  0.5239703193587529  0.671374310036377  0.8144254591168405  1.0000
  C   C44       1.0  0.44138806621548093  0.7090179421436814  0.8046262982749112  1.0000
  C   C45       1.0  0.7860659584527951  0.784041631443465  0.16270361629979388  1.0000
  C   C46       1.0  0.42276349431421767  0.6783269129235734  0.761574553266577  1.0000
  C   C47       1.0  0.9884772774516576  0.5234935955139124  0.3246978504078868  1.0000
  C   C48       1.0  0.06681141201142542  0.46382935204291426  0.28820152091503093  1.0000
  C   C49       1.0  0.07771297164459408  0.37333619807303364  0.3180770667889447  1.0000
  C   C50       1.0  0.005996313867967681  0.3447516580445012  0.38399051348628177  1.0000
  C   C51       1.0  0.9271545352719526  0.4037442259789261  0.42133388675165406  1.0000
  C   C52       1.0  0.863156193519309  0.3649056132287286  0.1340540273265987  1.0000
  C   C53       1.0  0.9193566777507339  0.49252707614879654  0.3914357652907228  1.0000
  C   C54       1.0  0.21511447484346036  0.2461326263442415  0.3354579885453006  1.0000
  C   C55       1.0  0.298288608503924  0.1874376853999777  0.30392545044786357  1.0000
  C   C56       1.0  0.8192370014628095  0.694564040031409  0.19329339394100492  1.0000
  C   C57       1.0  0.33147343932609624  0.1893936630548438  0.215921346020238  1.0000
  C   C58       1.0  0.27916417416146533  0.25291388387543634  0.16219483878848  1.0000
  C   C59       1.0  0.19633598261034274  0.3112606465036052  0.1937159152856438  1.0000
  C   C60       1.0  0.16277655318484818  0.3093490685431206  0.2817486538245006  1.0000
  C   C61       1.0  0.4783234658001732  0.15619893753364522  0.0995617460350573  1.0000
  C   C62       1.0  0.555890609456668  0.09636190347782035  0.062705692168052  1.0000
  C   C63       1.0  0.5715014725522636  0.005056783544894391  0.10453110941265459  1.0000
  C   C64       1.0  0.7229756971830952  0.22406197404116304  0.33171067005153526  1.0000
  C   C65       1.0  0.5092743045223854  0.9738326895110135  0.1835216516054246  1.0000
  C   C66       1.0  0.4319803401908686  0.03355608771525449  0.22040761189617086  1.0000
  C   C67       1.0  0.7122167999115376  0.8332049490358879  0.7294866372586526  1.0000
  C   C68       1.0  0.4155471833574325  0.1255580181748073  0.17901464728344507  1.0000
  C   C69       1.0  0.6315971920571355  0.8613210834046473  0.6386307337038202  1.0000
  C   C70       1.0  0.3530111928209009  0.13095001094244207  0.3636131153568201  1.0000
  C   C71       1.0  0.6326262467287616  0.868169426427656  0.35979679416629307  1.0000
  C   C72       1.0  0.35891096321548577  0.14408351116945534  0.6350570629054674  1.0000
  C   C73       1.0  0.35519271373749456  0.8660606161011088  0.6443015687078385  1.0000
  C   C74       1.0  0.6244445089919708  0.14540637065019263  0.36800466933204484  1.0000
  C   C75       1.0  0.6809130229703441  0.20264428712111027  0.3053160091954864  1.0000
  C   C76       1.0  0.7796693105362563  0.27698698543427724  0.2757264962591819  1.0000
  C   C77       1.0  0.6850067968731892  0.8020327360443745  0.6978244793666447  1.0000
  C   C78       1.0  0.7670961420292169  0.7788398801878956  0.7855084343075234  1.0000
  Cl  Cl1       1.0  0.3533321132248374  0.1528546923330651  0.9360428420699805  1.0000
  Cl  Cl2       1.0  0.6514152692632533  0.48780281742981657  0.6962954185655974  1.0000
  O   O1        1.0  0.004650597011838831  0.5013976154421513  0.9966464566708736  1.0000
  O   O2        1.0  0.3235268809942936  0.1368178472887394  0.5956021302754805  1.0000
  O   O3        1.0  0.437185153111514  0.8280597148706691  0.6118562556346205  1.0000
  O   O4        1.0  0.058520974978499396  0.3872608189585519  0.8760514140867881  1.0000
  O   O5        1.0  0.6117176743004719  0.11663047970430548  0.45017567532241287  1.0000
  O   O6        1.0  0.3152280490981524  0.9493235469586523  0.6299223410339039  1.0000
  O   O7        1.0  0.5934255138576673  0.13086152483869992  0.32928098227727526  1.0000
  O   O8        1.0  0.6200270780108568  0.9516923170638308  0.32219537563616285  1.0000
  O   O9        1.0  0.4409425609577581  0.11115145487455179  0.625830126269662  1.0000
  O   O10       1.0  0.6116285666518165  0.8221598752858982  0.6130698223763461  1.0000
  O   O11       1.0  0.3127283524466618  0.10480301773413453  0.4465285761670046  1.0000
  O   O12       1.0  0.05994860988509739  0.3841806894135971  0.16979460516390793  1.0000
  O   O13       1.0  0.8914948709715559  0.5564935480280654  0.17382312477582218  1.0000
  O   O14       1.0  0.18340731282363978  0.3990720449673616  0.05114622156568059  1.0000
  O   O15       1.0  0.8813096928713546  0.6788256751879158  0.8865918647457606  1.0000
  O   O16       1.0  0.1807901332577727  0.5555464561339106  0.8661835644689759  1.0000
  O   O17       1.0  0.8865444776273748  0.38690723952192496  0.04992763879005929  1.0000
  O   O18       1.0  0.058479529986399804  0.6759062584437744  0.8866378798949339  1.0000
  O   O19       1.0  0.8862142421260158  0.385777369903437  0.1745744850561337  1.0000
  O   O20       1.0  0.473972984631409  0.3841395645569603  0.8610333490606834  1.0000
  O   O21       1.0  0.6869015119840894  0.23019081631920088  0.2202046395647059  1.0000
  O   O22       1.0  0.017649538617291655  0.2564163964563945  0.5881034198205911  1.0000
  O   O23       1.0  0.8938975956412276  0.5540820663688779  0.875577253971933  1.0000
  O   O24       1.0  0.13712183513381854  0.489987443939924  0.2214933394599825  1.0000
  O   O25       1.0  0.009834008956978772  0.2591047176734448  0.4125380146979936  1.0000
  O   O26       1.0  0.17617078101268643  0.369831414759716  0.9001922836455378  1.0000
  O   O27       1.0  0.889357597189182  0.6810997281029784  0.051392651360835394  1.0000
  O   O28       1.0  0.4911272724224317  0.0036029277653355793  0.5020554919315784  1.0000
  O   O29       1.0  0.6101163925236291  0.9450629986928972  0.6176405662875623  1.0000
  O   O30       1.0  0.4356291503909943  0.11639267595047896  0.3264907264018788  1.0000
  O   O31       1.0  0.601487157213519  0.8282260915966263  0.4423336926141488  1.0000
