data_image0
_chemical_formula_structural       Co2H28C40N4O8
_chemical_formula_sum              "Co2 H28 C40 N4 O8"
_cell_length_a       9.142510458313133
_cell_length_b       9.9846077190217
_cell_length_c       9.98330932493624
_cell_angle_alpha    83.00088879094541
_cell_angle_beta     80.60117697045007
_cell_angle_gamma    80.6245517580811

_space_group_name_H-M_alt    "P 1"
_space_group_IT_number       1

loop_
  _space_group_symop_operation_xyz
  'x, y, z'

loop_
  _atom_site_type_symbol
  _atom_site_label
  _atom_site_symmetry_multiplicity
  _atom_site_fract_x
  _atom_site_fract_y
  _atom_site_fract_z
  _atom_site_occupancy
  Co  Co1       1.0  0.25008438079262874  0.11008149356956659  0.8897512583628925  1.0000
  Co  Co2       1.0  0.750032859067936  0.8896527657010296  0.11007164140781363  1.0000
  H   H1        1.0  0.036516186152830726  0.3007345145815065  0.7526446386341944  1.0000
  H   H2        1.0  0.5362760814566911  0.7526314077374818  0.30053843387865  1.0000
  H   H3        1.0  0.9644222568448204  0.6999826520476091  0.24702071564561115  1.0000
  H   H4        1.0  0.4643374965361318  0.2470520063136732  0.699816003891442  1.0000
  H   H5        1.0  0.3451219970844052  0.9595038718954212  0.6602495272529297  1.0000
  H   H6        1.0  0.8455056319073648  0.6601507220251719  0.9595985593747755  1.0000
  H   H7        1.0  0.6554447924110178  0.04107970167375189  0.33900434294664455  1.0000
  H   H8        1.0  0.15594831244633414  0.3388903203277351  0.0414499075157337  1.0000
  H   H9        1.0  0.2789711089179506  0.9701083021703666  0.4254977443316079  1.0000
  H   H10       1.0  0.7796596735980829  0.42522594861631546  0.9704404058286613  1.0000
  H   H11       1.0  0.7208440008438118  0.0303238915032082  0.5740999338566368  1.0000
  H   H12       1.0  0.22140984422036789  0.5739451598863495  0.03053474056218869  1.0000
  H   H13       1.0  0.8779251767801668  0.42508481914709495  0.5838942196957362  1.0000
  H   H14       1.0  0.3775429087663228  0.5839270708731021  0.42483819886971474  1.0000
  H   H15       1.0  0.12310157654900422  0.5759682739962457  0.4158528396738533  1.0000
  H   H16       1.0  0.6229827644711892  0.41582934813870026  0.5755508279632837  1.0000
  H   H17       1.0  0.7965225248856386  0.44419267549899644  0.35458155151760445  1.0000
  H   H18       1.0  0.2960822556377067  0.3546260303840754  0.44394733727133234  1.0000
  H   H19       1.0  0.2031121291267227  0.556208950359938  0.6458219801596456  1.0000
  H   H20       1.0  0.703031181913545  0.6458146941023059  0.5554772195134774  1.0000
  H   H21       1.0  0.9155211267744647  0.2763744775867067  0.18896348681548153  1.0000
  H   H22       1.0  0.4155770048944873  0.18885577126276584  0.2764431144114283  1.0000
  H   H23       1.0  0.08279210565775946  0.7233075247070884  0.8117162839303589  1.0000
  H   H24       1.0  0.582933440328894  0.8117254436857165  0.7226694260150595  1.0000
  H   H25       1.0  0.11730712415875644  0.09242655057700937  0.2480292410756491  1.0000
  H   H26       1.0  0.617868264526564  0.24773971815828594  0.09280077696180908  1.0000
  H   H27       1.0  0.8811678479262215  0.9072369248927358  0.7523239349334575  1.0000
  H   H28       1.0  0.3815886400574585  0.7523068252845705  0.9069682052103402  1.0000
  C   C1        1.0  0.047387279570315986  0.9304230545883241  0.9840682973170018  1.0000
  C   C2        1.0  0.5473956439807638  0.9840080477455614  0.9304254317047694  1.0000
  C   C3        1.0  0.9524496202127326  0.0693200290411227  0.015547537238411676  1.0000
  C   C4        1.0  0.4524453061798752  0.015437221719878401  0.06938307008709191  1.0000
  C   C5        1.0  0.08763927627341421  0.2307191701635887  0.6767028801188247  1.0000
  C   C6        1.0  0.5875734572946812  0.6766401302463477  0.23062432233682978  1.0000
  C   C7        1.0  0.9129901013505378  0.7698760385959033  0.3229917159595956  1.0000
  C   C8        1.0  0.4130527784753824  0.32299184860881514  0.7697821871344033  1.0000
  C   C9        1.0  0.26015626359825467  0.038235206718176984  0.6231152369452317  1.0000
  C   C10       1.0  0.7604720798583102  0.6229902074103961  0.038304266944585705  1.0000
  C   C11       1.0  0.7401442513272728  0.9622334112348268  0.3764018607989925  1.0000
  C   C12       1.0  0.24051011287628662  0.37632983430695066  0.9624096797117404  1.0000
  C   C13       1.0  0.22188184979323472  0.04480780115963509  0.4949063250799739  1.0000
  C   C14       1.0  0.7223656070816205  0.4947047919063433  0.04500151689135384  1.0000
  C   C15       1.0  0.7780537594680723  0.9556138324965248  0.5047516153487591  1.0000
  C   C16       1.0  0.2784852733401593  0.504667386464213  0.9557093294990793  1.0000
  C   C17       1.0  0.10896535216074453  0.1489816564654447  0.4521487202983678  1.0000
  C   C18       1.0  0.6092651451681945  0.45197915123728905  0.14910435578971704  1.0000
  C   C19       1.0  0.8907430882959559  0.8513370522487161  0.5477568810968307  1.0000
  C   C20       1.0  0.39104253739198935  0.5477235401290841  0.8512228015255658  1.0000
  C   C21       1.0  0.040263508106335215  0.24512455251282003  0.5474957968789127  1.0000
  C   C22       1.0  0.540272334020152  0.5474010897399706  0.24508532931766072  1.0000
  C   C23       1.0  0.9600503016215285  0.7554693443138731  0.45232000554696583  1.0000
  C   C24       1.0  0.4601754483724392  0.45230706277410343  0.7552779290994991  1.0000
  C   C25       1.0  0.9276244833880585  0.35211730130234287  0.5104795860089553  1.0000
  C   C26       1.0  0.4274052283983637  0.5104608011869658  0.35196871145758013  1.0000
  C   C27       1.0  0.07276002385778219  0.6485860515423311  0.4894359972333646  1.0000
  C   C28       1.0  0.5727596656875777  0.4894277849231159  0.6481908567888368  1.0000
  C   C29       1.0  0.8837367604043681  0.3624939338106542  0.3834120483617339  1.0000
  C   C30       1.0  0.38350428260214653  0.3833995116234945  0.36236629071877496  1.0000
  C   C31       1.0  0.11591813445735263  0.6378679018772644  0.6168334767822969  1.0000
  C   C32       1.0  0.6159369761972187  0.6168295359941709  0.637297399932379  1.0000
  C   C33       1.0  0.9511542015731608  0.2674979852614072  0.289055497329464  1.0000
  C   C34       1.0  0.4512129864149728  0.2889561038300598  0.2675446819413096  1.0000
  C   C35       1.0  0.047746197301933115  0.7324589609846441  0.7113519463852639  1.0000
  C   C36       1.0  0.5478937757944851  0.7113515002109024  0.7319318319094633  1.0000
  C   C37       1.0  0.06223792501350542  0.16299674083841606  0.3222335034369905  1.0000
  C   C38       1.0  0.5625859723356897  0.32203653602910265  0.16319884345959673  1.0000
  C   C39       1.0  0.9367483568186897  0.8369752707241388  0.6779965956262544  1.0000
  C   C40       1.0  0.43705585924510615  0.6779714131144913  0.8366784822992273  1.0000
  N   N1        1.0  0.19348147203559313  0.1310211909257077  0.7140246367730043  1.0000
  N   N2        1.0  0.6935392863075907  0.7139399723526195  0.13097712712558968  1.0000
  N   N3        1.0  0.8069526093283201  0.869347974047784  0.28563080238247823  1.0000
  N   N4        1.0  0.30711564540249014  0.2856010325669729  0.8694242268212805  1.0000
  O   O1        1.0  0.1819415517229075  0.9323159336493204  0.9243578120369024  1.0000
  O   O2        1.0  0.6818965048132528  0.9242333389825529  0.932299838863841  1.0000
  O   O3        1.0  0.8178289764207919  0.0674523440228896  0.07514650581325812  1.0000
  O   O4        1.0  0.3178658586182835  0.07506358005015559  0.06756356469720258  1.0000
  O   O5        1.0  0.9869208580622768  0.8242753957663355  0.018010397506849123  1.0000
  O   O6        1.0  0.48699674016135225  0.0180511443569102  0.8242656008521508  1.0000
  O   O7        1.0  0.012900240462990117  0.17547058719561184  0.9816725599159143  1.0000
  O   O8        1.0  0.512871107175883  0.981490906560779  0.17552581453962554  1.0000
