data_image0
_chemical_formula_structural       Ni2H56C68N8Cl4O8
_chemical_formula_sum              "Ni2 H56 C68 N8 Cl4 O8"
_cell_length_a       11.944902961545628
_cell_length_b       11.948917966443874
_cell_length_c       13.12583771807562
_cell_angle_alpha    68.80090360521736
_cell_angle_beta     68.80389723153003
_cell_angle_gamma    62.65031592997154

_space_group_name_H-M_alt    "P 1"
_space_group_IT_number       1

loop_
  _space_group_symop_operation_xyz
  'x, y, z'

loop_
  _atom_site_type_symbol
  _atom_site_label
  _atom_site_symmetry_multiplicity
  _atom_site_fract_x
  _atom_site_fract_y
  _atom_site_fract_z
  _atom_site_occupancy
  Ni  Ni1       1.0  0.9556598383235267  0.0443171417564443  0.2500310428283967  1.0000
  Ni  Ni2       1.0  0.04549202199720536  0.9545197730809035  0.7500636050821329  1.0000
  H   H1        1.0  0.03823324370940641  0.8571174268922873  0.46109708008287237  1.0000
  H   H2        1.0  0.14291510328192905  0.9615740870779917  0.03893926445932293  1.0000
  H   H3        1.0  0.9613268427813609  0.1425185194905936  0.5371969471569074  1.0000
  H   H4        1.0  0.8573895110341782  0.038862185763576904  0.962865887951672  1.0000
  H   H5        1.0  0.7129272634223012  0.8591531584984936  0.5448860715254398  1.0000
  H   H6        1.0  0.1409446614028695  0.2870950505594649  0.9548377304408574  1.0000
  H   H7        1.0  0.2867008097846195  0.1403937918855362  0.45524590597929654  1.0000
  H   H8        1.0  0.8598684638754932  0.7131057639418187  0.04468338323066228  1.0000
  H   H9        1.0  0.5432060868009999  0.39041174345042845  0.3534756976212137  1.0000
  H   H10       1.0  0.609583158532878  0.45686723887589403  0.14656172804595968  1.0000
  H   H11       1.0  0.45611402711770693  0.610233726050417  0.6459812877440568  1.0000
  H   H12       1.0  0.3897594498921249  0.5439931374960381  0.8539458733204627  1.0000
  H   H13       1.0  0.5091615261122584  0.7961087784238572  0.3682057479458578  1.0000
  H   H14       1.0  0.20388976547116758  0.4907631135362962  0.13186166442684316  1.0000
  H   H15       1.0  0.4895690853032662  0.20495115426025728  0.631885453825511  1.0000
  H   H16       1.0  0.7949738941053468  0.5103889370580036  0.8680934290761897  1.0000
  H   H17       1.0  0.35224115542971657  0.5959997846621405  0.37039125760835395  1.0000
  H   H18       1.0  0.4039739384668479  0.647821025906552  0.12953955145324172  1.0000
  H   H19       1.0  0.647099666161388  0.40465741744213074  0.6290578378417423  1.0000
  H   H20       1.0  0.5953193185885796  0.3529714004839376  0.8710251250596315  1.0000
  H   H21       1.0  0.21958587420843398  0.1389910120748254  0.1149489774255343  1.0000
  H   H22       1.0  0.8611201400798973  0.7801748819026385  0.3851922282425164  1.0000
  H   H23       1.0  0.780620917620155  0.8605371374669132  0.8832860432615275  1.0000
  H   H24       1.0  0.13952488231700497  0.2194882823157512  0.6167001964372574  1.0000
  H   H25       1.0  0.18802785437330274  0.7114909929241262  0.5790242601987218  1.0000
  H   H26       1.0  0.2884152994384052  0.8119874661064089  0.9209796660076535  1.0000
  H   H27       1.0  0.8115631633591605  0.28916556794283815  0.42029117899008384  1.0000
  H   H28       1.0  0.7107795127539376  0.1885556021663533  0.07975104751343311  1.0000
  H   H29       1.0  0.2859701251759859  0.7845393868360659  0.5774066441539105  1.0000
  H   H30       1.0  0.21535974382552342  0.714074362033756  0.9225484526816743  1.0000
  H   H31       1.0  0.7133642319910791  0.21664343167726238  0.42144529104150735  1.0000
  H   H32       1.0  0.7834566343581031  0.286613880108355  0.07858698380720608  1.0000
  H   H33       1.0  0.6883417494052825  0.845430098983904  0.24448048749250967  1.0000
  H   H34       1.0  0.1543923925523458  0.3116830073666036  0.25550953113322095  1.0000
  H   H35       1.0  0.3108000334879435  0.1548037693007416  0.7557201778866869  1.0000
  H   H36       1.0  0.8451601868187384  0.6890671328922906  0.7443351212050401  1.0000
  H   H37       1.0  0.649954615162379  0.013876592899663398  0.186341630784483  1.0000
  H   H38       1.0  0.9858689893281252  0.3502074713560432  0.3136740886201109  1.0000
  H   H39       1.0  0.3496632644462352  0.9862880239218155  0.813871214094192  1.0000
  H   H40       1.0  0.013756278087505847  0.6502267639903749  0.6861718229955543  1.0000
  H   H41       1.0  0.6824078333925667  0.9123795075609423  0.10079765489933123  1.0000
  H   H42       1.0  0.0875007675799537  0.31754131355938847  0.399216845962556  1.0000
  H   H43       1.0  0.31712480825228784  0.0879654499063136  0.8992673036697452  1.0000
  H   H44       1.0  0.9119937456879154  0.6828280626410718  0.6007643514565685  1.0000
  H   H45       1.0  0.49009379884303417  0.19951755205289604  0.07546675773581057  1.0000
  H   H46       1.0  0.8002664382438169  0.5099848306047077  0.42470221308836653  1.0000
  H   H47       1.0  0.5097617335260908  0.8004894617396303  0.9244676837849399  1.0000
  H   H48       1.0  0.19961787234701941  0.4902162729438899  0.575504506369789  1.0000
  H   H49       1.0  0.38783948481613345  0.2096106413323398  0.9998984901728889  1.0000
  H   H50       1.0  0.7903343690629825  0.6122111020379818  0.5001336251409256  1.0000
  H   H51       1.0  0.6121747064308993  0.7909045917334153  0.9995826516325083  1.0000
  H   H52       1.0  0.20914469636272062  0.3878725641188296  0.5003978874446062  1.0000
  H   H53       1.0  0.54753955293652  0.09020249642473029  0.9896761927133823  1.0000
  H   H54       1.0  0.9096118747022144  0.45252623181134055  0.5104913952402654  1.0000
  H   H55       1.0  0.4523951305182054  0.9101184945264786  0.009910830539240632  1.0000
  H   H56       1.0  0.08990914802233621  0.5475863344037036  0.4900947031866707  1.0000
  C   C1        1.0  0.6130653428327973  0.0229811676312721  0.42928699924398467  1.0000
  C   C2        1.0  0.9770689666688881  0.38693215667650793  0.07049724287749363  1.0000
  C   C3        1.0  0.3868073943073115  0.9758457223828  0.5706967351102677  1.0000
  C   C4        1.0  0.024409238326391983  0.6130565271275683  0.9291706144171671  1.0000
  C   C5        1.0  0.740128518530227  0.03523018744937189  0.36234633121599563  1.0000
  C   C6        1.0  0.96472762855403  0.25994997577348045  0.13761942047865705  1.0000
  C   C7        1.0  0.26126214087555877  0.9625070962079714  0.6408774800360888  1.0000
  C   C8        1.0  0.037689539172362216  0.7386460407913588  0.8591058830008363  1.0000
  C   C9        1.0  0.31566903463014034  0.8896894432446485  0.33761997834624685  1.0000
  C   C10       1.0  0.11033458075773696  0.6842103217029701  0.1624445316421372  1.0000
  C   C11       1.0  0.6836761139549735  0.11070548240656555  0.6614056238264678  1.0000
  C   C12       1.0  0.889261245299373  0.3163589157544493  0.8385977833784113  1.0000
  C   C13       1.0  0.49064407567340146  0.1038240049283843  0.40542418410258557  1.0000
  C   C14       1.0  0.8962821238156095  0.5093274727719147  0.09435476964031866  1.0000
  C   C15       1.0  0.5094156472098208  0.8947555156179869  0.5942888793829937  1.0000
  C   C16       1.0  0.10541844521190318  0.49049497373228224  0.9055456081340623  1.0000
  C   C17       1.0  0.1185142461092709  0.8850811419502733  0.405158437439546  1.0000
  C   C18       1.0  0.11494709048600539  0.8813259650475513  0.09493422842626133  1.0000
  C   C19       1.0  0.8811764940501449  0.11439834349104668  0.5933164936632165  1.0000
  C   C20       1.0  0.8855522087855904  0.1189437279201186  0.9067167002942114  1.0000
  C   C21       1.0  0.6189155025676955  0.919753956804186  0.5247460790030515  1.0000
  C   C22       1.0  0.08033713048606472  0.3810400780970368  0.9750417583991718  1.0000
  C   C23       1.0  0.38080905316915903  0.07911112867481047  0.4751284458433033  1.0000
  C   C24       1.0  0.9211012711147575  0.6190872658561446  0.024710093602749176  1.0000
  C   C25       1.0  0.23386892879251064  0.9836897454835449  0.2656424242764858  1.0000
  C   C26       1.0  0.0163748779833668  0.7659755376036869  0.2344592305209119  1.0000
  C   C27       1.0  0.7659743639503774  0.0160127782728097  0.732744723009091  1.0000
  C   C28       1.0  0.9839834698410215  0.23408268892448797  0.7672579544538465  1.0000
  C   C29       1.0  0.3913455071884542  0.6161386385950393  0.5100210416314398  1.0000
  C   C30       1.0  0.3838612755344855  0.6087113535057894  0.9899341231720838  1.0000
  C   C31       1.0  0.6081337348476552  0.38467847322579724  0.4892459408771117  1.0000
  C   C32       1.0  0.6153031889941617  0.3919356718579222  0.010794623154147575  1.0000
  C   C33       1.0  0.5243279164440436  0.43949992051739145  0.4171560923952597  1.0000
  C   C34       1.0  0.560519525561787  0.4757346247631277  0.0828528940015687  1.0000
  C   C35       1.0  0.47512954351095266  0.5613182086302473  0.5821316047589136  1.0000
  C   C36       1.0  0.43866542714116014  0.5249734171515003  0.9178239886997446  1.0000
  C   C37       1.0  0.44601586518479036  0.8709572889225116  0.3136980187539748  1.0000
  C   C38       1.0  0.1290332551460125  0.55390778488281  0.186360463858982  1.0000
  C   C39       1.0  0.5531388478812359  0.12973904231608194  0.6859057677008522  1.0000
  C   C40       1.0  0.8702177571377733  0.44684743804700106  0.8140854759968335  1.0000
  C   C41       1.0  0.4169173960655926  0.5545242577712413  0.4270248856044531  1.0000
  C   C42       1.0  0.44548374214632264  0.58311836092885  0.07295455949510915  1.0000
  C   C43       1.0  0.5825248461042349  0.4462706653404067  0.5722925291848142  1.0000
  C   C44       1.0  0.553697145602669  0.41756734369993614  0.9277312260035585  1.0000
  C   C45       1.0  0.4944683622758887  0.9504524758507173  0.21701439256415267  1.0000
  C   C46       1.0  0.049507022874969754  0.5054625079642036  0.2830412214911036  1.0000
  C   C47       1.0  0.5049580535490179  0.050032756357573795  0.7826550750736274  1.0000
  C   C48       1.0  0.9499613813317539  0.4950239078508573  0.7173519784232526  1.0000
  C   C49       1.0  0.2819093881992956  0.06531307251572119  0.1703562920187593  1.0000
  C   C50       1.0  0.9347584592644014  0.7179131443398744  0.3297465711548708  1.0000
  C   C51       1.0  0.7180231639373743  0.9345025097064056  0.8282300677065991  1.0000
  C   C52       1.0  0.0655238237879701  0.28203804477386296  0.6717847322701473  1.0000
  C   C53       1.0  0.4109055084612052  0.05055361936619109  0.14709672772922025  1.0000
  C   C54       1.0  0.9494259946814553  0.5889917508583337  0.3529717814369775  1.0000
  C   C55       1.0  0.5888033101205038  0.9497053867981579  0.8522018188324196  1.0000
  C   C56       1.0  0.05032615121647409  0.4112112458170429  0.6478053333738032  1.0000
  C   C57       1.0  0.2728395700588989  0.7364302639680104  0.5281064447157675  1.0000
  C   C58       1.0  0.2635184262559562  0.7271623984638325  0.9718597871531571  1.0000
  C   C59       1.0  0.726581362187531  0.26436796119916284  0.47103113572551086  1.0000
  C   C60       1.0  0.7356122955513272  0.2734973307574791  0.02902005121160299  1.0000
  C   C61       1.0  0.6356294955714717  0.9294031606514536  0.18604740199576494  1.0000
  C   C62       1.0  0.07044977207380038  0.36438053672730325  0.3139765127322036  1.0000
  C   C63       1.0  0.36380295705674115  0.07092571885234379  0.8140247549010482  1.0000
  C   C64       1.0  0.9290664441249562  0.6361290945242074  0.6860018820354835  1.0000
  C   C65       1.0  0.46158827021389476  0.14176488943677157  0.047817089987411424  1.0000
  C   C66       1.0  0.8581449883593353  0.5384282898536625  0.4522664585224162  1.0000
  C   C67       1.0  0.5382805606243932  0.8585506358053934  0.9517414057332517  1.0000
  C   C68       1.0  0.1414993005684977  0.4617233756261782  0.5482542317920363  1.0000
  N   N1        1.0  0.11128964114534771  0.9770663275086804  0.3101724880526718  1.0000
  N   N2        1.0  0.023006825763282356  0.8885259673813052  0.1899502312967627  1.0000
  N   N3        1.0  0.8888160208266599  0.022053772690789196  0.6878616532365953  1.0000
  N   N4        1.0  0.9779312129402981  0.11127507074515111  0.812180154948443  1.0000
  N   N5        1.0  0.23888292172058817  0.829129541429573  0.4253668870887708  1.0000
  N   N6        1.0  0.17083390544780036  0.7610248956567532  0.07464313098198962  1.0000
  N   N7        1.0  0.7604257724563297  0.1713418517255718  0.5736315049587049  1.0000
  N   N8        1.0  0.8286122568604314  0.2396564017220086  0.9263988999170395  1.0000
  Cl  Cl1       1.0  0.467786497173016  0.23762667247021332  0.29284153139428776  1.0000
  Cl  Cl2       1.0  0.7623888257768529  0.5322552232515818  0.20685845752810647  1.0000
  Cl  Cl3       1.0  0.533865872917538  0.7605683957735251  0.7063636730593146  1.0000
  Cl  Cl4       1.0  0.23965752957315087  0.4661430403061074  0.7934970242984107  1.0000
  O   O1        1.0  0.8322187759944486  0.9841831840831996  0.4124475540485406  1.0000
  O   O2        1.0  0.015833913302991214  0.167684157541423  0.0877415915529554  1.0000
  O   O3        1.0  0.1644791726361987  0.015771223755208997  0.5952624871484601  1.0000
  O   O4        1.0  0.9844201079519908  0.8353268044006511  0.9048078182596057  1.0000
  O   O5        1.0  0.7580224516044893  0.0911224307867684  0.25791566029015917  1.0000
  O   O6        1.0  0.9087076860843056  0.2422653813025164  0.24202099147413486  1.0000
  O   O7        1.0  0.24854154218751756  0.9029096266486004  0.7438877926568638  1.0000
  O   O8        1.0  0.0971792527013022  0.7515393282544025  0.7560660411671662  1.0000
