data_image0
_chemical_formula_structural       H24Pb4C32O20
_chemical_formula_sum              "H24 Pb4 C32 O20"
_cell_length_a       7.527660114172955
_cell_length_b       10.749011761299236
_cell_length_c       11.056316170251083
_cell_angle_alpha    109.18709035716554
_cell_angle_beta     89.99962738980021
_cell_angle_gamma    90.00197595756025

_space_group_name_H-M_alt    "P 1"
_space_group_IT_number       1

loop_
  _space_group_symop_operation_xyz
  'x, y, z'

loop_
  _atom_site_type_symbol
  _atom_site_label
  _atom_site_symmetry_multiplicity
  _atom_site_fract_x
  _atom_site_fract_y
  _atom_site_fract_z
  _atom_site_occupancy
  H   H1        1.0  0.6296177290557238  0.9230258872249948  0.019461164936636497  1.0000
  H   H2        1.0  0.1296122350609537  0.0769756254368943  0.4805472364467105  1.0000
  H   H3        1.0  0.37038719516154117  0.0769721843992244  0.9805336257990117  1.0000
  H   H4        1.0  0.8703740911827109  0.923030368213922  0.5194663486719189  1.0000
  H   H5        1.0  0.5906059783445485  0.07819578134323278  0.09055186217397446  1.0000
  H   H6        1.0  0.0905930979667318  0.9217978578806694  0.40946416065348473  1.0000
  H   H7        1.0  0.40939496070181036  0.9218052103334812  0.9094302882884189  1.0000
  H   H8        1.0  0.9093985419488178  0.0782041817050185  0.590542742876117  1.0000
  H   H9        1.0  0.9985068048072563  0.5595108903302088  0.35050316027810857  1.0000
  H   H10       1.0  0.498503547708161  0.44049910084171956  0.14949546190134536  1.0000
  H   H11       1.0  0.0015220316430912997  0.4405039061754294  0.6494887977838243  1.0000
  H   H12       1.0  0.5015040331835436  0.5594901008475048  0.8504947050797467  1.0000
  H   H13       1.0  0.0005767674176909  0.3241464253034251  0.2126171528087467  1.0000
  H   H14       1.0  0.5005955838401661  0.675859643051339  0.28739145069842187  1.0000
  H   H15       1.0  0.9994241716442642  0.6758605419033116  0.78739221891562  1.0000
  H   H16       1.0  0.49940934034067647  0.32413645383927997  0.7126009044410179  1.0000
  H   H17       1.0  0.7219460924670429  0.42479804270168836  0.9187126965470821  1.0000
  H   H18       1.0  0.22196464967926494  0.5751987255295106  0.5812879015197081  1.0000
  H   H19       1.0  0.2780428904049543  0.575196114247447  0.08129080101601713  1.0000
  H   H20       1.0  0.7780575442170486  0.4248013210504878  0.418709324844812  1.0000
  H   H21       1.0  0.7200695870450674  0.6618247732958193  0.05688647499363937  1.0000
  H   H22       1.0  0.22007715312677328  0.338169204857337  0.44311461670772434  1.0000
  H   H23       1.0  0.2799379940712683  0.3381742787299443  0.9431068179351311  1.0000
  H   H24       1.0  0.7799490258985955  0.6618249525703277  0.55688888092574  1.0000
  Pb  Pb1       1.0  0.9658525585908961  0.038266805836940386  0.20139236166617983  1.0000
  Pb  Pb2       1.0  0.4658426764549688  0.9617197266126212  0.29861343051514655  1.0000
  Pb  Pb3       1.0  0.0341164982754378  0.9617510103286903  0.7986258797603295  1.0000
  Pb  Pb4       1.0  0.5341250515039349  0.038272417999131385  0.7013731481581754  1.0000
  C   C1        1.0  0.8676387582697629  0.7662964446778843  0.2955010518252832  1.0000
  C   C2        1.0  0.3676581303624715  0.2336983941448452  0.204506902122695  1.0000
  C   C3        1.0  0.13237546523602362  0.2337114634036296  0.7044914336556327  1.0000
  C   C4        1.0  0.6323534359321028  0.7662967364627418  0.795492382061219  1.0000
  C   C5        1.0  0.8585704776114299  0.624815150530992  0.21287312528893643  1.0000
  C   C6        1.0  0.3585826589928232  0.37518631977711436  0.2871252148523025  1.0000
  C   C7        1.0  0.14143843210471366  0.3751907920811419  0.7871205453990552  1.0000
  C   C8        1.0  0.641438206362558  0.624809795983765  0.7128743819439687  1.0000
  C   C9        1.0  0.9356210989372614  0.5290023148259023  0.2567010982512199  1.0000
  C   C10       1.0  0.43562905894339815  0.4710031150064538  0.24330087423076194  1.0000
  C   C11       1.0  0.0643957814378027  0.47100658998917283  0.7432962258461583  1.0000
  C   C12       1.0  0.5643798504338946  0.5289900478327993  0.7566986899619221  1.0000
  C   C13       1.0  0.9359636667917426  0.3977510775314669  0.17975079718269865  1.0000
  C   C14       1.0  0.43597860523385623  0.6022553555711736  0.3202551100168305  1.0000
  C   C15       1.0  0.06403328698200991  0.6022568793239457  0.8202606975355659  1.0000
  C   C16       1.0  0.5640276473179  0.39773778390243547  0.6797354021374883  1.0000
  C   C17       1.0  0.8594867044985577  0.35971755009644807  0.05755383777011497  1.0000
  C   C18       1.0  0.3595142838294763  0.6402839649825792  0.4424526526971489  1.0000
  C   C19       1.0  0.14049297947223494  0.6402845103337427  0.9424612125668754  1.0000
  C   C20       1.0  0.6405012678055542  0.3597111446779664  0.5575384846642917  1.0000
  C   C21       1.0  0.7788121001158216  0.4550707895343533  0.01452247287976853  1.0000
  C   C22       1.0  0.2788346317318259  0.5449276670223709  0.4854843049246537  1.0000
  C   C23       1.0  0.22117821132925997  0.5449292753006458  0.9854819950511096  1.0000
  C   C24       1.0  0.7211862336739188  0.4550714131720495  0.5145198504692626  1.0000
  C   C25       1.0  0.7787525045104147  0.5869426977754628  0.09132513931197643  1.0000
  C   C26       1.0  0.2787600554789051  0.4130537729889525  0.4086755818290582  1.0000
  C   C27       1.0  0.22124976282054834  0.4130543864477757  0.9086684336205404  1.0000
  C   C28       1.0  0.7212554961906433  0.5869453071371068  0.5913285735548042  1.0000
  C   C29       1.0  0.8771351956150824  0.22082503334409145  0.970009911664874  1.0000
  C   C30       1.0  0.37714822088056366  0.779178708595765  0.5300021686271348  1.0000
  C   C31       1.0  0.12283253224519798  0.7791701573613279  0.030012907722799197  1.0000
  C   C32       1.0  0.6228474043761593  0.22082031761157586  0.4699811670423412  1.0000
  O   O1        1.0  0.79530250097325  0.8522141868984008  0.2533066728026937  1.0000
  O   O2        1.0  0.29531197865986775  0.14778569515392798  0.24670681639260278  1.0000
  O   O3        1.0  0.2046931242548524  0.14778585234034838  0.7466878379015608  1.0000
  O   O4        1.0  0.7046796611956196  0.8522123879651243  0.7532925003345805  1.0000
  O   O5        1.0  0.9479148750829509  0.7945297996745849  0.4027033316980419  1.0000
  O   O6        1.0  0.4479338958149198  0.20546611961374586  0.09730461340853215  1.0000
  O   O7        1.0  0.052096691648849  0.20548204617420399  0.5972894989535857  1.0000
  O   O8        1.0  0.5520856409983494  0.7945250686286299  0.9026925152080518  1.0000
  O   O9        1.0  0.8044628685299883  0.1853038178138604  0.8606133391243628  1.0000
  O   O10       1.0  0.30445133827736015  0.8146901550173595  0.6393887237540523  1.0000
  O   O11       1.0  0.1954982169013491  0.8146815411347459  0.13941359592973854  1.0000
  O   O12       1.0  0.6955203753256286  0.18531377038601696  0.36058621760734855  1.0000
  O   O13       1.0  0.9770215018264921  0.14226150110971494  0.007044133157584983  1.0000
  O   O14       1.0  0.47702862187039585  0.8577489947402552  0.4929827816421405  1.0000
  O   O15       1.0  0.0229555252274736  0.8577425806828243  0.9929914568372731  1.0000
  O   O16       1.0  0.5229670032891391  0.14224709269814884  0.5070059526663682  1.0000
  O   O17       1.0  0.653487191839325  0.999856877847321  0.09922325076413309  1.0000
  O   O18       1.0  0.1534773926589352  0.00013344484843709966  0.4007878262160245  1.0000
  O   O19       1.0  0.34650843338334875  0.0001421670251886995  0.900767326532019  1.0000
  O   O20       1.0  0.8465129188462015  0.9998705764532047  0.5992242285172719  1.0000
