data_image0
_chemical_formula_structural       Cd4H16C12S4I4N12
_chemical_formula_sum              "Cd4 H16 C12 S4 I4 N12"
_cell_length_a       6.999441520795573
_cell_length_b       10.143497737070517
_cell_length_c       11.38991616017083
_cell_angle_alpha    89.99960117575276
_cell_angle_beta     94.66465460367321
_cell_angle_gamma    90.00016316203234

_space_group_name_H-M_alt    "P 1"
_space_group_IT_number       1

loop_
  _space_group_symop_operation_xyz
  'x, y, z'

loop_
  _atom_site_type_symbol
  _atom_site_label
  _atom_site_symmetry_multiplicity
  _atom_site_fract_x
  _atom_site_fract_y
  _atom_site_fract_z
  _atom_site_occupancy
  Cd  Cd1       1.0  0.2582382232412925  0.06677375198362509  0.5965856104611689  1.0000
  Cd  Cd2       1.0  0.24176412539227243  0.5667766158733655  0.9034115700307694  1.0000
  Cd  Cd3       1.0  0.7417499112749298  0.9332216529554386  0.40341109166385536  1.0000
  Cd  Cd4       1.0  0.7582440710810091  0.43322766176419947  0.0965852056871555  1.0000
  H   H1        1.0  0.9952879155745722  0.3000732171101888  0.7188882479874295  1.0000
  H   H2        1.0  0.5047193990626512  0.8000933112577396  0.781105308096059  1.0000
  H   H3        1.0  0.004701616648255  0.6999172585840227  0.2811032525875987  1.0000
  H   H4        1.0  0.49529029631250415  0.19992279658279696  0.21890119643055783  1.0000
  H   H5        1.0  0.702721195647186  0.44050468893917827  0.7386352670982885  1.0000
  H   H6        1.0  0.7972937748726353  0.940518608348654  0.7613612771151139  1.0000
  H   H7        1.0  0.29727125698499185  0.5594907159932558  0.2613642737792361  1.0000
  H   H8        1.0  0.2027244734036984  0.05948764099333198  0.2386386093148474  1.0000
  H   H9        1.0  0.47834945689109537  0.3650829466087444  0.6880730235711283  1.0000
  H   H10       1.0  0.021662533568715503  0.8650900219286439  0.8119306319761607  1.0000
  H   H11       1.0  0.5216444291587765  0.6349104866183877  0.3119265853038655  1.0000
  H   H12       1.0  0.9783514679893276  0.13490735470062276  0.18807695484177597  1.0000
  H   H13       1.0  0.5945942630923896  0.4764384985597517  0.5946024851734393  1.0000
  H   H14       1.0  0.9054193989204647  0.9764416688987577  0.9053946480333507  1.0000
  H   H15       1.0  0.40539815979116167  0.5235608498023934  0.40539266439478877  1.0000
  H   H16       1.0  0.09460172809821192  0.023563594585581896  0.0946071309013163  1.0000
  C   C1        1.0  0.6528134300694433  0.2037034944197558  0.5296614017431907  1.0000
  C   C2        1.0  0.8471863923955355  0.7037080247053067  0.9703315296898438  1.0000
  C   C3        1.0  0.34717185545795093  0.7962919105069445  0.47033779917731516  1.0000
  C   C4        1.0  0.1528203706584179  0.2962972387843407  0.029665178033638995  1.0000
  C   C5        1.0  0.9032813956617857  0.251455048984198  0.6509508118627068  1.0000
  C   C6        1.0  0.596717199113229  0.7514669168179464  0.8490487835413632  1.0000
  C   C7        1.0  0.0967053292424893  0.7485433134999795  0.3490493352995188  1.0000
  C   C8        1.0  0.40328818408719513  0.24854327590647776  0.1509557605104064  1.0000
  C   C9        1.0  0.6171057108191461  0.39999815903484387  0.6624529655144542  1.0000
  C   C10       1.0  0.8829063063398762  0.9000087056954982  0.8375507182719915  1.0000
  C   C11       1.0  0.382891083728218  0.5999942883178518  0.3375529271623918  1.0000
  C   C12       1.0  0.11711197763936812  0.09999557191988369  0.16245443772062626  1.0000
  S   S1        1.0  0.4304899242567758  0.21065284186813224  0.45483745368054684  1.0000
  S   S2        1.0  0.06951630488746469  0.710650223994861  0.04515970482400889  1.0000
  S   S3        1.0  0.5694996853490295  0.7893494640211853  0.5451654642306352  1.0000
  S   S4        1.0  0.9304962156446378  0.28934912436656646  0.9548407879210216  1.0000
  I   I1        1.0  0.3949798110306091  0.08713679130391938  0.8262340820320871  1.0000
  I   I2        1.0  0.10501972625793603  0.5871243856602745  0.6737610805941117  1.0000
  I   I3        1.0  0.6050069019699721  0.9128605853337389  0.17376430861431658  1.0000
  I   I4        1.0  0.8949770325963017  0.4128759485383995  0.3262395425018738  1.0000
  N   N1        1.0  0.9490002126281426  0.14736401612393019  0.5894690097722872  1.0000
  N   N2        1.0  0.5510022663429552  0.6473772950030535  0.9105208915602602  1.0000
  N   N3        1.0  0.0509907530091169  0.8526225161585114  0.410522558806285  1.0000
  N   N4        1.0  0.4490030990027449  0.3526319118782196  0.08948101771625258  1.0000
  N   N5        1.0  0.7927792694668981  0.1172650705587657  0.5129780840962752  1.0000
  N   N6        1.0  0.7072202548932084  0.6172721555540265  0.9870136231636052  1.0000
  N   N7        1.0  0.20720885314399606  0.8827283626805523  0.4870168615159613  1.0000
  N   N8        1.0  0.29278796538581997  0.38273310792333587  0.012986665588997  1.0000
  N   N9        1.0  0.7213958237472512  0.2894231652236952  0.6171157182292575  1.0000
  N   N10       1.0  0.7786129068903448  0.7894371031442801  0.8828806062339963  1.0000
  N   N11       1.0  0.27859517760761326  0.7105702680112029  0.3828811198846438  1.0000
  N   N12       1.0  0.22140107088642944  0.21057407544362408  0.11712346750372399  1.0000
