data_image0
_chemical_formula_structural       Zn4H16C16N16O8
_chemical_formula_sum              "Zn4 H16 C16 N16 O8"
_cell_length_a       6.8465911530838
_cell_length_b       8.937076481857753
_cell_length_c       10.432685823005222
_cell_angle_alpha    89.99990748026518
_cell_angle_beta     89.99995188863285
_cell_angle_gamma    101.38422125213404

_space_group_name_H-M_alt    "P 1"
_space_group_IT_number       1

loop_
  _space_group_symop_operation_xyz
  'x, y, z'

loop_
  _atom_site_type_symbol
  _atom_site_label
  _atom_site_symmetry_multiplicity
  _atom_site_fract_x
  _atom_site_fract_y
  _atom_site_fract_z
  _atom_site_occupancy
  Zn  Zn1       1.0  0.73041279886543  0.7760105730779829  0.7565120273140735  1.0000
  Zn  Zn2       1.0  0.269586365900942  0.7239903095636678  0.2565115104691174  1.0000
  Zn  Zn3       1.0  0.2695870561140978  0.2239906952395785  0.24348836462634438  1.0000
  Zn  Zn4       1.0  0.730414656093586  0.27600981770257255  0.7434879229458318  1.0000
  H   H1        1.0  0.3824214322538281  0.5474659649317533  0.6597279997646623  1.0000
  H   H2        1.0  0.6175782042757729  0.9525362683113274  0.1597279338298705  1.0000
  H   H3        1.0  0.6175798833953293  0.4525353037258102  0.340270475123468  1.0000
  H   H4        1.0  0.3824213570508873  0.047463858616971805  0.8402714995854836  1.0000
  H   H5        1.0  0.2655331753118446  0.510220562955425  0.5089710975924008  1.0000
  H   H6        1.0  0.7344649843314526  0.9897808544407599  0.0089709158709326  1.0000
  H   H7        1.0  0.7344663860139344  0.48977956397183675  0.4910292943488841  1.0000
  H   H8        1.0  0.2655342833396972  0.010218131095172101  0.9910304345971711  1.0000
  H   H9        1.0  0.18261563591254767  0.744728070262454  0.7091245939648232  1.0000
  H   H10       1.0  0.8173836160594943  0.7552729148128141  0.2091246913606568  1.0000
  H   H11       1.0  0.8173856797357288  0.2552731983940788  0.290874839449252  1.0000
  H   H12       1.0  0.18261565161253654  0.24472607072415542  0.790875700581502  1.0000
  H   H13       1.0  0.07433338049477814  0.7254970112680185  0.556056670913236  1.0000
  H   H14       1.0  0.9256646924967312  0.7745043043451575  0.0560576407166025  1.0000
  H   H15       1.0  0.9256661808318821  0.2745031156602808  0.4439427625021111  1.0000
  H   H16       1.0  0.0743360358431673  0.22549468152974583  0.9439427512251584  1.0000
  C   C1        1.0  0.46567874703263357  0.7231645614779297  0.521491161046562  1.0000
  C   C2        1.0  0.5343211438923418  0.7768379705832943  0.0214904255831669  1.0000
  C   C3        1.0  0.5343225686147618  0.2768367071775657  0.478509230893458  1.0000
  C   C4        1.0  0.46567841743431865  0.22316215634500483  0.9785090078321801  1.0000
  C   C5        1.0  0.3149615933619642  0.5997686603828642  0.5802498866059054  1.0000
  C   C6        1.0  0.685036435108124  0.9002326029345229  0.0802498560207709  1.0000
  C   C7        1.0  0.6850379679655774  0.40023146654647235  0.41974858828349687  1.0000
  C   C8        1.0  0.3149628325647881  0.09976638260348383  0.9197495773954429  1.0000
  C   C9        1.0  0.13686589224236204  0.6622912692517675  0.6313211129347351  1.0000
  C   C10       1.0  0.8631320422422842  0.837709883668346  0.1313210710613362  1.0000
  C   C11       1.0  0.8631336690842984  0.33770885767653885  0.3686783204806119  1.0000
  C   C12       1.0  0.13686722543062757  0.16228910186966067  0.8686783623548848  1.0000
  C   C13       1.0  0.9709101341990514  0.5401093107324187  0.6814796723800569  1.0000
  C   C14       1.0  0.029089168647310405  0.9598917341008787  0.1814799195925474  1.0000
  C   C15       1.0  0.029089427126727706  0.45989081619484296  0.31852071956123507  1.0000
  C   C16       1.0  0.970911559691707  0.04010725177299431  0.8185214308751511  1.0000
  N   N1        1.0  0.62320040978053  0.8063885019762016  0.5823258260855866  1.0000
  N   N2        1.0  0.3767976148688277  0.6936127568532772  0.0823262509193157  1.0000
  N   N3        1.0  0.37679944519987874  0.19361276634239746  0.4176736073288936  1.0000
  N   N4        1.0  0.6232019464578327  0.30638737007502936  0.9176731824960314  1.0000
  N   N5        1.0  0.7186227698639769  0.9117364625060278  0.4975508171081628  1.0000
  N   N6        1.0  0.28137624497539804  0.5882650404866683  0.9975518405990798  1.0000
  N   N7        1.0  0.2813785457842997  0.08826480615050515  0.5024486163059124  1.0000
  N   N8        1.0  0.7186230226966329  0.4117339450503011  0.0024485513430861  1.0000
  N   N9        1.0  0.6228795308228141  0.8936803939097974  0.3894971850593834  1.0000
  N   N10       1.0  0.3771196828657821  0.6063213426553563  0.8894981309476221  1.0000
  N   N11       1.0  0.3771217848254622  0.10632087474673572  0.6105022483546918  1.0000
  N   N12       1.0  0.622879584807137  0.39367764288264345  0.11050130246859878  1.0000
  N   N13       1.0  0.4634031888687388  0.7758418984312032  0.4011424421053675  1.0000
  N   N14       1.0  0.5365942490679103  0.7241586712332124  0.9011431372274856  1.0000
  N   N15       1.0  0.5365963724579216  0.22415822849709607  0.5988569913099795  1.0000
  N   N16       1.0  0.4634035579371342  0.2758403139668531  0.0988562961891333  1.0000
  O   O1        1.0  0.8102065100273561  0.5740458273487903  0.7242098209774852  1.0000
  O   O2        1.0  0.18979300783726671  0.9259562665079175  0.22421002687919867  1.0000
  O   O3        1.0  0.18979451196629069  0.42595429991641254  0.2757905709634016  1.0000
  O   O4        1.0  0.8102065534893936  0.0740438604203888  0.7757894065361484  1.0000
  O   O5        1.0  0.9876595177639231  0.4003263110051736  0.6770484991160259  1.0000
  O   O6        1.0  0.012341149696624107  0.09967548660669223  0.1770492542487716  1.0000
  O   O7        1.0  0.012342671243843034  0.599672675207664  0.3229518928253299  1.0000
  O   O8        1.0  0.9876572446132739  0.9003257813708601  0.8229530547439268  1.0000
