data_image0
_chemical_formula_structural       Zn2H32C32N4O12
_chemical_formula_sum              "Zn2 H32 C32 N4 O12"
_cell_length_a       7.494758213878451
_cell_length_b       9.643757728514291
_cell_length_c       11.83276391022672
_cell_angle_alpha    66.79776088484493
_cell_angle_beta     81.94383493797669
_cell_angle_gamma    86.1812813145683

_space_group_name_H-M_alt    "P 1"
_space_group_IT_number       1

loop_
  _space_group_symop_operation_xyz
  'x, y, z'

loop_
  _atom_site_type_symbol
  _atom_site_label
  _atom_site_symmetry_multiplicity
  _atom_site_fract_x
  _atom_site_fract_y
  _atom_site_fract_z
  _atom_site_occupancy
  Zn  Zn1       1.0  0.1086054220159909  0.6653767583291879  0.25947077678763725  1.0000
  Zn  Zn2       1.0  0.8913958383599123  0.33462103665921455  0.7405287041869075  1.0000
  H   H1        1.0  0.25562705098132454  0.1519729291235095  0.4823234777254158  1.0000
  H   H2        1.0  0.7443741637482975  0.8480271212616088  0.5176761299148539  1.0000
  H   H3        1.0  0.34210939002209534  0.5505761264918546  0.4686528935964773  1.0000
  H   H4        1.0  0.6578904265495352  0.4494261754825287  0.5313452733416498  1.0000
  H   H5        1.0  0.38808044968820354  0.9162560153879509  0.5865289740268907  1.0000
  H   H6        1.0  0.6119194442063359  0.0837428995624236  0.4134719612705241  1.0000
  H   H7        1.0  0.0479930413973335  0.1968910785593962  0.262375529205876  1.0000
  H   H8        1.0  0.9520108441495198  0.803110112190474  0.7376234728999975  1.0000
  H   H9        1.0  0.09885407076424713  0.9610548755615151  0.28389864246862134  1.0000
  H   H10       1.0  0.9011457458073836  0.038947426412868  0.7160995244695129  1.0000
  H   H11       1.0  0.4614506113377388  0.6470584971312617  0.6111383980865028  1.0000
  H   H12       1.0  0.5385465851220702  0.35294040683655226  0.3888619382105105  1.0000
  H   H13       1.0  0.4242265964447895  0.8765795748799619  0.12300138853670724  1.0000
  H   H14       1.0  0.5757719474676009  0.12341933514040444  0.8769988246379513  1.0000
  H   H15       1.0  0.37676459414682034  0.42180680747944166  0.20566897225804584  1.0000
  H   H16       1.0  0.6232353263652116  0.5781909780887486  0.7943331675741733  1.0000
  H   H17       1.0  0.8691346099980278  0.6428576007524356  0.9987559000664775  1.0000
  H   H18       1.0  0.13086390982644502  0.35714243752757097  0.001243953818495021  1.0000
  H   H19       1.0  0.5048919855540889  0.21306357635940998  0.21710798574506643  1.0000
  H   H20       1.0  0.4951092557930254  0.7869353446435168  0.7828928264300004  1.0000
  H   H21       1.0  0.7323575908779177  0.8834396113229628  0.006479617615944742  1.0000
  H   H22       1.0  0.26764089979949557  0.11656155746177886  0.9935181864891263  1.0000
  H   H23       1.0  0.8550907745529771  0.37205604768519146  0.06509549739048742  1.0000
  H   H24       1.0  0.1449090711657206  0.6279451237844497  0.9349047193275483  1.0000
  H   H25       1.0  0.8469519607581831  0.6643784428732714  0.43473383296937845  1.0000
  H   H26       1.0  0.153049280588931  0.3356204781296626  0.5652669792056884  1.0000
  H   H27       1.0  0.08851911924623579  0.8637126549265588  0.026734465249482878  1.0000
  H   H28       1.0  0.9114820954833859  0.1362873954585595  0.9732651423907871  1.0000
  H   H29       1.0  0.7845905014572879  0.7928669353556329  0.31057648288442863  1.0000
  H   H30       1.0  0.21541076144818308  0.20713085851021873  0.6894238433352199  1.0000
  H   H31       1.0  0.0013304983521820104  0.9457562949100901  0.1209014049222647  1.0000
  H   H32       1.0  0.9986707404653644  0.0542426272153946  0.8790985620076982  1.0000
  C   C1        1.0  0.2007756255643898  0.11664770982091711  0.4170995856157589  1.0000
  C   C2        1.0  0.7992242176247332  0.8833534627712822  0.5828997858571655  1.0000
  C   C3        1.0  0.24051210323409575  0.9611152667858246  0.43210032488705974  1.0000
  C   C4        1.0  0.7594864140608097  0.03888477261672559  0.5678986837528086  1.0000
  C   C5        1.0  0.31808382398550356  0.6664509192571799  0.4605734891297785  1.0000
  C   C6        1.0  0.6819146933093947  0.3335491201453777  0.5394255195100826  1.0000
  C   C7        1.0  0.3428384648327452  0.8692619242151095  0.5255465584330495  1.0000
  C   C8        1.0  0.6571600359629386  0.13073924007942136  0.4744546266524452  1.0000
  C   C9        1.0  0.09222489170810629  0.3780835840961743  0.3229560668056309  1.0000
  C   C10       1.0  0.9077763230215155  0.621916466288944  0.6770435408346386  1.0000
  C   C11       1.0  0.10727398914709603  0.2204874179459821  0.3319566645976409  1.0000
  C   C12       1.0  0.8927285996525995  0.7795115091095041  0.6680440244550783  1.0000
  C   C13       1.0  0.18079323133857633  0.896304588014921  0.3571604661426876  1.0000
  C   C14       1.0  0.8192066625559632  0.10369432693545379  0.6428404691547345  1.0000
  C   C15       1.0  0.3825175261103482  0.7209678773815683  0.5395922083795952  1.0000
  C   C16       1.0  0.6174823944016836  0.27902990818661516  0.46040993145262393  1.0000
  C   C17       1.0  0.48672393621203014  0.7757447358180015  0.11372349045467443  1.0000
  C   C18       1.0  0.5132746077003674  0.2242541742023647  0.8862767227199913  1.0000
  C   C19       1.0  0.4612675316120374  0.5211363341394913  0.16204886414193717  1.0000
  C   C20       1.0  0.5387310198890561  0.47886257251322223  0.8379538847680481  1.0000
  C   C21       1.0  0.635770954288553  0.5100922032917268  0.10479527720885079  1.0000
  C   C22       1.0  0.36422894213555423  0.4899067105360899  0.8952065033336752  1.0000
  C   C23       1.0  0.7451663483135392  0.08597161276880878  0.18571002978918472  1.0000
  C   C24       1.0  0.25483356713935007  0.9140261750444768  0.814290419552819  1.0000
  C   C25       1.0  0.7336102300108465  0.6443748809585229  0.04571273740335615  1.0000
  C   C26       1.0  0.26638826572569485  0.3556262855811099  0.9542867571919231  1.0000
  C   C27       1.0  0.6423235883049755  0.22850644111498034  0.16958705416151792  1.0000
  C   C28       1.0  0.3576776771300629  0.7714913516283203  0.8304141173032422  1.0000
  C   C29       1.0  0.658092501263404  0.77826743380659  0.04997578665341974  1.0000
  C   C30       1.0  0.3419060401194187  0.22173147733632698  0.9500235812761346  1.0000
  C   C31       1.0  0.7167428638624785  0.36614427198788485  0.11011612816309226  1.0000
  C   C32       1.0  0.28325833183836113  0.6338569044117648  0.8898848106776998  1.0000
  N   N1        1.0  0.38851409804577486  0.6490773546629995  0.16752037473974477  1.0000
  N   N2        1.0  0.6114858199366894  0.35092043202774187  0.8324809198473705  1.0000
  N   N3        1.0  0.21810289447769549  0.7530605986970754  0.3715050891752086  1.0000
  N   N4        1.0  0.7818955771709286  0.24694169610219763  0.6284940461303776  1.0000
  O   O1        1.0  0.903192716589338  0.09516277372399878  0.12275501038870833  1.0000
  O   O2        1.0  0.09680851969864081  0.9048361495240369  0.8772441112961433  1.0000
  O   O3        1.0  0.08444652438434021  0.8620634445597445  0.11204404035803618  1.0000
  O   O4        1.0  0.9155533695101993  0.1379354703906301  0.8879568949393859  1.0000
  O   O5        1.0  0.1430228771266684  0.41440775246488215  0.4063555300316537  1.0000
  O   O6        1.0  0.8569783667500132  0.585591167415501  0.5936461273885172  1.0000
  O   O7        1.0  0.0396292114966812  0.47904767855249025  0.22438511590005564  1.0000
  O   O8        1.0  0.9603720298504329  0.5209512424504438  0.7756156962750113  1.0000
  O   O9        1.0  0.8436494784359779  0.6907574312153171  0.3448777686201084  1.0000
  O   O10       1.0  0.1563517578520006  0.30924149203271867  0.6551213530647431  1.0000
  O   O11       1.0  0.6751884597352813  0.9642021338902182  0.2639249507325517  1.0000
  O   O12       1.0  0.324814080888558  0.0357990496845417  0.7360750197407812  1.0000
