data_image0
_chemical_formula_structural       Cd2H26C40N20O2
_chemical_formula_sum              "Cd2 H26 C40 N20 O2"
_cell_length_a       8.046419560464745
_cell_length_b       10.69174576529165
_cell_length_c       12.580429428230872
_cell_angle_alpha    79.37432656729078
_cell_angle_beta     73.6042762984257
_cell_angle_gamma    69.30208127209252

_space_group_name_H-M_alt    "P 1"
_space_group_IT_number       1

loop_
  _space_group_symop_operation_xyz
  'x, y, z'

loop_
  _atom_site_type_symbol
  _atom_site_label
  _atom_site_symmetry_multiplicity
  _atom_site_fract_x
  _atom_site_fract_y
  _atom_site_fract_z
  _atom_site_occupancy
  Cd  Cd1       1.0  0.727848644907105  0.5920984251961273  0.9603658173752407  1.0000
  Cd  Cd2       1.0  0.2721520837872049  0.4079018030117326  0.03963485139172458  1.0000
  H   H1        1.0  0.46920243261284594  0.746282258126236  0.3862365672891954  1.0000
  H   H2        1.0  0.5307926827018079  0.2537190114209906  0.6137617664049557  1.0000
  H   H3        1.0  0.352729234189823  0.8063529011320015  0.5810582311847554  1.0000
  H   H4        1.0  0.6472693522592863  0.19364934470290515  0.4189401219667132  1.0000
  H   H5        1.0  0.05023102666520877  0.5266921647731665  0.6586004689806018  1.0000
  H   H6        1.0  0.9497722739545008  0.47330504137084267  0.3414010055186125  1.0000
  H   H7        1.0  0.16410950031330881  0.4698258195771814  0.4612190078835425  1.0000
  H   H8        1.0  0.8358899288997604  0.5301744179851015  0.5387818925924961  1.0000
  H   H9        1.0  0.948816269144089  0.9362591997365542  0.6575836054590241  1.0000
  H   H10       1.0  0.051184461921138784  0.06374102838545069  0.3424162680092167  1.0000
  H   H11       1.0  0.28507603149283506  0.723964388707742  0.8874349969550649  1.0000
  H   H12       1.0  0.7149272937930391  0.2760358208771265  0.11256600369247846  1.0000
  H   H13       1.0  0.24510057804511118  0.941328663566658  0.9531723234872302  1.0000
  H   H14       1.0  0.7548988487970404  0.058671574081486697  0.046829372287525914  1.0000
  H   H15       1.0  0.9060110022990455  0.153595624259367  0.7242461762034794  1.0000
  H   H16       1.0  0.09399145081486912  0.8464035903289752  0.27575434156861434  1.0000
  H   H17       1.0  0.6763071747507398  0.7094369366927682  0.7034201503562016  1.0000
  H   H18       1.0  0.3236926865134391  0.2905622963468488  0.2965784449378646  1.0000
  H   H19       1.0  0.6347677186585866  0.9351407242744332  0.955801869805839  1.0000
  H   H20       1.0  0.3652338646542787  0.0648574952315286  0.044197369792080124  1.0000
  H   H21       1.0  0.5221446516036039  0.1141313210323958  0.7793262068548046  1.0000
  H   H22       1.0  0.4778534781282247  0.8858689258843171  0.22067492533030023  1.0000
  H   H23       1.0  0.7827780302710605  0.8112842563573822  0.5196311027948611  1.0000
  H   H24       1.0  0.21722052914095974  0.18871498612251966  0.48036851950699594  1.0000
  H   H25       1.0  0.3045197758079823  0.12757888425220903  0.6619353260817818  1.0000
  H   H26       1.0  0.695476634246077  0.8724223761123044  0.3380643665007455  1.0000
  C   C1        1.0  0.3881531080965387  0.5742341817948288  0.29405271681064704  1.0000
  C   C2        1.0  0.6118428746482462  0.4257680829206409  0.7059476903564034  1.0000
  C   C3        1.0  0.32165359327861864  0.606413456459059  0.4095107946516237  1.0000
  C   C4        1.0  0.6783428167754407  0.39358780390546144  0.5904888979309106  1.0000
  C   C5        1.0  0.374095552999968  0.7005810068244996  0.44508924041258513  1.0000
  C   C6        1.0  0.6259034583874975  0.2994202347453126  0.554909193453078  1.0000
  C   C7        1.0  0.3102096074465378  0.7336400645424562  0.5543241789407105  1.0000
  C   C8        1.0  0.6897881020887625  0.2663611864676341  0.44567528193275047  1.0000
  C   C9        1.0  0.19302206664747257  0.6709990996483839  0.6306096602535192  1.0000
  C   C10       1.0  0.8069773649365145  0.3290011378280512  0.3693904449237948  1.0000
  C   C11       1.0  0.14022580289692843  0.5754426188698433  0.5975725307460209  1.0000
  C   C12       1.0  0.859776650216979  0.4245565957184995  0.40242798702607263  1.0000
  C   C13       1.0  0.20464800482253764  0.5439815975366783  0.4876084675321906  1.0000
  C   C14       1.0  0.7953497047127623  0.45601965347341183  0.5123909933412706  1.0000
  C   C15       1.0  0.013751478953643958  0.9383949089168127  0.7221102946728735  1.0000
  C   C16       1.0  0.9862492497406663  0.061605319291047095  0.2778903740940847  1.0000
  C   C17       1.0  0.11906454851801845  0.818370224644461  0.7694038140356058  1.0000
  C   C18       1.0  0.8809379069668137  0.18162898985802664  0.23059590843776334  1.0000
  C   C19       1.0  0.20358888490519433  0.8186703120249917  0.8519312316573248  1.0000
  C   C20       1.0  0.7964126936658287  0.18132790765267265  0.14806959853803656  1.0000
  C   C21       1.0  0.1813277526531184  0.9403453544659325  0.8878859913378249  1.0000
  C   C22       1.0  0.8186733986086377  0.05965386956268761  0.11211555344205952  1.0000
  C   C23       1.0  0.07523288046591861  0.062076654496806306  0.8420547807877625  1.0000
  C   C24       1.0  0.9247678458574808  0.9379235737969155  0.15794668327792047  1.0000
  C   C25       1.0  0.990480872118091  0.0596041285958506  0.759247746728434  1.0000
  C   C26       1.0  0.009520281514575448  0.9403950953469219  0.2407530027527258  1.0000
  C   C27       1.0  0.05455542129882932  0.18903395344470647  0.880133379389278  1.0000
  C   C28       1.0  0.9454448577909599  0.8109642755873876  0.11986768251515673  1.0000
  C   C29       1.0  0.6562550979673246  0.7948475710349283  0.7465224440762981  1.0000
  C   C30       1.0  0.3437447632968542  0.20515166200468826  0.2534761512177752  1.0000
  C   C31       1.0  0.6226596090657563  0.9169796482094413  0.8768912245307519  1.0000
  C   C32       1.0  0.3773437280747132  0.08302056094614582  0.12310579962317549  1.0000
  C   C33       1.0  0.5696029865387614  0.005169970300883599  0.7894027406238209  1.0000
  C   C34       1.0  0.4303972972928562  0.994828258559494  0.2105967306831644  1.0000
  C   C35       1.0  0.6578222046484183  0.892919458388107  0.51119598806428  1.0000
  C   C36       1.0  0.34217463034400447  0.10708079771131204  0.4888037852324558  1.0000
  C   C37       1.0  0.5485472565544213  0.9663627286651322  0.6016614934110506  1.0000
  C   C38       1.0  0.4514539018200806  0.03363649510592381  0.39833766547266697  1.0000
  C   C39       1.0  0.39137474173197967  0.0736698924773691  0.5903499864279453  1.0000
  C   C40       1.0  0.6086220908895184  0.9263303637079119  0.40965058216750805  1.0000
  N   N1        1.0  0.49530096724810574  0.6327276914789908  0.21277519693347816  1.0000
  N   N2        1.0  0.5046963173488449  0.3672745637961938  0.7872241832257811  1.0000
  N   N3        1.0  0.5195571789341642  0.5739692747321784  0.12237828801121249  1.0000
  N   N4        1.0  0.4804409555394996  0.42603097201281787  0.8776212535764429  1.0000
  N   N5        1.0  0.4326519061383108  0.4829720362373849  0.1469157090601954  1.0000
  N   N6        1.0  0.5673492522361913  0.5170271875336709  0.853083449823522  1.0000
  N   N7        1.0  0.34875357872090956  0.4817197258606712  0.2544512064755581  1.0000
  N   N8        1.0  0.6512449783201856  0.5182795167050858  0.7455492111250237  1.0000
  N   N9        1.0  0.1721590949162533  0.20684322653865905  0.9300410714789464  1.0000
  N   N10       1.0  0.8278425083209412  0.7931579965798718  0.06995928486474422  1.0000
  N   N11       1.0  0.10083263847145926  0.33378965171117875  0.9538112368206981  1.0000
  N   N12       1.0  0.8991693944459342  0.6662105669705483  0.046187609639751784  1.0000
  N   N13       1.0  0.9463152600274327  0.391328899677589  0.9189339557243131  1.0000
  N   N14       1.0  0.05368504609943872  0.6086723327095171  0.0810658370297261  1.0000
  N   N15       1.0  0.9139259398224695  0.3028334344250396  0.8722613773180257  1.0000
  N   N16       1.0  0.0860734893905999  0.6971668031372431  0.12773952315801299  1.0000
  N   N17       1.0  0.674137094349845  0.7868173952545661  0.8494796287613796  1.0000
  N   N18       1.0  0.3258623419759771  0.21318284205014493  0.1505188858184852  1.0000
  N   N19       1.0  0.593447775834612  0.9261246514894452  0.7066543029905078  1.0000
  N   N20       1.0  0.40654863421944737  0.07387660887507512  0.2933453895920195  1.0000
  O   O1        1.0  0.13273054694231934  0.694593974134591  0.741393453457192  1.0000
  O   O2        1.0  0.8672736576282815  0.305407230189239  0.25860564416963433  1.0000
