data_image0
_chemical_formula_structural       Al4H32C64N4O28F4
_chemical_formula_sum              "Al4 H32 C64 N4 O28 F4"
_cell_length_a       6.658048635511215
_cell_length_b       22.766820274447653
_cell_length_c       23.55099312987326
_cell_angle_alpha    112.59699682608165
_cell_angle_beta     91.92998488099363
_cell_angle_gamma    91.65488552607445

_space_group_name_H-M_alt    "P 1"
_space_group_IT_number       1

loop_
  _space_group_symop_operation_xyz
  'x, y, z'

loop_
  _atom_site_type_symbol
  _atom_site_label
  _atom_site_symmetry_multiplicity
  _atom_site_fract_x
  _atom_site_fract_y
  _atom_site_fract_z
  _atom_site_occupancy
  Al  Al1       1.0  0.14602316715306782  0.4999265540111394  0.4989024285700268  1.0000
  Al  Al2       1.0  0.6455541380558929  0.4998268484667251  0.49886473491284994  1.0000
  Al  Al3       1.0  0.6681840611898623  0.0018398036852574  0.0016760791556436013  1.0000
  Al  Al4       1.0  0.16992238716806446  0.0013011172894721002  0.0016957222076144007  1.0000
  H   H1        1.0  0.6037687503100672  0.9127793215879905  0.12329766374695347  1.0000
  H   H2        1.0  0.6076341548468707  0.8498817167604714  0.18925015268631296  1.0000
  H   H3        1.0  0.2333921202919314  0.8824649736418237  0.09407227878651281  1.0000
  H   H4        1.0  0.21243992525163694  0.8216552168711998  0.26157366710697266  1.0000
  H   H5        1.0  0.1994369147425702  0.7557809844403708  0.32291674403851545  1.0000
  H   H6        1.0  0.6098374017805884  0.6803589215740049  0.24179998139216974  1.0000
  H   H7        1.0  0.6211029774286773  0.7471017599589445  0.1810422472817523  1.0000
  H   H8        1.0  0.5806486231802879  0.6808877415432235  0.33881467137467786  1.0000
  H   H9        1.0  0.5754205450641551  0.6143794811401693  0.4016085311331069  1.0000
  H   H10       1.0  0.20986882764945855  0.5903361143927056  0.3825815267074334  1.0000
  H   H11       1.0  0.21598333052533294  0.6538235895661231  0.31694320332756126  1.0000
  H   H12       1.0  0.19714209372671126  0.6133455337649495  0.6877600544053878  1.0000
  H   H13       1.0  0.5790181291141537  0.8055652981535246  0.7083784825815302  1.0000
  H   H14       1.0  0.23776383896946385  0.7055518043919662  0.788820829262427  1.0000
  H   H15       1.0  0.6492843185940489  0.3230451795164768  0.3522194151933817  1.0000
  H   H16       1.0  0.05685609514390682  0.3780216148116651  0.3190453930845933  1.0000
  H   H17       1.0  0.7843071220552319  0.22480864200048964  0.2783195719319309  1.0000
  H   H18       1.0  0.7482487707890116  0.13012258155686143  0.17933493145005744  1.0000
  H   H19       1.0  0.09699979860594961  0.1136645920020527  0.9062745121844459  1.0000
  H   H20       1.0  0.08302017586240852  0.17814408523121733  0.8416050016754895  1.0000
  H   H21       1.0  0.7161466278844275  0.15293250164297237  0.8115525502604656  1.0000
  H   H22       1.0  0.7278281979845218  0.0909700603827375  0.8786930474617236  1.0000
  H   H23       1.0  0.6911664490999528  0.25353404230151  0.814264342282641  1.0000
  H   H24       1.0  0.6808188328596005  0.31714438045995763  0.7497260596902606  1.0000
  H   H25       1.0  0.08993988497107348  0.17767927642621126  0.7455157399173018  1.0000
  H   H26       1.0  0.30262861810363983  0.24345289662652903  0.5893798784081667  1.0000
  H   H27       1.0  0.4865063209177621  0.47512191186856284  0.6814198757266257  1.0000
  H   H28       1.0  0.4711356378158129  0.4137895449852067  0.7485388326266715  1.0000
  H   H29       1.0  0.4068815593079123  0.5844015064857401  0.5307404217717604  1.0000
  H   H30       1.0  0.8889951064239912  0.42577308025693117  0.5045724875829335  1.0000
  H   H31       1.0  0.40678426385726146  0.9181610704907612  0.961806612512234  1.0000
  H   H32       1.0  0.9323224629591069  0.084448972473453  0.036502620751086616  1.0000
  C   C1        1.0  0.37268656771208714  0.4105567290295938  0.4019575065168866  1.0000
  C   C2        1.0  0.40097750735957055  0.4349097538513576  0.5602426676383346  1.0000
  C   C3        1.0  0.9204630673546037  0.5913345406534776  0.5970957296429946  1.0000
  C   C4        1.0  0.8908503338200334  0.5616097358188058  0.4358792820575205  1.0000
  C   C5        1.0  0.7416346816278792  0.892001923939617  0.13147430406384347  1.0000
  C   C6        1.0  0.7447554662643159  0.856607849828322  0.16813449202813782  1.0000
  C   C7        1.0  0.9209749802491277  0.8289622818645344  0.1791370817102804  1.0000
  C   C8        1.0  0.09353441903584785  0.840220741419117  0.15140417797903194  1.0000
  C   C9        1.0  0.09598385210228602  0.8756426636852126  0.11504018289825531  1.0000
  C   C10       1.0  0.9174284682789422  0.9017138100087366  0.10452639556606887  1.0000
  C   C11       1.0  0.08062040692899332  0.7902686014923432  0.25636462835267093  1.0000
  C   C12       1.0  0.07340178158442971  0.7526558410392354  0.2909134384424236  1.0000
  C   C13       1.0  0.9044113031260257  0.7124412234807521  0.28685483335710427  1.0000
  C   C14       1.0  0.7414941195067472  0.7120046234997802  0.2470799602041823  1.0000
  C   C15       1.0  0.7481127983779319  0.749656741960891  0.2125228913534587  1.0000
  C   C16       1.0  0.9182017876612678  0.789400987294087  0.21621063316457179  1.0000
  C   C17       1.0  0.7183819470093128  0.6599791665032058  0.34707796334274843  1.0000
  C   C18       1.0  0.714585688661103  0.6233510311522535  0.3826170231045866  1.0000
  C   C19       1.0  0.8924065386788345  0.5987298930754719  0.39605951012138974  1.0000
  C   C20       1.0  0.07310390495089084  0.610386947190655  0.37246215060299914  1.0000
  C   C21       1.0  0.07572947145152403  0.6463957077658264  0.33638216757955774  1.0000
  C   C22       1.0  0.8990357769638212  0.6724808186745151  0.3234840290834315  1.0000
  C   C23       1.0  0.9373642833238238  0.648427830459589  0.6566782644360887  1.0000
  C   C24       1.0  0.8875263986252907  0.8602684747161221  0.8396447486684694  1.0000
  C   C25       1.0  0.7000129884036144  0.8047980324254739  0.7403152101849244  1.0000
  C   C26       1.0  0.7349405934860442  0.8564498960454118  0.7946317239813325  1.0000
  C   C27       1.0  0.008049117991610897  0.8087354926829988  0.8252941158081271  1.0000
  C   C28       1.0  0.9859642160425822  0.7542025208594155  0.7694330996001215  1.0000
  C   C29       1.0  0.8257506925346548  0.7523357187564343  0.7264374802474551  1.0000
  C   C30       1.0  0.8068112679584517  0.6977059997438106  0.6706828984722863  1.0000
  C   C31       1.0  0.09409136745070873  0.6520887317972637  0.7001450132542573  1.0000
  C   C32       1.0  0.11693526504877383  0.7031838211523223  0.7556272527009471  1.0000
  C   C33       1.0  0.3569439288083204  0.35537911680992107  0.34165347529031465  1.0000
  C   C34       1.0  0.4483687121116661  0.14985549175161594  0.15665104496005003  1.0000
  C   C35       1.0  0.6475171259224128  0.215609788441526  0.2489222639345385  1.0000
  C   C36       1.0  0.6276835690303317  0.16315902934328363  0.19467832471114122  1.0000
  C   C37       1.0  0.29496616487274  0.19227387531477552  0.17444393644007053  1.0000
  C   C38       1.0  0.31060970022854667  0.24816009062388386  0.22904022209738886  1.0000
  C   C39       1.0  0.49196149034249015  0.2594603827843613  0.2676442120057274  1.0000
  C   C40       1.0  0.5118967551463458  0.3140692671922238  0.3231283450767108  1.0000
  C   C41       1.0  0.17794298804312805  0.34511835362784643  0.3043231737084967  1.0000
  C   C42       1.0  0.16024848947996162  0.2939134921920398  0.2491987250350789  1.0000
  C   C43       1.0  0.23143371522014897  0.1231051812041954  0.8854381992836622  1.0000
  C   C44       1.0  0.22458228221083942  0.1584271748832577  0.8487319567361595  1.0000
  C   C45       1.0  0.3993238434231472  0.17084929930841503  0.8224640382828098  1.0000
  C   C46       1.0  0.5807882718897944  0.145941152721683  0.8334916048766132  1.0000
  C   C47       1.0  0.5884029623493348  0.1109449157390401  0.8705222089385954  1.0000
  C   C48       1.0  0.4138929054020367  0.09968298141701132  0.8971126765488507  1.0000
  C   C49       1.0  0.5563109466132873  0.25070456811911157  0.7855501915068501  1.0000
  C   C50       1.0  0.5492697718417717  0.28788956639679236  0.750539253186183  1.0000
  C   C51       1.0  0.37785752262640687  0.2874878401288754  0.7140745254505276  1.0000
  C   C52       1.0  0.21371166739912445  0.24769973134965537  0.715186813379468  1.0000
  C   C53       1.0  0.22060126060802795  0.20882417788561716  0.7485323818332503  1.0000
  C   C54       1.0  0.3926350677855767  0.20998197533335633  0.7850098826344336  1.0000
  C   C55       1.0  0.3400181144857087  0.2943470040982064  0.6110510250881589  1.0000
  C   C56       1.0  0.35005222015907134  0.3294152789505063  0.5741277954786668  1.0000
  C   C57       1.0  0.40037871388124574  0.39481150499022283  0.5982412643327139  1.0000
  C   C58       1.0  0.4456549653002925  0.4242943591362193  0.6615731280998602  1.0000
  C   C59       1.0  0.43752891582362713  0.38973709763112657  0.6991486359058213  1.0000
  C   C60       1.0  0.38231786938740003  0.3245329094322145  0.674484734691113  1.0000
  C   C61       1.0  0.42106633482538314  0.0636509125778062  0.9381864932801349  1.0000
  C   C62       1.0  0.433196978096838  0.0917061708429046  0.09881002021526802  1.0000
  C   C63       1.0  0.9149838426588562  0.9382553444821654  0.06384363724721731  1.0000
  C   C64       1.0  0.9046908202551692  0.9142625609506397  0.9016474340579208  1.0000
  N   N1        1.0  0.6447711604957718  0.6959388622154989  0.6254614043250442  1.0000
  N   N2        1.0  0.6178443658412862  0.9130990445367786  0.8031200164902829  1.0000
  N   N3        1.0  0.019047418694171397  0.2481953499711267  0.6834603465007375  1.0000
  N   N4        1.0  0.3123947482639268  0.2949386972168925  0.5072082621399546  1.0000
  O   O1        1.0  0.572197931089619  0.4546280173693019  0.5511534801242064  1.0000
  O   O2        1.0  0.2079402628484389  0.43474448819750955  0.42344942498783683  1.0000
  O   O3        1.0  0.06074984683774431  0.5499742025470695  0.4549928116525238  1.0000
  O   O4        1.0  0.22967810980688344  0.44847048738387957  0.5445764256837365  1.0000
  O   O5        1.0  0.08615754316576131  0.5675746431439066  0.5768542454921431  1.0000
  O   O6        1.0  0.5468829500800042  0.4290081477316007  0.4277464568210263  1.0000
  O   O7        1.0  0.4009707108221861  0.5384188819609577  0.5098514001493797  1.0000
  O   O8        1.0  0.7448523511861824  0.5723203215776707  0.5732054189495274  1.0000
  O   O9        1.0  0.7204078797826485  0.5445479898198684  0.4490367343276844  1.0000
  O   O10       1.0  0.8914932147524015  0.4623838318065197  0.49310877326370683  1.0000
  O   O11       1.0  0.2600347949264617  0.06544439380375168  0.07880800040378232  1.0000
  O   O12       1.0  0.5923137804331233  0.0462948890402828  0.9500910225586169  1.0000
  O   O13       1.0  0.7398707845439676  0.9304302144528055  0.9278256114968361  1.0000
  O   O14       1.0  0.5981602659120497  0.07223997765606782  0.07357359772622371  1.0000
  O   O15       1.0  0.7449300344673945  0.9566836110688756  0.05245374438271016  1.0000
  O   O16       1.0  0.25495065458627414  0.05410712724170711  0.9593476931359107  1.0000
  O   O17       1.0  0.4143905099580962  0.9620420631524172  0.9909138201267498  1.0000
  O   O18       1.0  0.08190072986783291  0.9471534511745007  0.042672696985157334  1.0000
  O   O19       1.0  0.07939328584821942  0.9368340935914006  0.922670468286988  1.0000
  O   O20       1.0  0.9240129008215379  0.03936165127505121  0.010780067519746708  1.0000
  O   O21       1.0  0.6951218817361423  0.7013512834297302  0.5776815684711922  1.0000
  O   O22       1.0  0.46968634247067353  0.690648484674533  0.6397838804119474  1.0000
  O   O23       1.0  0.716203705067912  0.9642503802996101  0.8189612377361684  1.0000
  O   O24       1.0  0.4340965062627618  0.9050146944925643  0.7915751920645564  1.0000
  O   O25       1.0  0.967422711710498  0.29998757701236667  0.6827521380477322  1.0000
  O   O26       1.0  0.9156622254574247  0.19772844901633854  0.6615330221133533  1.0000
  O   O27       1.0  0.3671485084526653  0.32233009900549814  0.47340305142714106  1.0000
  O   O28       1.0  0.23097920097505664  0.24087159706115102  0.4887376344182002  1.0000
  F   F1        1.0  0.15289228951759537  0.8075865237172978  0.8666285604749719  1.0000
  F   F2        1.0  0.9907501207027994  0.2871075871649396  0.21288687528564762  1.0000
  F   F3        1.0  0.12417982571716382  0.1815343617506002  0.13816138050195553  1.0000
  F   F4        1.0  0.26941773560264454  0.8131706503716459  0.15845865528930875  1.0000
