data_image0
_chemical_formula_structural       Cd4H48C44N8O16
_chemical_formula_sum              "Cd4 H48 C44 N8 O16"
_cell_length_a       8.542296024
_cell_length_b       9.33956324
_cell_length_c       16.0819
_cell_angle_alpha    90.0
_cell_angle_beta     90.0
_cell_angle_gamma    90.0

_space_group_name_H-M_alt    "P 1"
_space_group_IT_number       1

loop_
  _space_group_symop_operation_xyz
  'x, y, z'

loop_
  _atom_site_type_symbol
  _atom_site_label
  _atom_site_symmetry_multiplicity
  _atom_site_fract_x
  _atom_site_fract_y
  _atom_site_fract_z
  _atom_site_occupancy
  Cd  Cd1       1.0  0.9563154890732478  0.4182026396343588  0.7778017522805172  1.0000
  Cd  Cd2       1.0  0.5436852090996993  0.5817970134543486  0.2778011304634376  1.0000
  Cd  Cd3       1.0  0.043684976375388394  0.9182024661787054  0.7221988695365624  1.0000
  Cd  Cd4       1.0  0.4563152563489297  0.08179718690999492  0.22219886953656234  1.0000
  H   H1        1.0  0.1916580735905455  0.5507120480721781  0.6746031252526166  1.0000
  H   H2        1.0  0.3083421591337725  0.44928760501652937  0.1746037470696891  1.0000
  H   H3        1.0  0.8083423918580905  0.0507122215278244  0.8253968747473834  1.0000
  H   H4        1.0  0.6916571356694092  0.9492874315608759  0.3253962529303109  1.0000
  H   H5        1.0  0.4604066622077028  0.1730883937994534  0.781021521088924  1.0000
  H   H6        1.0  0.0395923998711538  0.8269123300031325  0.2810221429059965  1.0000
  H   H7        1.0  0.5395914619500175  0.6730871496299218  0.7189778570940035  1.0000
  H   H8        1.0  0.9604068949320207  0.3269125034587788  0.21897847891107594  1.0000
  H   H9        1.0  0.5051534140091078  0.1815920034393415  0.6740186172031883  1.0000
  H   H10       1.0  0.9948461135183919  0.8184087203632444  0.1740186172031883  1.0000
  H   H11       1.0  0.4948458807940739  0.6815918299836881  0.8259813827968117  1.0000
  H   H12       1.0  0.0051543519302442  0.3184088938188907  0.3259807609797321  1.0000
  H   H13       1.0  0.4521278575629921  0.4611200641112632  0.6923423227354988  1.0000
  H   H14       1.0  0.0478723751613188  0.5388806596913227  0.1923423227354988  1.0000
  H   H15       1.0  0.5478714372401825  0.9611188199417314  0.8076582990815737  1.0000
  H   H16       1.0  0.9521280902873102  0.038880833146969  0.3076576772645012  1.0000
  H   H17       1.0  0.3439180744551535  0.406528646193955  0.7807261579788474  1.0000
  H   H18       1.0  0.1560821582691645  0.593472077608631  0.2807261579788474  1.0000
  H   H19       1.0  0.6560823909934754  0.9065274020244232  0.7192738420211526  1.0000
  H   H20       1.0  0.8439183071794716  0.09347225106427713  0.2192738420211526  1.0000
  H   H21       1.0  0.2995459291987643  0.3218544510867289  0.5994602627798926  1.0000
  H   H22       1.0  0.200455474171001  0.678144131288093  0.0994602627798926  1.0000
  H   H23       1.0  0.700455706895319  0.8218553483449611  0.9005397372201072  1.0000
  H   H24       1.0  0.799544991277628  0.1781443047437392  0.4005397372201074  1.0000
  H   H25       1.0  0.956425529745843  0.550990433681136  0.5963598828496615  1.0000
  H   H26       1.0  0.5435739977816496  0.44900921940756433  0.0963598828496615  1.0000
  H   H27       1.0  0.0435737650573387  0.0509895364229038  0.9036401171503385  1.0000
  H   H28       1.0  0.456425297021525  0.949009045951918  0.4036401171503385  1.0000
  H   H29       1.0  0.9780637403019625  0.3663394006848648  0.5766893215353903  1.0000
  H   H30       1.0  0.5219357872255372  0.6336613231177212  0.0766893215353903  1.0000
  H   H31       1.0  0.0219367251466736  0.8663392272292186  0.9233106784646097  1.0000
  H   H32       1.0  0.47806350757764454  0.1336604258594889  0.4233106784646097  1.0000
  H   H33       1.0  0.3577047659569601  0.7640914051993734  0.421178467718363  1.0000
  H   H34       1.0  0.1422954667673579  0.2359093186032126  0.921178467718363  1.0000
  H   H35       1.0  0.6422956994916689  0.26409157865501953  0.0788202886474849  1.0000
  H   H36       1.0  0.8577049986812781  0.7359091451475593  0.5788209104645574  1.0000
  H   H37       1.0  0.1726467914313048  0.7254696848115147  0.5388200399206582  1.0000
  H   H38       1.0  0.3273546119384605  0.2745310389910713  0.0388200399206582  1.0000
  H   H39       1.0  0.8273548446627785  0.22546878755328242  0.9611799600793418  1.0000
  H   H40       1.0  0.6726458535101685  0.774530865535418  0.4611799600793418  1.0000
  H   H41       1.0  0.1574365950584635  0.278309588275782  0.4682692965383453  1.0000
  H   H42       1.0  0.3425624670204002  0.7216911355268039  0.9682692965383453  1.0000
  H   H43       1.0  0.8425638703901726  0.7783094148201288  0.0317307034616547  1.0000
  H   H44       1.0  0.6574368277827816  0.22169023826857173  0.5317300816445822  1.0000
  H   H45       1.0  0.3552183150144614  0.3337725672919163  0.35942643593107687  1.0000
  H   H46       1.0  0.1447807470644022  0.6662281565106696  0.859426435931077  1.0000
  H   H47       1.0  0.6447809797887203  0.83377239383627  0.1405729422518505  1.0000
  H   H48       1.0  0.8552197183842267  0.1662283299663159  0.6405729422518505  1.0000
  C   C1        1.0  0.6667703839807828  0.2948638955840508  0.7496825623837964  1.0000
  C   C2        1.0  0.8332291435467098  0.7051346867907711  0.2496825623837964  1.0000
  C   C3        1.0  0.3332289108223989  0.7948637221284045  0.7503174376162036  1.0000
  C   C4        1.0  0.1667701512564648  0.20513593096030294  0.2503168157991311  1.0000
  C   C5        1.0  0.5008875819778069  0.2451560036762501  0.7317052089616283  1.0000
  C   C6        1.0  0.9991119455496859  0.7548425786985717  0.23170583077870074  1.0000
  C   C7        1.0  0.4991117128253748  0.7451569009344823  0.7682947910383717  1.0000
  C   C8        1.0  0.0008885198989432  0.2548438228681036  0.2682947910383717  1.0000
  C   C9        1.0  0.3881497422571627  0.37098415749899527  0.7200722551439824  1.0000
  C   C10       1.0  0.1118504904671482  0.6290154955897052  0.2200716333269099  1.0000
  C   C11       1.0  0.6118495525460119  0.8709839840433489  0.7799283666730901  1.0000
  C   C12       1.0  0.8881499749814807  0.1290156690453514  0.2799283666730901  1.0000
  C   C13       1.0  0.2507124541204035  0.3362609063504749  0.6623048271659471  1.0000
  C   C14       1.0  0.2492877786039145  0.6637387467382255  0.1623048271659471  1.0000
  C   C15       1.0  0.7492880113282325  0.8362607328948286  0.8376957946511325  1.0000
  C   C16       1.0  0.7507115161992672  0.16373892019387173  0.3376951728340529  1.0000
  C   C17       1.0  0.1719994244957093  0.193628968885271  0.6843438897145262  1.0000
  C   C18       1.0  0.3280008082286017  0.8063717549173077  0.1843432678974466  1.0000
  C   C19       1.0  0.8279998703074654  0.6936287954296247  0.8156561102854736  1.0000
  C   C20       1.0  0.6719996572200273  0.3063708576590756  0.3156567321025533  1.0000
  C   C21       1.0  0.0432635440122482  0.4662980364379409  0.5865308203632651  1.0000
  C   C22       1.0  0.4567366887120627  0.533702687364638  0.0865314421803376  1.0000
  C   C23       1.0  0.9567369214363808  0.9662978629822946  0.9134685578196624  1.0000
  C   C24       1.0  0.5432626060911119  0.0337017901064058  0.4134685578196624  1.0000
  C   C25       1.0  0.3128315844466201  0.657616404768838  0.4352147445264549  1.0000
  C   C26       1.0  0.1871686482776909  0.34238431903374794  0.9352147445264549  1.0000
  C   C27       1.0  0.6871688810020089  0.15761550751060582  0.0647852554735451  1.0000
  C   C28       1.0  0.8128306465254838  0.8423841455780945  0.5647852554735451  1.0000
  C   C29       1.0  0.2058474671282369  0.6359901258080642  0.49908592890143666  1.0000
  C   C30       1.0  0.2941527655960812  0.3640095272806363  0.999085307084364  1.0000
  C   C31       1.0  0.7941541689658465  0.13599029926371742  0.0009140710985632998  1.0000
  C   C32       1.0  0.7058465292071006  0.8640093538249901  0.5009140710985633  1.0000
  C   C33       1.0  0.1470869186071155  0.49798581373490697  0.5130687294411729  1.0000
  C   C34       1.0  0.3529133141171954  0.5020138393538005  0.0130693512582454  1.0000
  C   C35       1.0  0.8529135468415134  0.9979856402792535  0.9869312705588271  1.0000
  C   C36       1.0  0.6470871513314336  0.0020140128094468  0.4869312705588271  1.0000
  C   C37       1.0  0.1999801921170246  0.3878029311357807  0.4610798475304563  1.0000
  C   C38       1.0  0.3000188699618391  0.6121977926667981  0.9610792257133767  1.0000
  C   C39       1.0  0.8000202733316115  0.8878027576801345  0.0389201524695437  1.0000
  C   C40       1.0  0.6999804248413355  0.1121968954085659  0.5389201524695437  1.0000
  C   C41       1.0  0.3106565251946591  0.41772938409911836  0.4000864325732678  1.0000
  C   C42       1.0  0.1893437075296589  0.5822702689895822  0.9000864325732678  1.0000
  C   C43       1.0  0.6893427696085155  0.9177292106434721  0.0999135674267322  1.0000
  C   C44       1.0  0.8106567579189772  0.08227044244522833  0.5999135674267322  1.0000
  N   N1        1.0  0.1358018964387071  0.45394413968334396  0.6641659256679873  1.0000
  N   N2        1.0  0.3641983362856109  0.5460555134053564  0.1641659256679873  1.0000
  N   N3        1.0  0.8641973983644746  0.9539439662276976  0.8358346961490852  1.0000
  N   N4        1.0  0.635802129163018  0.046055686861002705  0.3358340743320127  1.0000
  N   N5        1.0  0.3664506581374809  0.550468996021273  0.3870885902785091  1.0000
  N   N6        1.0  0.1335484039413828  0.44953172778130585  0.8870885902785091  1.0000
  N   N7        1.0  0.6335486366656937  0.0504691694769264  0.1129114097214909  1.0000
  N   N8        1.0  0.8664508908617989  0.949530483611781  0.6129120315385634  1.0000
  O   O1        1.0  0.7277738891901464  0.38531137993557973  0.6994503137067127  1.0000
  O   O2        1.0  0.7722268089828006  0.6146882731531208  0.1994509355237852  1.0000
  O   O3        1.0  0.2722265762584897  0.8853122771938118  0.8005490644762148  1.0000
  O   O4        1.0  0.2277736564658284  0.11468844660877413  0.3005490644762148  1.0000
  O   O5        1.0  0.7405245594659107  0.24481551666221432  0.8122398472817238  1.0000
  O   O6        1.0  0.759474968061582  0.7551841364264931  0.3122398472817238  1.0000
  O   O7        1.0  0.2594747353372711  0.744817484634325  0.6877601527182762  1.0000
  O   O8        1.0  0.2405243267415926  0.2551832391682609  0.1877601527182762  1.0000
  O   O9        1.0  0.0722744796323411  0.19079585995714873  0.7442037321460759  1.0000
  O   O10       1.0  0.4277245824465226  0.8092037931315517  0.2442037321460759  1.0000
  O   O11       1.0  0.9277248151708406  0.6907956865015024  0.7557962678539241  1.0000
  O   O12       1.0  0.5722747123566521  0.309203966587198  0.2557962678539241  1.0000
  O   O13       1.0  0.2090515237335211  0.0840713831924305  0.6428972944739115  1.0000
  O   O14       1.0  0.2909475383453426  0.9159293406101483  0.1428972944739115  1.0000
  O   O15       1.0  0.7909489417151079  0.5840701390229057  0.857103327343161  1.0000
  O   O16       1.0  0.7090517564578391  0.4159284433519161  0.3571027055260885  1.0000
