data_image0
_chemical_formula_structural       V4H32C36O16
_chemical_formula_sum              "V4 H32 C36 O16"
_cell_length_a       5.048181563495398
_cell_length_b       10.863698301747919
_cell_length_c       15.35939614564207
_cell_angle_alpha    103.83517186625296
_cell_angle_beta     89.90500602882405
_cell_angle_gamma    89.94168970366957

_space_group_name_H-M_alt    "P 1"
_space_group_IT_number       1

loop_
  _space_group_symop_operation_xyz
  'x, y, z'

loop_
  _atom_site_type_symbol
  _atom_site_label
  _atom_site_symmetry_multiplicity
  _atom_site_fract_x
  _atom_site_fract_y
  _atom_site_fract_z
  _atom_site_occupancy
  V   V1        1.0  0.7267056329739746  0.543849542934403  0.4512469040085705  1.0000
  V   V2        1.0  0.2291417686454693  0.4530944015043802  0.04936824803386493  1.0000
  V   V3        1.0  0.2733643383157657  0.45616660464389724  0.5488037889246726  1.0000
  V   V4        1.0  0.7707046648974156  0.5468658045991363  0.9506038396724676  1.0000
  H   H1        1.0  0.911627288480332  0.09178567073157502  0.2816461011559568  1.0000
  H   H2        1.0  0.4124503044777157  0.9057079028213552  0.21991321524359364  1.0000
  H   H3        1.0  0.08840131726947931  0.9082478643704733  0.7183317550277551  1.0000
  H   H4        1.0  0.5874912346852882  0.0942894229193598  0.7800445794457503  1.0000
  H   H5        1.0  0.5530479718189198  0.20502730206806774  0.1347450107203017  1.0000
  H   H6        1.0  0.056991920536816607  0.7917085445045159  0.3646361585254568  1.0000
  H   H7        1.0  0.4471191149028542  0.7950177190700672  0.8652845721317064  1.0000
  H   H8        1.0  0.9428802576137654  0.20824572134740998  0.6353393294971426  1.0000
  H   H9        1.0  0.8370973336769792  0.36044807734954537  0.19568185151545947  1.0000
  H   H10       1.0  0.33837331879711746  0.6359478388074962  0.3034368205606697  1.0000
  H   H11       1.0  0.1630794983394637  0.6395943416711845  0.804395435420048  1.0000
  H   H12       1.0  0.6614631596763588  0.3639640902765181  0.6965604048792784  1.0000
  H   H13       1.0  0.7763159741921015  0.22101254992967506  0.4177709128423857  1.0000
  H   H14       1.0  0.2741463647885994  0.7773032984456594  0.08530311468698673  1.0000
  H   H15       1.0  0.22374030168262488  0.7789928331214568  0.5822314302043594  1.0000
  H   H16       1.0  0.725777329901554  0.22267536772744026  0.914663430842495  1.0000
  H   H17       1.0  0.05508125198208091  0.20007449356060644  0.48330047929002967  1.0000
  H   H18       1.0  0.5498379070412014  0.8012147557322324  0.019247908277264997  1.0000
  H   H19       1.0  0.9449966929279155  0.8000063878978384  0.5167217634429307  1.0000
  H   H20       1.0  0.4501016375910964  0.1987571672691644  0.9807192769497064  1.0000
  H   H21       1.0  0.9867680691531575  0.0963781463888509  0.0792661453220163  1.0000
  H   H22       1.0  0.49075801165880506  0.9007661605010356  0.4220479984563781  1.0000
  H   H23       1.0  0.0135319130964007  0.9036841914086435  0.9207081482951978  1.0000
  H   H24       1.0  0.5091299953359538  0.099249782712441  0.5779199432473163  1.0000
  H   H25       1.0  0.013054280033628601  0.9653959850856355  0.129472132044029  1.0000
  H   H26       1.0  0.5150106197873329  0.03183261222466881  0.3718248406115521  1.0000
  H   H27       1.0  0.986976150588262  0.03466793343652341  0.8705455149072918  1.0000
  H   H28       1.0  0.4849448339852884  0.9681664628044047  0.6281183072720751  1.0000
  H   H29       1.0  0.28323120308795774  0.007636683885422701  0.06748978697167021  1.0000
  H   H30       1.0  0.7866436269371917  0.9896145700964852  0.4330094377732081  1.0000
  H   H31       1.0  0.7169378119911657  0.9923454940827411  0.9325686123127781  1.0000
  H   H32       1.0  0.2132860306006066  0.010384760465136412  0.5669467945082545  1.0000
  C   C1        1.0  0.14940074098701217  0.2429093229093056  0.3568669226799059  1.0000
  C   C2        1.0  0.6497595174544274  0.7546509129867192  0.14389671549075442  1.0000
  C   C3        1.0  0.850601998292156  0.7571339757294596  0.6431428074589647  1.0000
  C   C4        1.0  0.35018992485066747  0.24532283050524487  0.8560721253343787  1.0000
  C   C5        1.0  0.08441671682298589  0.15138738764999723  0.27945770262390107  1.0000
  C   C6        1.0  0.5855078130414952  0.8459909915901135  0.22164300866101166  1.0000
  C   C7        1.0  0.9156850864108109  0.8486329239948064  0.7205514467374385  1.0000
  C   C8        1.0  0.4143981115939468  0.1539789455652923  0.7783081594970582  1.0000
  C   C9        1.0  0.4400431897378994  0.21262272734258406  0.19638937733581233  1.0000
  C   C10       1.0  0.9425804903829799  0.7845254596776672  0.3034170927166003  1.0000
  C   C11       1.0  0.5601357818613195  0.7873825698761364  0.8036487614799198  1.0000
  C   C12       1.0  0.05721838322853051  0.21541897599504278  0.6965636615588978  1.0000
  C   C13       1.0  0.7451350757271058  0.3813313952232989  0.2629437450635947  1.0000
  C   C14       1.0  0.24565790202579757  0.6153787582503867  0.23645832874430545  1.0000
  C   C15       1.0  0.2549784398241286  0.6187044887207875  0.7371133870369065  1.0000
  C   C16       1.0  0.7542181794880491  0.3845619616006957  0.7635373257098337  1.0000
  C   C17       1.0  0.5169126334929857  0.3064606550844857  0.272739643575882  1.0000
  C   C18       1.0  0.0185493849534382  0.6906492752767975  0.22670678594670332  1.0000
  C   C19       1.0  0.4832524760398442  0.6935398758583275  0.7272982216379731  1.0000
  C   C20       1.0  0.9813524608293704  0.3093081009175976  0.7732816810586272  1.0000
  C   C21       1.0  0.2231320101973751  0.13494309614639383  0.1979052479770189  1.0000
  C   C22       1.0  0.725290531172199  0.8623257646691371  0.3027600571073634  1.0000
  C   C23       1.0  0.7770252763057571  0.8650755442130134  0.8020990061442604  1.0000
  C   C24       1.0  0.2745717530757971  0.13764320697419663  0.6972091729926789  1.0000
  C   C25       1.0  0.3671696590099529  0.32344260335184327  0.35357507904811314  1.0000
  C   C26       1.0  0.8677636174253466  0.6735692854261757  0.14611919077984944  1.0000
  C   C27       1.0  0.6329321214940792  0.6765637782948417  0.6464437384547992  1.0000
  C   C28       1.0  0.1321263734159643  0.32639149936748885  0.8538595172839578  1.0000
  C   C29       1.0  0.9746269696520072  0.2581963826411666  0.43928727456390954  1.0000
  C   C30       1.0  0.47250672876394617  0.7412377070932196  0.06249323580372853  1.0000
  C   C31       1.0  0.0253717866861081  0.7418494787682308  0.560728167058592  1.0000
  C   C32       1.0  0.5274149651360247  0.2587522578686219  0.9374768117281606  1.0000
  C   C33       1.0  0.1222767454207911  0.045308233327475  0.1144936025790315  1.0000
  C   C34       1.0  0.6251593715758902  0.9519192295120932  0.38650007952622906  1.0000
  C   C35       1.0  0.8778666621781639  0.9547131142333076  0.8855137867524974  1.0000
  C   C36       1.0  0.37475840180280784  0.0480743164048647  0.6134569836822408  1.0000
  O   O1        1.0  0.4307206504935976  0.4165709130426621  0.42444058685451574  1.0000
  O   O2        1.0  0.9305388029304352  0.5800999765702599  0.07490592186524482  1.0000
  O   O3        1.0  0.5694207298624719  0.5833557335003193  0.5756004961060626  1.0000
  O   O4        1.0  0.0694244910605093  0.4198861120043205  0.9250646673248825  1.0000
  O   O5        1.0  0.8547290481362992  0.4659984331450745  0.3225027641523681  1.0000
  O   O6        1.0  0.3534047785148716  0.5292423235801919  0.1768859419111593  1.0000
  O   O7        1.0  0.1451645647102282  0.5341204861943681  0.6775431995469177  1.0000
  O   O8        1.0  0.6465743189813652  0.47072754770028524  0.8231010343089907  1.0000
  O   O9        1.0  0.606808968988453  0.6656863171915646  0.4214307712340571  1.0000
  O   O10       1.0  0.11186801561054692  0.3286451755416594  0.07614151175202721  1.0000
  O   O11       1.0  0.39317760403669416  0.33434403722603195  0.5786761245747272  1.0000
  O   O12       1.0  0.8880714248820282  0.6713192376446174  0.9238580909186851  1.0000
  O   O13       1.0  0.9479570990441601  0.3851676357103886  0.4895867490429566  1.0000
  O   O14       1.0  0.4469262532076712  0.6150697979293439  0.010798579271067905  1.0000
  O   O15       1.0  0.052015962375349986  0.6148559209744989  0.510416538486588  1.0000
  O   O16       1.0  0.5530291473506423  0.3849022591248996  0.9891660232901104  1.0000
