data_image0
_chemical_formula_structural       Cu2H20C24N4O12
_chemical_formula_sum              "Cu2 H20 C24 N4 O12"
_cell_length_a       7.163803761287697
_cell_length_b       7.164816812410807
_cell_length_c       12.257047012528107
_cell_angle_alpha    86.13143771253934
_cell_angle_beta     86.1279019844314
_cell_angle_gamma    71.39825504212867

_space_group_name_H-M_alt    "P 1"
_space_group_IT_number       1

loop_
  _space_group_symop_operation_xyz
  'x, y, z'

loop_
  _atom_site_type_symbol
  _atom_site_label
  _atom_site_symmetry_multiplicity
  _atom_site_fract_x
  _atom_site_fract_y
  _atom_site_fract_z
  _atom_site_occupancy
  Cu  Cu1       1.0  0.6022100970752572  0.6672860727991149  0.5420089057686255  1.0000
  Cu  Cu2       1.0  0.6674020592403878  0.6020455430521848  0.042021504230248766  1.0000
  H   H1        1.0  0.08464770186468926  0.8568952395485355  0.2886033447097843  1.0000
  H   H2        1.0  0.8568851390954817  0.0846386450546603  0.7886041577085834  1.0000
  H   H3        1.0  0.6415067799092141  0.004647626751470603  0.4614769467214399  1.0000
  H   H4        1.0  0.004759461817798164  0.64156064350766  0.961441810430166  1.0000
  H   H5        1.0  0.7324083059656559  0.9798813526874569  0.5796740927497692  1.0000
  H   H6        1.0  0.9799793676063969  0.7324647717157547  0.07967298582575917  1.0000
  H   H7        1.0  0.9594995700931364  0.5615010139978268  0.4705693129748737  1.0000
  H   H8        1.0  0.5614978017868919  0.9595179395009553  0.9705549518027679  1.0000
  H   H9        1.0  0.31521963045297946  0.3706665771931057  0.4853886590302777  1.0000
  H   H10       1.0  0.37068945282551613  0.3152043463200657  0.9853722365801116  1.0000
  H   H11       1.0  0.32599700988123453  0.15807131317058074  0.16369148682534979  1.0000
  H   H12       1.0  0.15807479223155238  0.3259838549709357  0.6636946897194137  1.0000
  H   H13       1.0  0.9747355216390118  0.3356780419196568  0.15109226566375608  1.0000
  H   H14       1.0  0.335656739461065  0.9747778138826818  0.6510962296911131  1.0000
  H   H15       1.0  0.8115939468351882  0.07501597423556919  0.26128628807063586  1.0000
  H   H16       1.0  0.07502738806180527  0.8115604320358684  0.7612981247520595  1.0000
  H   H17       1.0  0.6227485508566132  0.2167236338682414  0.17414224802782738  1.0000
  H   H18       1.0  0.21672031030023217  0.6227843210193668  0.6741192823321212  1.0000
  H   H19       1.0  0.6430265365933678  0.9645068528647228  0.21214684158781688  1.0000
  H   H20       1.0  0.9644565642090296  0.643070830755832  0.7121470402992287  1.0000
  C   C1        1.0  0.41900376561177655  0.7318791313999854  0.3405539689126442  1.0000
  C   C2        1.0  0.7318624151070521  0.4190344789704739  0.8405471140984203  1.0000
  C   C3        1.0  0.4391640416771451  0.6991180009368918  0.2297835309188585  1.0000
  C   C4        1.0  0.6991502156198732  0.4391636420536713  0.7297565279055861  1.0000
  C   C5        1.0  0.7322578558300775  0.5745817608483748  0.29860818203012934  1.0000
  C   C6        1.0  0.5746184309169565  0.7322575916906828  0.7985925602711389  1.0000
  C   C7        1.0  0.9398596781727517  0.46376915308667327  0.3094852848244258  1.0000
  C   C8        1.0  0.4637849333705829  0.9398579467671552  0.8094730171981579  1.0000
  C   C9        1.0  0.037878058500950745  0.4675959391680493  0.4048187284699693  1.0000
  C   C10       1.0  0.4675954866010342  0.037899695283641704  0.9048048826044164  1.0000
  C   C11       1.0  0.23635695439462978  0.36309016184645054  0.41364174603777565  1.0000
  C   C12       1.0  0.3630981888724704  0.23636000042249355  0.9136346825396513  1.0000
  C   C13       1.0  0.34279449648845167  0.2546143094068896  0.3258058231209233  1.0000
  C   C14       1.0  0.25461532876663284  0.3428018294809404  0.8258071612989468  1.0000
  C   C15       1.0  0.24702731575570872  0.24583498051467964  0.2313300098854825  1.0000
  C   C16       1.0  0.24582485526455133  0.24702204731675437  0.7313429913047356  1.0000
  C   C17       1.0  0.04717331134231266  0.34828034692499443  0.2241409103680567  1.0000
  C   C18       1.0  0.34827699975952703  0.0471784947466816  0.7241485160846536  1.0000
  C   C19       1.0  0.24781748861651914  0.8215037894055469  0.4132974338089069  1.0000
  C   C20       1.0  0.8214797337467059  0.24786466771685411  0.9132787880381128  1.0000
  C   C21       1.0  0.29721893803318267  0.7250762213314558  0.14542559470273628  1.0000
  C   C22       1.0  0.7250773564076665  0.29722319575310513  0.6454000626056879  1.0000
  C   C23       1.0  0.6601579128848768  0.1007319137705878  0.23954313258626309  1.0000
  C   C24       1.0  0.10072899516037372  0.6601582101003417  0.7395384535926297  1.0000
  N   N1        1.0  0.6023317720896698  0.6544050474913163  0.3820018515982468  1.0000
  N   N2        1.0  0.6544012782302459  0.6023578585608362  0.88200539357765  1.0000
  N   N3        1.0  0.6349113404733444  0.6044888798636878  0.2035500673857982  1.0000
  N   N4        1.0  0.604572254755979  0.6348785445721035  0.7035466394909661  1.0000
  O   O1        1.0  0.2686825305565959  0.8282211457824362  0.5128520099376672  1.0000
  O   O2        1.0  0.8281911318976468  0.26873487955121783  0.012831556652166403  1.0000
  O   O3        1.0  0.07391539224769153  0.891656198243929  0.3701780175838181  1.0000
  O   O4        1.0  0.8916531707592908  0.07397948198072872  0.8701623948455717  1.0000
  O   O5        1.0  0.1128627103824584  0.7962937109925504  0.1693669975379777  1.0000
  O   O6        1.0  0.7962269055085824  0.1129341391799912  0.6693211113091734  1.0000
  O   O7        1.0  0.3696073616423731  0.6665912923238013  0.050681489004595896  1.0000
  O   O8        1.0  0.6666003025989511  0.3696570980070391  0.5506880905456198  1.0000
  O   O9        1.0  0.540465999415531  0.16386920115034798  0.3377587976345993  1.0000
  O   O10       1.0  0.16388623838867727  0.5404595095852045  0.8377475124215649  1.0000
  O   O11       1.0  0.6908689523412618  0.9091733879365549  0.5227854182232646  1.0000
  O   O12       1.0  0.9092238495977438  0.6908751208417171  0.022774146642646514  1.0000
