data_image0
_chemical_formula_structural       Zn2H56C36N8O8
_chemical_formula_sum              "Zn2 H56 C36 N8 O8"
_cell_length_a       8.324711879742056
_cell_length_b       9.86096001351808
_cell_length_c       15.11
_cell_angle_alpha    94.76690004049424
_cell_angle_beta     101.31241493529143
_cell_angle_gamma    113.3328740803391

_space_group_name_H-M_alt    "P 1"
_space_group_IT_number       1

loop_
  _space_group_symop_operation_xyz
  'x, y, z'

loop_
  _atom_site_type_symbol
  _atom_site_label
  _atom_site_symmetry_multiplicity
  _atom_site_fract_x
  _atom_site_fract_y
  _atom_site_fract_z
  _atom_site_occupancy
  Zn  Zn1       1.0  0.999999043985639  0.4999951658812734  0.5000001308710935  1.0000
  Zn  Zn2       1.0  1.1760783137739012e-06  0.5000063905282772  6.661636042792907e-06  1.0000
  H   H1        1.0  0.6921296268844799  0.3900082173103954  0.6404865405592659  1.0000
  H   H2        1.0  0.3078586810376791  0.6099843593815564  0.3595125212608465  1.0000
  H   H3        1.0  0.5133197227078768  0.4346621080106559  0.5932524077655259  1.0000
  H   H4        1.0  0.48667331624249505  0.5653349585400917  0.4067421143384919  1.0000
  H   H5        1.0  0.47759040201692227  0.2307473133335378  0.4865385666349908  1.0000
  H   H6        1.0  0.5224042848324828  0.769238528570213  0.5134634665697604  1.0000
  H   H7        1.0  0.5733864841824642  0.3891237151266935  0.4345918947862515  1.0000
  H   H8        1.0  0.4266015917890727  0.6108587593829569  0.5654059322772653  1.0000
  H   H9        1.0  0.7866025698899719  0.2504847326204924  0.5371679451571224  1.0000
  H   H10       1.0  0.21339243348133152  0.7495089665361618  0.4628325629402993  1.0000
  H   H11       1.0  0.6796676463422673  0.2603792589520708  0.3412266716503893  1.0000
  H   H12       1.0  0.32032042962926977  0.7396032155575796  0.6587744644799756  1.0000
  H   H13       1.0  0.631832518712166  0.0929973228698344  0.3878370611691935  1.0000
  H   H14       1.0  0.36816641350100826  0.906989641498619  0.6121661535278733  1.0000
  H   H15       1.0  0.9691165186563496  0.1708862708760179  0.4445134378892845  1.0000
  H   H16       1.0  0.030881420464773227  0.8291107956747368  0.5554888937317699  1.0000
  H   H17       1.0  0.8970244171107425  0.1461606184617281  0.32320531990680473  1.0000
  H   H18       1.0  0.10297083997437542  0.8538263459067252  0.6767968357994079  1.0000
  H   H19       1.0  0.9988158067924005  0.4161582774291404  0.3388529603079391  1.0000
  H   H20       1.0  0.0011822168999842783  0.5838365441922093  0.6611459496358307  1.0000
  H   H21       1.0  0.7551238868440038  0.6684939543401356  0.6513506855087741  1.0000
  H   H22       1.0  0.2448687510132005  0.3314974998871207  0.3486434888729022  1.0000
  H   H23       1.0  0.7330120191565755  0.6461984380016048  0.5310728348275191  1.0000
  H   H24       1.0  0.266985033206936  0.353789648831544  0.4689222958255996  1.0000
  H   H25       1.0  0.6567869930688134  0.7181731195028505  0.3620945524202028  1.0000
  H   H26       1.0  0.3432200070155461  0.2818273144420047  0.6379029847399096  1.0000
  H   H27       1.0  0.5227739588129197  0.8743461230896656  0.2801144175598225  1.0000
  H   H28       1.0  0.477214032587348  0.1256385963493898  0.7198769039804487  1.0000
  H   H29       1.0  0.6458194118752445  0.9870954572875447  0.15298027817276955  1.0000
  H   H30       1.0  0.3541681566686706  0.0129004867985074  0.8470149154865395  1.0000
  H   H31       1.0  0.8814453326998121  0.9292941375547485  0.10184674886077966  1.0000
  H   H32       1.0  0.11857224814919931  0.0707343580076056  0.8981554390986162  1.0000
  H   H33       1.0  0.3601641922529524  0.5941677092921367  0.9370275307921004  1.0000
  H   H34       1.0  0.6398192154984628  0.405824867399815  0.06297166327139078  1.0000
  H   H35       1.0  0.4971632790977553  0.7707403863389715  0.010212180612882097  1.0000
  H   H36       1.0  0.5028353994016044  0.2292533128176757  0.9897840919684453  1.0000
  H   H37       1.0  0.2908321897941448  0.6942949279371433  0.11026077284493138  1.0000
  H   H38       1.0  0.709184272346626  0.3057144857253107  0.889743568403844  1.0000
  H   H39       1.0  0.5104647355608023  0.5816140640859686  0.1275211163927636  1.0000
  H   H40       1.0  0.4895321476601709  0.4183785126059831  0.8724795339881836  1.0000
  H   H41       1.0  0.3438779866087814  0.4302059231511706  0.0409688901225351  1.0000
  H   H42       1.0  0.6561131724919207  0.5697922658642796  0.959030122391539  1.0000
  H   H43       1.0  0.3646779364192412  0.4004853028213375  0.21084384059655997  1.0000
  H   H44       1.0  0.6353147860092321  0.5995039064765209  0.7891528684281537  1.0000
  H   H45       1.0  0.2712190133420905  0.5316598950717264  0.22027257605148523  1.0000
  H   H46       1.0  0.7287797497285452  0.4683315591555228  0.7797302020530947  1.0000
  H   H47       1.0  0.08300137114218131  0.2383329297769663  0.0796740054262983  1.0000
  H   H48       1.0  0.9169874224444218  0.7616630143090859  0.9203233060656117  1.0000
  H   H49       1.0  0.05373052749929032  0.2502748317215691  0.19311065404590977  1.0000
  H   H50       1.0  0.9462625960223505  0.7497199898997877  0.8068890499546127  1.0000
  H   H51       1.0  0.9429244582138311  0.4389050245771173  0.15932758959350218  1.0000
  H   H52       1.0  0.05707217129332785  0.5610942869030353  0.8406773694989693  1.0000
  H   H53       1.0  0.2961832993310196  0.8030011442851901  0.8791925614766853  1.0000
  H   H54       1.0  0.7038103098550651  0.19699704473026  0.120808701262483  1.0000
  H   H55       1.0  0.22645786044838456  0.835169860125994  0.9803574899667211  1.0000
  H   H56       1.0  0.7735411345728807  0.1648316962835565  0.019645861081073697  1.0000
  C   C1        1.0  0.6418927219089668  0.4375434748958753  0.5835949798465805  1.0000
  C   C2        1.0  0.3581004861839433  0.5624491017960835  0.41640196429003146  1.0000
  C   C3        1.0  0.6008874276807604  0.3347537699821714  0.49274832594846163  1.0000
  C   C4        1.0  0.3991048090832763  0.6652320719215794  0.5072507952178142  1.0000
  C   C5        1.0  0.7311379906035002  0.210328557973618  0.39617004170118253  1.0000
  C   C6        1.0  0.2688584069530364  0.7896606513242332  0.6038323590079671  1.0000
  C   C7        1.0  0.9140106340721772  0.2163416013721715  0.3880245707550429  1.0000
  C   C8        1.0  0.08598502410610827  0.7836509753197802  0.6119759472334039  1.0000
  C   C9        1.0  0.7701442057393635  0.6029184440942927  0.5929562893055972  1.0000
  C   C10       1.0  0.2298491714960846  0.3970696427388631  0.40704109142350836  1.0000
  C   C11       1.0  0.8760971899721711  0.6086508713178134  0.31669983291144627  1.0000
  C   C12       1.0  0.12392864965374885  0.3913697669916445  0.6833008360225392  1.0000
  C   C13       1.0  0.8298453327692314  0.7253209747132274  0.2735164895543036  1.0000
  C   C14       1.0  0.17016908037933834  0.2746940512727321  0.7264839637516118  1.0000
  C   C15       1.0  0.7030008166934749  0.7648126502576318  0.30427556278621637  1.0000
  C   C16       1.0  0.2970024236915592  0.23519002861662133  0.6957203661801117  1.0000
  C   C17       1.0  0.6323443089922665  0.8550116686300555  0.2605406577926246  1.0000
  C   C18       1.0  0.36765591107168666  0.1449898877794951  0.7394575311407152  1.0000
  C   C19       1.0  0.6988438035304798  0.9155315978665469  0.18787787588996  1.0000
  C   C20       1.0  0.3011497210843288  0.084468836078301  0.8121188667660704  1.0000
  C   C21       1.0  0.8306797721974704  0.8828196091108893  0.1590345268131017  1.0000
  C   C22       1.0  0.16933307762332825  0.11720439659266901  0.8409695536089146  1.0000
  C   C23       1.0  0.8955105109996496  0.7852572223056598  0.19975505005130148  1.0000
  C   C24       1.0  0.10451433553420492  0.2147735181860995  0.8002513539403536  1.0000
  C   C25       1.0  0.02521706035307868  0.7441985860398859  0.1577772822269168  1.0000
  C   C26       1.0  0.9747979858392809  0.2558321544518734  0.842223429931188  1.0000
  C   C27       1.0  0.35741671630971444  0.6834070203459603  0.9847100020829771  1.0000
  C   C28       1.0  0.6425812228114012  0.3165900462047944  0.015291667724703499  1.0000
  C   C29       1.0  0.3638143311365313  0.5172092845223517  0.0977704597081228  1.0000
  C   C30       1.0  0.6361781375781277  0.4827866595637004  0.9022312198414822  1.0000
  C   C31       1.0  0.27529350356383736  0.4441525470501944  0.1716633180693066  1.0000
  C   C32       1.0  0.7247062308356789  0.5558456419652629  0.8283392684457098  1.0000
  C   C33       1.0  0.08599505912392401  0.3153452328523585  0.1376480375683045  1.0000
  C   C34       1.0  0.9139961845480543  0.6846507112336937  0.8623528477754405  1.0000
  C   C35       1.0  0.23600462953078963  0.7489791631977027  0.9330993230830771  1.0000
  C   C36       1.0  0.763992570212082  0.2510212707471524  0.066903111257389  1.0000
  N   N1        1.0  0.7542068672328953  0.3008575809678788  0.4841869968264163  1.0000
  N   N2        1.0  0.2457882207096844  0.6991338732593704  0.5158127368472023  1.0000
  N   N3        1.0  0.04124936480217663  0.3734339035483885  0.3952955319909961  1.0000
  N   N4        1.0  0.9587462933761018  0.6265586731435633  0.6047023387439836  1.0000
  N   N5        1.0  0.2833780999951685  0.6145191167700546  0.05868923711070548  1.0000
  N   N6        1.0  0.7166244855828838  0.3854846845689011  0.9413146237250133  1.0000
  N   N7        1.0  0.9472994860287898  0.3696624221559759  0.1055587103904969  1.0000
  N   N8        1.0  0.05269648867139413  0.6303380117888793  0.8944455769975761  1.0000
  O   O1        1.0  0.9077169486346364  0.5163259048033524  0.2672032521205594  1.0000
  O   O2        1.0  0.0923394952952634  0.48371157047660057  0.7327983283334945  1.0000
  O   O3        1.0  0.8735016589810202  0.6076339182995056  0.4011921050419217  1.0000
  O   O4        1.0  0.1265027218754256  0.3923710055041525  0.5988040689273362  1.0000
  O   O5        1.0  0.9534866722006542  0.675480174633698  0.0744012655493052  1.0000
  O   O6        1.0  0.046513231341400334  0.3245135245229562  0.9256103611319944  1.0000
  O   O7        1.0  0.1852569034492363  0.7820918718513141  0.2026920141650876  1.0000
  O   O8        1.0  0.814781121313999  0.2179792773696505  0.7972961656832354  1.0000
