data_image0
_chemical_formula_structural       Cs4H16C16Br4N8O12
_chemical_formula_sum              "Cs4 H16 C16 Br4 N8 O12"
_cell_length_a       9.08657272178665
_cell_length_b       9.152452882000556
_cell_length_c       10.38404190581248
_cell_angle_alpha    90.00002809599533
_cell_angle_beta     91.04467614798372
_cell_angle_gamma    89.99997152290508

_space_group_name_H-M_alt    "P 1"
_space_group_IT_number       1

loop_
  _space_group_symop_operation_xyz
  'x, y, z'

loop_
  _atom_site_type_symbol
  _atom_site_label
  _atom_site_symmetry_multiplicity
  _atom_site_fract_x
  _atom_site_fract_y
  _atom_site_fract_z
  _atom_site_occupancy
  Cs  Cs1       1.0  0.2259407923373544  0.605554791451489  0.8705780209459277  1.0000
  Cs  Cs2       1.0  0.2740590257952107  0.10555432415013402  0.6294236123841942  1.0000
  Cs  Cs3       1.0  0.774059750303344  0.3944460178397905  0.1294225815924008  1.0000
  Cs  Cs4       1.0  0.7259415139732965  0.8944475777446856  0.370577953121412  1.0000
  H   H1        1.0  0.30050936140033  0.27630735143743124  0.2721038553116486  1.0000
  H   H2        1.0  0.1994918679654631  0.7763077528096859  0.227898509953242  1.0000
  H   H3        1.0  0.6994911898566657  0.723691272646498  0.7278938583250678  1.0000
  H   H4        1.0  0.8005086660586613  0.22369633429222094  0.7721049814869261  1.0000
  H   H5        1.0  0.3974018945555926  0.36908570099974725  0.1495643326339433  1.0000
  H   H6        1.0  0.10259929458054272  0.8690873101703719  0.3504361463151895  1.0000
  H   H7        1.0  0.6025986538294887  0.6309129230844521  0.8504343439698232  1.0000
  H   H8        1.0  0.8974012365716603  0.13091677693180512  0.6495683080920287  1.0000
  H   H9        1.0  0.034506597183849394  0.13276986708607552  0.0118513821920843  1.0000
  H   H10       1.0  0.46549360834709574  0.6327691894743951  0.48814897577204863  1.0000
  H   H11       1.0  0.9654928447532285  0.8672287569989197  0.9881492002725238  1.0000
  H   H12       1.0  0.5345080407418692  0.36723052721281146  0.5118497209052038  1.0000
  H   H13       1.0  0.4114047451346606  0.9123258517665035  0.11592153378069982  1.0000
  H   H14       1.0  0.0885920111430352  0.41232670868091503  0.3840817722407337  1.0000
  H   H15       1.0  0.5885958032501507  0.08767386492096564  0.8840771428233013  1.0000
  H   H16       1.0  0.9114063272171504  0.5876751932144375  0.6159197531183551  1.0000
  C   C1        1.0  0.33299696947351254  0.27054164776686923  0.1699806705884939  1.0000
  C   C2        1.0  0.1670031649170269  0.770542121508001  0.3300207091740432  1.0000
  C   C3        1.0  0.6670035789112986  0.7294580689206073  0.830018006015507  1.0000
  C   C4        1.0  0.8329962712753981  0.22945978038735154  0.6699817992253543  1.0000
  C   C5        1.0  0.19192266082451678  0.2728481464348108  0.0926025126060566  1.0000
  C   C6        1.0  0.30807746667927927  0.7728485938707976  0.40740079407549257  1.0000
  C   C7        1.0  0.8080778875608344  0.7271493850461043  0.9073961639974755  1.0000
  C   C8        1.0  0.6919230702173065  0.22715330802429184  0.5926017343971637  1.0000
  C   C9        1.0  0.2144288014701345  0.0088478660688693  0.062385987038410896  1.0000
  C   C10       1.0  0.2855670511618769  0.5088472486296283  0.43761808958389997  1.0000
  C   C11       1.0  0.785569542634974  0.9911496654128413  0.9376136123856541  1.0000
  C   C12       1.0  0.7144323965185038  0.4911535606613811  0.5623805669470769  1.0000
  C   C13       1.0  0.42615028327531956  0.13555157988169242  0.159269022823139  1.0000
  C   C14       1.0  0.073848814428942  0.6355521051629582  0.3407332421899341  1.0000
  C   C15       1.0  0.5738491644056012  0.8644470442027697  0.840729633707369  1.0000
  C   C16       1.0  0.9261506246351344  0.36445088933540154  0.6592683032426478  1.0000
  Br  Br1       1.0  0.4927064096244038  0.31391924356867673  0.8654823832489598  1.0000
  Br  Br2       1.0  0.007296618860060301  0.8139196874340798  0.6345155474084336  1.0000
  Br  Br3       1.0  0.5072886553435935  0.6860782879116983  0.13450945221894983  1.0000
  Br  Br4       1.0  0.9927083237264399  0.18607675144330224  0.3654860983890416  1.0000
  N   N1        1.0  0.35554092734840026  0.012512436707211805  0.11231974546571878  1.0000
  N   N2        1.0  0.14445932915550233  0.5125151385735123  0.3876834500481223  1.0000
  N   N3        1.0  0.6444618195733582  0.9874850947734476  0.8876799342513807  1.0000
  N   N4        1.0  0.855543417765169  0.48748676332024854  0.6123162296699078  1.0000
  N   N5        1.0  0.1420297582312742  0.13967182549895094  0.0474745997701547  1.0000
  N   N6        1.0  0.3579693374310863  0.6396733660546731  0.45252766700255626  1.0000
  N   N7        1.0  0.8579696837060735  0.8603257059827671  0.9525259826942117  1.0000
  N   N8        1.0  0.6420312109539948  0.36032525802952625  0.5474710096012103  1.0000
  O   O1        1.0  0.11958362704213951  0.3849765701263693  0.0738112473662156  1.0000
  O   O2        1.0  0.3804175484767924  0.8849748073194095  0.42619116430199006  1.0000
  O   O3        1.0  0.8804180220471023  0.6150220539575602  0.9261874493108094  1.0000
  O   O4        1.0  0.6195840919961455  0.1150260019718772  0.5738104212766403  1.0000
  O   O5        1.0  0.1553496887083128  0.8913500930796657  0.030204204577721303  1.0000
  O   O6        1.0  0.3446437586192345  0.3913508719945257  0.46980481006917074  1.0000
  O   O7        1.0  0.8446497503571136  0.10864743840231482  0.9697973408536953  1.0000
  O   O8        1.0  0.6553534905247459  0.6086499372967467  0.5301928433482388  1.0000
  O   O9        1.0  0.5556797244604682  0.1305070091156395  0.19643473866842948  1.0000
  O   O10       1.0  0.9443183713618026  0.6305084250310956  0.3035646601516717  1.0000
  O   O11       1.0  0.44431972322045254  0.8694916149688227  0.8035639178620785  1.0000
  O   O12       1.0  0.05567996699811319  0.3694945694675341  0.6964368652076516  1.0000
