data_image0
_chemical_formula_structural       Li4H8C8O12
_chemical_formula_sum              "Li4 H8 C8 O12"
_cell_length_a       5.337499629678191
_cell_length_b       5.337306228295659
_cell_length_c       11.726076982313439
_cell_angle_alpha    89.99969953995156
_cell_angle_beta     89.9993516058022
_cell_angle_gamma    116.43297136004823

_space_group_name_H-M_alt    "P 1"
_space_group_IT_number       1

loop_
  _space_group_symop_operation_xyz
  'x, y, z'

loop_
  _atom_site_type_symbol
  _atom_site_label
  _atom_site_symmetry_multiplicity
  _atom_site_fract_x
  _atom_site_fract_y
  _atom_site_fract_z
  _atom_site_occupancy
  Li  Li1       1.0  0.1949841001571144  0.6203695264275311  0.9321306701615272  1.0000
  Li  Li2       1.0  0.8049895769364924  0.3796071610121461  0.4321374054936271  1.0000
  Li  Li3       1.0  0.6203539827460318  0.19498645972551293  0.0678492268921786  1.0000
  Li  Li4       1.0  0.3796511119472399  0.8050025172823327  0.5678759597478589  1.0000
  H   H1        1.0  0.5761121415679469  0.70338832800811  0.143552801747191  1.0000
  H   H2        1.0  0.4239148117986388  0.2966025690257866  0.6435606114845953  1.0000
  H   H3        1.0  0.7033490206095437  0.5760815197615302  0.8564567679793312  1.0000
  H   H4        1.0  0.2965953836231138  0.42391426371809626  0.3564426954901592  1.0000
  H   H5        1.0  0.026430913701610027  0.8404300907187551  0.15758549766045601  1.0000
  H   H6        1.0  0.973576884505512  0.15955631831000971  0.6575705423809382  1.0000
  H   H7        1.0  0.8404462432305948  0.0264432290371488  0.8424206273467902  1.0000
  H   H8        1.0  0.1595341734953309  0.9735695343890074  0.34242938684786145  1.0000
  C   C1        1.0  0.14494855679852486  0.27656880186210486  0.1252577181517225  1.0000
  C   C2        1.0  0.855072466022385  0.7234289412763034  0.6252611886207262  1.0000
  C   C3        1.0  0.2765519618742617  0.14493526425675193  0.8747365670139544  1.0000
  C   C4        1.0  0.7234263944959026  0.8550493232051226  0.3747369356288814  1.0000
  C   C5        1.0  0.9581508407521043  0.9986728671661708  0.1839689453422793  1.0000
  C   C6        1.0  0.041837488467948006  0.0013380690022444003  0.6839694533161733  1.0000
  C   C7        1.0  0.9986464281244949  0.9581503170160416  0.8160412905440921  1.0000
  C   C8        1.0  0.0013413405005877972  0.0418484739454144  0.3160306290617427  1.0000
  O   O1        1.0  0.0276185672474085  0.40197185294914567  0.0711008906788706  1.0000
  O   O2        1.0  0.9724041834581956  0.5980190316879829  0.5711004601082195  1.0000
  O   O3        1.0  0.40198048589497404  0.0276111064683988  0.9288916560844599  1.0000
  O   O4        1.0  0.5980269733056077  0.9723780711939515  0.42890451925103423  1.0000
  O   O5        1.0  0.407514610713271  0.3651325035501572  0.1353318001085029  1.0000
  O   O6        1.0  0.5924854539574085  0.634839898545799  0.6353387738760574  1.0000
  O   O7        1.0  0.3651448725352822  0.40753803141799244  0.864652533914942  1.0000
  O   O8        1.0  0.6348385875513217  0.5924824728661735  0.3646445703511105  1.0000
  O   O9        1.0  0.6758621516520832  0.9135600668979578  0.150013106400543  1.0000
  O   O10       1.0  0.32421329537648796  0.08646813329779231  0.6500236398481434  1.0000
  O   O11       1.0  0.9135245521651002  0.675825897406348  0.8499935017066208  1.0000
  O   O12       1.0  0.08645663444984561  0.3242139143240267  0.3499894508051824  1.0000
