data_image0
_chemical_formula_structural       Cd2H68C52N8O8
_chemical_formula_sum              "Cd2 H68 C52 N8 O8"
_cell_length_a       11.408326742177294
_cell_length_b       11.353441867625039
_cell_length_c       13.024730144312274
_cell_angle_alpha    76.95343290352383
_cell_angle_beta     80.719549164665
_cell_angle_gamma    65.1014238903396

_space_group_name_H-M_alt    "P 1"
_space_group_IT_number       1

loop_
  _space_group_symop_operation_xyz
  'x, y, z'

loop_
  _atom_site_type_symbol
  _atom_site_label
  _atom_site_symmetry_multiplicity
  _atom_site_fract_x
  _atom_site_fract_y
  _atom_site_fract_z
  _atom_site_occupancy
  Cd  Cd1       1.0  0.6598410938255627  0.6183829098734533  0.18118614141207703  1.0000
  Cd  Cd2       1.0  0.3401609331981632  0.3816136600430012  0.8188148338279788  1.0000
  H   H1        1.0  0.5073260180014645  0.5371123663505486  0.40543910904680314  1.0000
  H   H2        1.0  0.4926905093327533  0.4628684392429392  0.5945735085518677  1.0000
  H   H3        1.0  0.43756538126298483  0.3225406693113513  0.46436697628501383  1.0000
  H   H4        1.0  0.5624379091906562  0.6774549251458809  0.535633229320581  1.0000
  H   H5        1.0  0.6930591483435864  0.3697197298630996  0.08366847062932689  1.0000
  H   H6        1.0  0.3069357887826172  0.6302836868083687  0.9163368476557139  1.0000
  H   H7        1.0  0.5647948229462473  0.31773878206507083  0.08105525664441161  1.0000
  H   H8        1.0  0.43520330827551856  0.6822676420956739  0.9189466607987102  1.0000
  H   H9        1.0  0.7112021159649659  0.2050879504590668  0.1382083714731337  1.0000
  H   H10       1.0  0.2887966918183268  0.7949165250919278  0.8617884546166225  1.0000
  H   H11       1.0  0.5779956120347194  0.11884975320827348  0.24506078405475049  1.0000
  H   H12       1.0  0.42200056567904914  0.8811437866204702  0.7549440095014647  1.0000
  H   H13       1.0  0.4105042711347268  0.2086960494330441  0.26302664064725434  1.0000
  H   H14       1.0  0.5894882768120273  0.791304384656243  0.7369781089210508  1.0000
  H   H15       1.0  0.7578840844897387  0.921097805182228  0.3071059934177852  1.0000
  H   H16       1.0  0.24210505152572642  0.07890457229269289  0.692900434577524  1.0000
  H   H17       1.0  0.8272397214055047  0.9184826107080328  0.42047760317699096  1.0000
  H   H18       1.0  0.1727523358593004  0.0815168293815631  0.5795274211531166  1.0000
  H   H19       1.0  0.744977887937658  0.07029337397196397  0.3402028016331189  1.0000
  H   H20       1.0  0.25501685660368884  0.9297060817663408  0.6598033373829962  1.0000
  H   H21       1.0  0.19375104318512362  0.1846725614885329  0.40271308717431253  1.0000
  H   H22       1.0  0.8062433551659184  0.8153298716078153  0.5972902076321845  1.0000
  H   H23       1.0  0.27365002518885007  0.293454846750322  0.3732665881739763  1.0000
  H   H24       1.0  0.7263430134398519  0.7065465813386639  0.6267378866325188  1.0000
  H   H25       1.0  0.20267377018699761  0.26389293381805595  0.5012411860989091  1.0000
  H   H26       1.0  0.7973180532110079  0.7361114606213093  0.4987613497361708  1.0000
  H   H27       1.0  0.5442917712184112  0.8471261057972441  0.3373396689429384  1.0000
  H   H28       1.0  0.45571415841855173  0.1528695147332755  0.6626593531083103  1.0000
  H   H29       1.0  0.2839158338336178  0.9659862995868023  0.4077668349738062  1.0000
  H   H30       1.0  0.7160871424918652  0.0340122652787613  0.592232058582411  1.0000
  H   H31       1.0  0.3957525648045889  0.6822675950757855  0.1010622743541489  1.0000
  H   H32       1.0  0.6042491802591172  0.3177339396150244  0.8989339141505257  1.0000
  H   H33       1.0  0.23494247074901883  0.806115523340203  0.10114921987207039  1.0000
  H   H34       1.0  0.7650618332366577  0.1938840534824493  0.8988469615239083  1.0000
  H   H35       1.0  0.2724264282738389  0.6577602309487035  0.19520329824630525  1.0000
  H   H36       1.0  0.7275761055689004  0.3422393308083257  0.804793161465831  1.0000
  H   H37       1.0  0.09897855628431543  0.8309703900540625  0.2921312262279301  1.0000
  H   H38       1.0  0.9010239615273578  0.1690291751778332  0.7078644674040859  1.0000
  H   H39       1.0  0.08009190197290658  0.9933444107189116  0.23364874983781198  1.0000
  H   H40       1.0  0.919909923352158  0.006659107913336001  0.7663462622212053  1.0000
  H   H41       1.0  0.19541782520965967  0.6983792340021608  0.41758652008426367  1.0000
  H   H42       1.0  0.8045793821732163  0.3016202860328789  0.5824100084962113  1.0000
  H   H43       1.0  0.0882598679354061  0.6610008727792264  0.5211161261682379  1.0000
  H   H44       1.0  0.91173874726303  0.33899964183860476  0.4788815206525926  1.0000
  H   H45       1.0  0.22500286159969826  0.6759678850473634  0.5507173335426147  1.0000
  H   H46       1.0  0.7749961159261077  0.3240316500532998  0.4492789167217097  1.0000
  H   H47       1.0  0.0722482530403994  0.1758096828904741  0.25926923132305296  1.0000
  H   H48       1.0  0.9277508207778385  0.8241918326767744  0.7407266085757341  1.0000
  H   H49       1.0  0.9430387939757808  0.29688404498082116  0.3213550050532206  1.0000
  H   H50       1.0  0.05695941080206524  0.7031174595787562  0.6786417400837622  1.0000
  H   H51       1.0  0.9105577843701126  0.1973544858568346  0.2542069619015237  1.0000
  H   H52       1.0  0.08944032411530156  0.8026450382361572  0.7457901936009963  1.0000
  H   H53       1.0  0.9490908477118509  0.635653264399508  0.4017704789923969  1.0000
  H   H54       1.0  0.05090891859299519  0.3643442977673743  0.5982260424793893  1.0000
  H   H55       1.0  0.9671048789768265  0.7408926641178866  0.2818827389420093  1.0000
  H   H56       1.0  0.03290042229782128  0.2591068959135471  0.7181186658567145  1.0000
  H   H57       1.0  0.07336776350789623  0.4386494153992473  0.3218755056467799  1.0000
  H   H58       1.0  0.9266277379623276  0.5613520769864879  0.6781193587240824  1.0000
  H   H59       1.0  0.16674044092969353  0.5308176608139094  0.3173709304861703  1.0000
  H   H60       1.0  0.8332605566369155  0.46917693152774126  0.6826282960371516  1.0000
  H   H61       1.0  0.03196072295680348  0.5260565897707608  0.1317871477275929  1.0000
  H   H62       1.0  0.9680443377457665  0.47394102106783714  0.8682077727156071  1.0000
  H   H63       1.0  0.11359924217504165  0.6290778763053451  0.12451662710245162  1.0000
  H   H64       1.0  0.8864019479764382  0.37092067696946174  0.8754817786898031  1.0000
  H   H65       1.0  0.2345385015842183  0.3262801896058747  0.1791392104604554  1.0000
  H   H66       1.0  0.7654686502007165  0.6737233707483625  0.8208557327302232  1.0000
  H   H67       1.0  0.31900122988715646  0.42639839197066454  0.17457988966617682  1.0000
  H   H68       1.0  0.6810019871164031  0.5736041234034842  0.8254204813993199  1.0000
  C   C1        1.0  0.5216627162476896  0.4602062857844301  0.36237515530628167  1.0000
  C   C2        1.0  0.47834419454117244  0.5397873201139944  0.637633330913829  1.0000
  C   C3        1.0  0.48499800588001574  0.3560969986928911  0.3921005735451856  1.0000
  C   C4        1.0  0.5150076667298081  0.6438886708566756  0.607911225455375  1.0000
  C   C5        1.0  0.5865424361216116  0.3516541916627034  0.23062619664983686  1.0000
  C   C6        1.0  0.41345720842794265  0.6483462992141894  0.7693782057339718  1.0000
  C   C7        1.0  0.641710337337166  0.3089641941939689  0.1274932567675293  1.0000
  C   C8        1.0  0.3582872069102197  0.6910392555004988  0.872509345802932  1.0000
  C   C9        1.0  0.5018072229836079  0.17385364670630568  0.2999148358102204  1.0000
  C   C10       1.0  0.4981868704590653  0.8261428484651602  0.7000889240127606  1.0000
  C   C11       1.0  0.5000520543957877  0.0863001171357212  0.4053454338090248  1.0000
  C   C12       1.0  0.499937950660069  0.913702271346871  0.5946600889480961  1.0000
  C   C13       1.0  0.6180544256562683  0.985333873148683  0.4385627997937788  1.0000
  C   C14       1.0  0.38193940845675195  0.014672485549148498  0.5614459420806668  1.0000
  C   C15       1.0  0.7432012080393023  0.9730851913153699  0.37327993111402696  1.0000
  C   C16       1.0  0.2567900925086093  0.026916214758280398  0.6267263541688592  1.0000
  C   C17       1.0  0.382435671673811  0.10376837603232764  0.46683859082551044  1.0000
  C   C18       1.0  0.6175559016143314  0.8962369736001887  0.5331707041268886  1.0000
  C   C19       1.0  0.25768615492674485  0.2166796690113557  0.4338542150238639  1.0000
  C   C20       1.0  0.7423056042409685  0.7833227380117121  0.5661502633369795  1.0000
  C   C21       1.0  0.4587297963772913  0.8445100553285129  0.3137574433515767  1.0000
  C   C22       1.0  0.5412752321571332  0.15548556114406153  0.6862409517776342  1.0000
  C   C23       1.0  0.3310309405021032  0.9051599190262677  0.3481499434801805  1.0000
  C   C24       1.0  0.6689746589756284  0.09483867538743598  0.6518470004415705  1.0000
  C   C25       1.0  0.3471073586048377  0.7905470499466319  0.22487572820669752  1.0000
  C   C26       1.0  0.6528935816487688  0.2094564611528114  0.7751194230104022  1.0000
  C   C27       1.0  0.3101491797475619  0.7311658652087017  0.15174702605170146  1.0000
  C   C28       1.0  0.6898529436745946  0.2688346864900808  0.84824853197658  1.0000
  C   C29       1.0  0.11983611822819283  0.9142076271621844  0.3005427448452807  1.0000
  C   C30       1.0  0.8801656108044469  0.0857939110034849  0.6994526775792735  1.0000
  C   C31       1.0  0.05859056614175278  0.9590816604673335  0.40444828705891217  1.0000
  C   C32       1.0  0.9414119837320669  0.040917897814836096  0.5955489387333375  1.0000
  C   C33       1.0  0.0707845470694509  0.8635088578126754  0.49724239600897135  1.0000
  C   C34       1.0  0.9292140520979119  0.136491660280015  0.5027544847317387  1.0000
  C   C35       1.0  0.14823551656836298  0.718465670724612  0.49549566730784284  1.0000
  C   C36       1.0  0.8517630665679263  0.281534850842931  0.5045004473527542  1.0000
  C   C37       1.0  0.9895688687695529  0.09512456387763277  0.40614812116238147  1.0000
  C   C38       1.0  0.010429996432748142  0.9048729942313044  0.5938477733873526  1.0000
  C   C39       1.0  0.9786960752688431  0.19609397859898786  0.30602330509056236  1.0000
  C   C40       1.0  0.021301751150559742  0.8039085089526169  0.6939740705228061  1.0000
  C   C41       1.0  0.8413647246822223  0.645583728354147  0.2770355982757379  1.0000
  C   C42       1.0  0.1586330603492385  0.3544256731646557  0.7229634749577727  1.0000
  C   C43       1.0  0.9605906862452542  0.6457303133214509  0.31509360873533865  1.0000
  C   C44       1.0  0.03941109088059855  0.35427121441963993  0.6849041119295761  1.0000
  C   C45       1.0  0.08342974983203531  0.5312169168674217  0.28400749530556624  1.0000
  C   C46       1.0  0.9165705231858255  0.4687816358242997  0.7159895174845234  1.0000
  C   C47       1.0  0.11076837366384498  0.5338256038119127  0.16485829357194598  1.0000
  C   C48       1.0  0.8892358660915392  0.46617198559443546  0.835139830349803  1.0000
  C   C49       1.0  0.23886609955770424  0.4217064368728032  0.14065705289488048  1.0000
  C   C50       1.0  0.7611397085359574  0.5782961149992119  0.8593398363759164  1.0000
  C   C51       1.0  0.27915623179843874  0.4117675563800701  0.024931102705380702  1.0000
  C   C52       1.0  0.7208462859072354  0.5882300075360762  0.9750695977728725  1.0000
  N   N1        1.0  0.5846967090727945  0.4563246734465025  0.2625324324988015  1.0000
  N   N2        1.0  0.4153171858893715  0.5436650109320595  0.737480357668467  1.0000
  N   N3        1.0  0.5263621447463862  0.2882885163381416  0.3081343160936996  1.0000
  N   N4        1.0  0.47363296222832935  0.7117119611987377  0.6918654195196653  1.0000
  N   N5        1.0  0.4673496963667319  0.7737969906467794  0.2375462350031512  1.0000
  N   N6        1.0  0.5326518400810372  0.2262005865857262  0.7624500081524774  1.0000
  N   N7        1.0  0.261538370892673  0.8705058037119072  0.29155347654012337  1.0000
  N   N8        1.0  0.7384641147508547  0.1294917671539579  0.7084456917778965  1.0000
  O   O1        1.0  0.7716049370775265  0.7460573920984572  0.21447857356495356  1.0000
  O   O2        1.0  0.22840058905612182  0.253950124547913  0.785513528970462  1.0000
  O   O3        1.0  0.8185965951945137  0.5415110870521858  0.307216225273919  1.0000
  O   O4        1.0  0.181402276819064  0.4584953759151134  0.6927786582900737  1.0000
  O   O5        1.0  0.19667691979797292  0.47810184674955997  0.9561603488968657  1.0000
  O   O6        1.0  0.8033259991085019  0.5219036355580612  0.04383947619936634  1.0000
  O   O7        1.0  0.39546048762213104  0.3347277789222076  0.0009381413527548873  1.0000
  O   O8        1.0  0.6045454327950354  0.6652767499415333  0.9990591036326252  1.0000
