data_image0
_chemical_formula_structural       Cd2H28C36N8Cl4O8
_chemical_formula_sum              "Cd2 H28 C36 N8 Cl4 O8"
_cell_length_a       7.892093284069046
_cell_length_b       10.573111622003436
_cell_length_c       12.044796050848449
_cell_angle_alpha    90.00003015932032
_cell_angle_beta     102.0644603491603
_cell_angle_gamma    89.99990844525723

_space_group_name_H-M_alt    "P 1"
_space_group_IT_number       1

loop_
  _space_group_symop_operation_xyz
  'x, y, z'

loop_
  _atom_site_type_symbol
  _atom_site_label
  _atom_site_symmetry_multiplicity
  _atom_site_fract_x
  _atom_site_fract_y
  _atom_site_fract_z
  _atom_site_occupancy
  Cd  Cd1       1.0  0.74999830286346  0.6208321530299373  0.7500004594016756  1.0000
  Cd  Cd2       1.0  0.24999839035895374  0.37916834332542504  0.24999949674521094  1.0000
  H   H1        1.0  0.2189523555446299  0.37868809008539733  0.8922675047344625  1.0000
  H   H2        1.0  0.28104695983522987  0.3786889137047139  0.6077339074221725  1.0000
  H   H3        1.0  0.781046930159668  0.6213114604736633  0.10773446624126137  1.0000
  H   H4        1.0  0.7189536210448039  0.6213125284441077  0.3922674103546412  1.0000
  H   H5        1.0  0.3940134733493748  0.19999322126142977  0.9894975636006292  1.0000
  H   H6        1.0  0.10599010114098917  0.19999324934184412  0.5105026876798319  1.0000
  H   H7        1.0  0.6059896989498126  0.8000072750905929  0.010504108391486976  1.0000
  H   H8        1.0  0.8940130700954537  0.800007247009674  0.48949732369874954  1.0000
  H   H9        1.0  0.7119948315447713  0.18838622905258967  0.9824826843022119  1.0000
  H   H10       1.0  0.7880091539139896  0.18838415296848862  0.5175165526810942  1.0000
  H   H11       1.0  0.2880070429178899  0.8116161588898904  0.017515489355311303  1.0000
  H   H12       1.0  0.2119953130345067  0.8116135059962134  0.4824836358049253  1.0000
  H   H13       1.0  0.836552771851181  0.35794453479465455  0.8805448617939501  1.0000
  H   H14       1.0  0.6634469730438396  0.3579388849217082  0.6194547041434146  1.0000
  H   H15       1.0  0.1634465122530884  0.642060690535864  0.11945461826196888  1.0000
  H   H16       1.0  0.3365536073117353  0.6420559366592896  0.38054578332604894  1.0000
  H   H17       1.0  0.4314982675749945  0.12273767064275631  0.5712707619292984  1.0000
  H   H18       1.0  0.0685015815966707  0.1227398854252328  0.9287297746795599  1.0000
  H   H19       1.0  0.5684997208281004  0.8772599883255339  0.42872854101826613  1.0000
  H   H20       1.0  0.9314989982186571  0.8772634483138333  0.07126988248388239  1.0000
  H   H21       1.0  0.6250244999338362  0.053997173703130806  0.6569772414819608  1.0000
  H   H22       1.0  0.8749745837668498  0.05399991795981409  0.8430220936235029  1.0000
  H   H23       1.0  0.37497478364696946  0.9460004852642003  0.343021408266523  1.0000
  H   H24       1.0  0.12502469981000525  0.9460015241889863  0.15697655612531483  1.0000
  H   H25       1.0  0.489674642630291  0.1549041814614398  0.7215091295887602  1.0000
  H   H26       1.0  0.010325138329506  0.15490448396322173  0.7784897520920564  1.0000
  H   H27       1.0  0.5103246409485392  0.8450953690966259  0.2784895201598942  1.0000
  H   H28       1.0  0.9896741452493243  0.8450950665948371  0.22150889765659085  1.0000
  C   C1        1.0  0.3413791836122185  0.7901685492574159  0.7646291252393168  1.0000
  C   C2        1.0  0.15861538403639486  0.7901686493267662  0.7353693374060909  1.0000
  C   C3        1.0  0.6586188047898885  0.2098300555062451  0.23537017770832588  1.0000
  C   C4        1.0  0.8413864930880378  0.2098290096401172  0.26463298778484295  1.0000
  C   C5        1.0  0.3381896977167216  0.5723386409790054  0.7788683295157454  1.0000
  C   C6        1.0  0.16181050910816447  0.5723368371291571  0.721133293977516  1.0000
  C   C7        1.0  0.6618121788733828  0.42766185537373513  0.22113316536867691  1.0000
  C   C8        1.0  0.8381913674839153  0.4276617676328414  0.27886820090674286  1.0000
  C   C9        1.0  0.43412535286143566  0.4594598136600114  0.8303549639015485  1.0000
  C   C10       1.0  0.06587379283750748  0.4594590390255531  0.6696448019184087  1.0000
  C   C11       1.0  0.5658726355386887  0.5405406826943916  0.16964433904626464  1.0000
  C   C12       1.0  0.9341254912726881  0.540540511532754  0.33035467813701297  1.0000
  C   C13       1.0  0.3541946491307541  0.3686720348899613  0.886548004905414  1.0000
  C   C14       1.0  0.14580339145045673  0.36867207720610645  0.6134532283730535  1.0000
  C   C15       1.0  0.6458059317512548  0.6313275156681258  0.11345331287123626  1.0000
  C   C16       1.0  0.85419459748104  0.631328419148538  0.38654690488152693  1.0000
  C   C17       1.0  0.45279120897586  0.2688953103250711  0.9417159712753782  1.0000
  C   C18       1.0  0.0472109270273791  0.26889543702319674  0.5582857756898958  1.0000
  C   C19       1.0  0.5472093719051614  0.7311051860283869  0.05828534650135713  1.0000
  C   C20       1.0  0.9527935404495192  0.7311050593278523  0.4417152431031467  1.0000
  C   C21       1.0  0.6283854417711722  0.262939531510618  0.9389807084305059  1.0000
  C   C22       1.0  0.8716157971646368  0.26293549031569796  0.5610190178218559  1.0000
  C   C23       1.0  0.3716164337522513  0.7370647480230943  0.06101912584071558  1.0000
  C   C24       1.0  0.12838607836668098  0.7370612228550756  0.4389808164486978  1.0000
  C   C25       1.0  0.6988264862375073  0.357488743777779  0.8816748591253825  1.0000
  C   C26       1.0  0.8011732606689816  0.35748576659020165  0.6183263673451902  1.0000
  C   C27       1.0  0.3011753898192566  0.6425136441654473  0.11832580545244299  1.0000
  C   C28       1.0  0.19882602397554894  0.6425109465822558  0.3816739430167431  1.0000
  C   C29       1.0  0.45062496329749274  0.9064474041497091  0.7645867900486889  1.0000
  C   C30       1.0  0.049371953023275184  0.9064485801442644  0.7354120473653507  1.0000
  C   C31       1.0  0.5493743208136903  0.0935512006132342  0.23541269000664755  1.0000
  C   C32       1.0  0.9506312208719904  0.0935500246177625  0.2645921155468968  1.0000
  C   C33       1.0  0.49142763259222716  0.08471763191943181  0.6546633169257275  1.0000
  C   C34       1.0  0.008572295418062495  0.08472081392766029  0.8453363826561285  1.0000
  C   C35       1.0  0.5085703558098799  0.9152809728442292  0.34533598602192217  1.0000
  C   C36       1.0  0.9914295801073364  0.9152815740153241  0.15466345161492967  1.0000
  N   N1        1.0  0.4251544790450124  0.6816243021275384  0.7919882816862366  1.0000
  N   N2        1.0  0.07484161197336896  0.6816244855835478  0.7080119994944096  1.0000
  N   N3        1.0  0.5748448055965553  0.3183752484310247  0.20801202867595237  1.0000
  N   N4        1.0  0.9251576737309289  0.31837506497550555  0.29198997148131406  1.0000
  N   N5        1.0  0.6044545737931981  0.45342932028192706  0.8280714982385927  1.0000
  N   N6        1.0  0.8955436765844592  0.45342815439571643  0.6719287377758858  1.0000
  N   N7        1.0  0.39554471031404137  0.5465730676624929  0.17192798181707758  1.0000
  N   N8        1.0  0.10445560752574319  0.546571396162591  0.32807074227953587  1.0000
  Cl  Cl1       1.0  0.9224007365201173  0.696249827068783  0.9304584608892198  1.0000
  Cl  Cl2       1.0  0.5775995983598959  0.6962499243161275  0.5695421722610801  1.0000
  Cl  Cl3       1.0  0.07759984383052648  0.3037497234890552  0.06954202658066319  1.0000
  Cl  Cl4       1.0  0.42239968628068425  0.3037505720377993  0.43045813810118716  1.0000
  O   O1        1.0  0.5794196991523388  0.9313142009092135  0.8368266894671165  1.0000
  O   O2        1.0  0.9205736632687687  0.9313167831473095  0.6631681178537077  1.0000
  O   O3        1.0  0.4205756951747687  0.0686844038546397  0.163168107731309  1.0000
  O   O4        1.0  0.07942691548876007  0.06868182161441891  0.33682987869578795  1.0000
  O   O5        1.0  0.38720821153265905  0.9761269962576833  0.671681290626253  1.0000
  O   O6        1.0  0.1127872625525086  0.9761281523656818  0.8283157213829424  1.0000
  O   O7        1.0  0.6127871838561983  0.023872554302037895  0.3283151671857921  1.0000
  O   O8        1.0  0.8872133177971476  0.0238723439875272  0.1716847660870187  1.0000
