data_image0
_chemical_formula_structural       Mg2H8C8O12
_chemical_formula_sum              "Mg2 H8 C8 O12"
_cell_length_a       4.954856113728962
_cell_length_b       7.809783478416942
_cell_length_c       7.809740076192605
_cell_angle_alpha    73.02523761480056
_cell_angle_beta     71.51345942708626
_cell_angle_gamma    71.512991581643

_space_group_name_H-M_alt    "P 1"
_space_group_IT_number       1

loop_
  _space_group_symop_operation_xyz
  'x, y, z'

loop_
  _atom_site_type_symbol
  _atom_site_label
  _atom_site_symmetry_multiplicity
  _atom_site_fract_x
  _atom_site_fract_y
  _atom_site_fract_z
  _atom_site_occupancy
  Mg  Mg1       1.0  0.2879588998137524  0.7120056528867309  0.7120308614237842  1.0000
  Mg  Mg2       1.0  0.7120476527170186  0.2879709318429065  0.2879929542566231  1.0000
  H   H1        1.0  0.6013678171449899  0.9380800083005454  0.21437126431224127  1.0000
  H   H2        1.0  0.2461949818718453  0.21425917112527768  0.9378780201049891  1.0000
  H   H3        1.0  0.3986348445094096  0.7856335767722343  0.0619164031932016  1.0000
  H   H4        1.0  0.7537874068677443  0.062124765058193504  0.7857444921076321  1.0000
  H   H5        1.0  0.7593173250760475  0.7774766200651227  0.46188030823129367  1.0000
  H   H6        1.0  0.001358225108887814  0.4618154522649717  0.7774643604389196  1.0000
  H   H7        1.0  0.24068300475786245  0.5381239485092522  0.22252159753563916  1.0000
  H   H8        1.0  0.9986396695014081  0.22253585734181067  0.538186891095286  1.0000
  C   C1        1.0  0.16258297719034043  0.9206819690061819  0.36382934355422947  1.0000
  C   C2        1.0  0.5527452420354068  0.36388038862861544  0.9207451592776223  1.0000
  C   C3        1.0  0.8374172124694612  0.6361609100879875  0.07933084801900488  1.0000
  C   C4        1.0  0.44724140855514366  0.07924679207162194  0.6361188641883969  1.0000
  C   C5        1.0  0.48684991187123966  0.8299577266883417  0.2970570511915938  1.0000
  C   C6        1.0  0.38607485319055734  0.29707447049861446  0.8298933627535873  1.0000
  C   C7        1.0  0.5131596597384985  0.7029409230197174  0.17004221283817603  1.0000
  C   C8        1.0  0.6139181747543108  0.1701071920680945  0.7029243625982816  1.0000
  O   O1        1.0  0.026610198086885636  0.8475084745012964  0.5247089346985021  1.0000
  O   O2        1.0  0.6010656632009559  0.5247451810634799  0.8475661410408435  1.0000
  O   O3        1.0  0.9733912670937531  0.47529231581135883  0.15249101711855673  1.0000
  O   O4        1.0  0.3989312130720252  0.15243998429998126  0.47524438689065107  1.0000
  O   O5        1.0  0.04512054144153412  0.05453946000822187  0.2535447078896382  1.0000
  O   O6        1.0  0.6463900256546469  0.25363098909417653  0.0547321478838612  1.0000
  O   O7        1.0  0.9548947718180478  0.7464597541248423  0.9454537352368106  1.0000
  O   O8        1.0  0.35361865140671966  0.9452780490616702  0.7463527309297787  1.0000
  O   O9        1.0  0.6068201289437956  0.7255405098210941  0.45292328782304025  1.0000
  O   O10       1.0  0.2146718514529201  0.45292215902591687  0.7255142113500312  1.0000
  O   O11       1.0  0.3931869944976898  0.5470782989865909  0.2744578956903254  1.0000
  O   O12       1.0  0.7853257275840949  0.27449100011268257  0.5470807856620964  1.0000
