data_image0
_chemical_formula_structural       Ag2H24C16N24O4F6
_chemical_formula_sum              "Ag2 H24 C16 N24 O4 F6"
_cell_length_a       8.76259941876424
_cell_length_b       8.809117466477103
_cell_length_c       11.666197826016099
_cell_angle_alpha    109.75416723391531
_cell_angle_beta     102.05346709056941
_cell_angle_gamma    95.60327005165733

_space_group_name_H-M_alt    "P 1"
_space_group_IT_number       1

loop_
  _space_group_symop_operation_xyz
  'x, y, z'

loop_
  _atom_site_type_symbol
  _atom_site_label
  _atom_site_symmetry_multiplicity
  _atom_site_fract_x
  _atom_site_fract_y
  _atom_site_fract_z
  _atom_site_occupancy
  Ag  Ag1       1.0  0.994133145897109  0.021530815345258206  0.7585624336410816  1.0000
  Ag  Ag2       1.0  0.005867120716757828  0.9784713990106297  0.2414389562442237  1.0000
  H   H1        1.0  0.1119938203118167  0.7813011342744359  0.00598225687824786  1.0000
  H   H2        1.0  0.8880050622871636  0.2186998761406116  0.9940177388176962  1.0000
  H   H3        1.0  0.11190684610780721  0.8227630042646865  0.8684367304589812  1.0000
  H   H4        1.0  0.8880929672590909  0.1772367624712601  0.1315630982281846  1.0000
  H   H5        1.0  0.47535061903921877  0.8377208328912856  0.04538078002801167  1.0000
  H   H6        1.0  0.5246487295626991  0.1622826309281393  0.9546199232186651  1.0000
  H   H7        1.0  0.6478261090155473  0.8081256612594389  0.13581156940751535  1.0000
  H   H8        1.0  0.3521727608274787  0.1918753433711657  0.864189279935843  1.0000
  H   H9        1.0  0.4902378042996247  0.8874799168100579  0.6615078990352499  1.0000
  H   H10       1.0  0.5097610910553243  0.1125210993894328  0.33849124301328704  1.0000
  H   H11       1.0  0.6711560378140431  0.883084443477635  0.616572929718181  1.0000
  H   H12       1.0  0.3288425990275101  0.11691533445078758  0.38342756584981424  1.0000
  H   H13       1.0  0.1889018190062473  0.8755729423035133  0.6091737428113149  1.0000
  H   H14       1.0  0.81110032189941  0.12442679047860848  0.39082645940901267  1.0000
  H   H15       1.0  0.21190168147371216  0.8713975750319419  0.46167937820121085  1.0000
  H   H16       1.0  0.7880992829066003  0.1286021689426491  0.5383214908999392  1.0000
  H   H17       1.0  0.1199728269484481  0.5027701357382098  0.468979350144977  1.0000
  H   H18       1.0  0.8800286161907563  0.4972320674252088  0.5310213728594916  1.0000
  H   H19       1.0  0.1480254938470651  0.3209715122976888  0.3598774314475079  1.0000
  H   H20       1.0  0.851974798278725  0.6790307136270785  0.6401222511429693  1.0000
  H   H21       1.0  0.15431844929181437  0.3526688787461865  0.9139670302544971  1.0000
  H   H22       1.0  0.8456813895870141  0.6473308995586463  0.08603109113784065  1.0000
  H   H23       1.0  0.14219175610201515  0.5318555332409785  0.8785129931717391  1.0000
  H   H24       1.0  0.8578083157782787  0.4681454717660429  0.1214854819959612  1.0000
  C   C1        1.0  0.7386968649844902  0.2712778206298196  0.7835998217278469  1.0000
  C   C2        1.0  0.2613040738838919  0.7287219117758852  0.21640275466813813  1.0000
  C   C3        1.0  0.6177358443853435  0.3667541071108075  0.7331642679982691  1.0000
  C   C4        1.0  0.38226466674800713  0.6332431892438422  0.2668350399047482  1.0000
  C   C5        1.0  0.8984292468370185  0.8161112440481659  0.908487862000321  1.0000
  C   C6        1.0  0.10156940276050358  0.18388853966469298  0.09151177992026048  1.0000
  C   C7        1.0  0.666361463258532  0.8232934311985575  0.9683724157326523  1.0000
  C   C8        1.0  0.3336390478748115  0.1767038651560995  0.03162689217035823  1.0000
  C   C9        1.0  0.6769734155960022  0.8642509681092181  0.7881542507528677  1.0000
  C   C10       1.0  0.3230240447202135  0.1357488210116671  0.2118469116959645  1.0000
  C   C11       1.0  0.18814843449525398  0.09220936470951809  0.5851550863579645  1.0000
  C   C12       1.0  0.811852555396982  0.9077903908339592  0.4148440754483643  1.0000
  C   C13       1.0  0.1591559424356888  0.31933477002084487  0.5369412309388011  1.0000
  C   C14       1.0  0.8408441039326746  0.6806662234172904  0.46305895152372034  1.0000
  C   C15       1.0  0.15319290113799872  0.3296746862727388  0.7325387771848496  1.0000
  C   C16       1.0  0.8468081015102056  0.6703250750551815  0.2674595309740651  1.0000
  N   N1        1.0  0.8365893508443206  0.859493285523513  0.809227744435212  1.0000
  N   N2        1.0  0.16340953175466671  0.1405077248915347  0.19077225126073216  1.0000
  N   N3        1.0  0.818275563719233  0.7946536601627372  0.989645571161425  1.0000
  N   N4        1.0  0.18172167635147926  0.2053449080403951  0.010354383864630303  1.0000
  N   N5        1.0  0.5898200374923518  0.8526717566148818  0.8674310288574246  1.0000
  N   N6        1.0  0.41017743557983266  0.1473280382904463  0.1325692799439935  1.0000
  N   N7        1.0  0.16349537395466743  0.16620652071610212  0.7008122153910392  1.0000
  N   N8        1.0  0.8365058361830721  0.8337944557451208  0.2991881538380667  1.0000
  N   N9        1.0  0.1879906727407104  0.16326968537671857  0.5000873844751581  1.0000
  N   N10       1.0  0.812010537397029  0.8367312910845045  0.4999129847539479  1.0000
  N   N11       1.0  0.14606696565289207  0.40904430228005134  0.6519372983579854  1.0000
  N   N12       1.0  0.8539330807154712  0.5909566911580909  0.34806288410454295  1.0000
  N   N13       1.0  0.04961071967505152  0.7921957762271319  0.9241922181966727  1.0000
  N   N14       1.0  0.950386545907584  0.20780280354488673  0.07580602953455441  1.0000
  N   N15       1.0  0.5889829128482091  0.8195418303906905  0.05510895152955428  1.0000
  N   N16       1.0  0.4110171207641926  0.18045915726300876  0.944892084580381  1.0000
  N   N17       1.0  0.6073885336464359  0.8822484132621183  0.6810992027008494  1.0000
  N   N18       1.0  0.39260918518316856  0.1177526141298415  0.3189006062285173  1.0000
  N   N19       1.0  0.21762285068776782  0.9371298156086922  0.5548870244181926  1.0000
  N   N20       1.0  0.7823783594499717  0.0628711608525379  0.4451133448109132  1.0000
  N   N21       1.0  0.14067826753645107  0.3868679969218149  0.4484127562447782  1.0000
  N   N22       1.0  0.85932295535725  0.6131329853238583  0.5515867593369208  1.0000
  N   N23       1.0  0.15108501214378123  0.4117362744479891  0.8512751097499346  1.0000
  N   N24       1.0  0.8489164309954236  0.5882659287154298  0.14872561325453404  1.0000
  O   O1        1.0  0.8168548075665426  0.20649180370021009  0.7065391752276751  1.0000
  O   O2        1.0  0.1831475918525031  0.7935091673529941  0.29345967347318697  1.0000
  O   O3        1.0  0.7454800607367104  0.27023898499579246  0.8916638848116631  1.0000
  O   O4        1.0  0.25452069615406  0.7297595438454961  0.10833492321930287  1.0000
  F   F1        1.0  0.523720107540079  0.26977918815992297  0.6162814327738886  1.0000
  F   F2        1.0  0.4762813343611754  0.7302168645156328  0.38371770812034356  1.0000
  F   F3        1.0  0.520695123961893  0.42237582029486026  0.808294120116173  1.0000
  F   F4        1.0  0.47930374464318254  0.5776190338478884  0.19170514711694864  1.0000
  F   F5        1.0  0.695652850299439  0.49956831790328937  0.7195113045876552  1.0000
  F   F6        1.0  0.3043455535406565  0.5004302333229376  0.2804888372049774  1.0000
