data_image0
_chemical_formula_structural       Dy4Ag4H32C56N8O32
_chemical_formula_sum              "Dy4 Ag4 H32 C56 N8 O32"
_cell_length_a       9.450784864
_cell_length_b       11.995209711905332
_cell_length_c       16.783
_cell_angle_alpha    96.04725822814366
_cell_angle_beta     90.0
_cell_angle_gamma    113.20033906068768

_space_group_name_H-M_alt    "P 1"
_space_group_IT_number       1

loop_
  _space_group_symop_operation_xyz
  'x, y, z'

loop_
  _atom_site_type_symbol
  _atom_site_label
  _atom_site_symmetry_multiplicity
  _atom_site_fract_x
  _atom_site_fract_y
  _atom_site_fract_z
  _atom_site_occupancy
  Dy  Dy1       1.0  0.30203099175405157  0.010189422976417  0.9322711177993739  1.0000
  Dy  Dy2       1.0  0.29184590132205557  0.9898257475770295  0.5677586248405007  1.0000
  Dy  Dy3       1.0  0.697966916038034  0.9898093130238408  0.06773176623261182  1.0000
  Dy  Dy4       1.0  0.708150636898246  0.0101702493310256  0.4322422654277887  1.0000
  Ag  Ag1       1.0  0.7212151187821618  0.6799622905598  0.915959289002835  1.0000
  Ag  Ag2       1.0  0.0411261194355674  0.3199259687217975  0.5839387504113915  1.0000
  Ag  Ag3       1.0  0.27878884755835287  0.3200400975633784  0.0840426783345549  1.0000
  Ag  Ag4       1.0  0.9588761658745496  0.6800709412169894  0.4160622086037691  1.0000
  H   H1        1.0  0.4037906939540933  0.8106452923552397  0.2200128846477654  1.0000
  H   H2        1.0  0.5929645236847064  0.1892548363258939  0.280030242004905  1.0000
  H   H3        1.0  0.5962131273211001  0.1893589218294167  0.7799874326602776  1.0000
  H   H4        1.0  0.40704081222759203  0.8107502908894944  0.7199689523679424  1.0000
  H   H5        1.0  0.025810762122020454  0.9100305136660367  0.16496677349159938  1.0000
  H   H6        1.0  0.1155378510803047  0.08979474649500932  0.3350176860663083  1.0000
  H   H7        1.0  0.9741839713305395  0.089968222334214  0.8350343230172965  1.0000
  H   H8        1.0  0.8844632310513134  0.9102039895052414  0.6649810270784683  1.0000
  H   H9        1.0  0.42886186380449937  0.5885350451148099  0.0479765218262926  1.0000
  H   H10       1.0  0.8402415139898806  0.4115330812211297  0.4519988157109864  1.0000
  H   H11       1.0  0.5711366455768356  0.411462777854716  0.9520209308895602  1.0000
  H   H12       1.0  0.159760336124279  0.5884693069020557  0.5480019599443509  1.0000
  H   H13       1.0  0.128193961737324  0.643101413821114  0.8784445209210219  1.0000
  H   H14       1.0  0.48495479910516076  0.3566416735739963  0.6214985967980695  1.0000
  H   H15       1.0  0.8718034895308335  0.3568964091484048  0.12155471931792047  1.0000
  H   H16       1.0  0.5150443331933943  0.643361627579921  0.37850165176310197  1.0000
  H   H17       1.0  0.8880007263929172  0.7987046764335943  0.2783135986126197  1.0000
  H   H18       1.0  0.08915236437596262  0.20120275649339453  0.2216979025993879  1.0000
  H   H19       1.0  0.1119979280537393  0.20129132047446063  0.721689079178759  1.0000
  H   H20       1.0  0.9108497758688401  0.7987959795068562  0.7783031939095082  1.0000
  H   H21       1.0  0.24849649863810444  0.6970670083053321  0.3277125446615798  1.0000
  H   H22       1.0  0.551308200785094  0.3029289886027229  0.172336608730113  1.0000
  H   H23       1.0  0.7515098953873719  0.3029381189100491  0.6722890330753869  1.0000
  H   H24       1.0  0.4486950189008496  0.6970761386126583  0.8276643731658239  1.0000
  H   H25       1.0  0.051085090075076785  0.2857749671976251  0.9472274391079267  1.0000
  H   H26       1.0  0.7650219292811611  0.7141215093605666  0.5528803592295048  1.0000
  H   H27       1.0  0.9489155355326132  0.7142228557718937  0.052770609448955993  1.0000
  H   H28       1.0  0.2349747753324323  0.2858790527011479  0.4471184914090074  1.0000
  H   H29       1.0  0.971627796841446  0.4135463139866289  0.863103152360047  1.0000
  H   H30       1.0  0.5578283049091509  0.5862186861460685  0.6369655502180221  1.0000
  H   H31       1.0  0.02837131412913866  0.586450595952158  0.1368948274499715  1.0000
  H   H32       1.0  0.442169457817613  0.41378187591565313  0.36303270457946013  1.0000
  C   C1        1.0  0.289404321629334  0.8090283149277084  0.2306371269146084  1.0000
  C   C2        1.0  0.48024823962948904  0.19096950804181742  0.2694336142478875  1.0000
  C   C3        1.0  0.7105970719608975  0.19097316016474514  0.7693635799938647  1.0000
  C   C4        1.0  0.5197570962828167  0.8090356191735708  0.7305661759659898  1.0000
  C   C5        1.0  0.2280675170419003  0.8718703941947866  0.1849827313195505  1.0000
  C   C6        1.0  0.3560627414439566  0.1281292548362032  0.3150929140649126  1.0000
  C   C7        1.0  0.7719364492986072  0.1281319939283989  0.8150180443357797  1.0000
  C   C8        1.0  0.643941058503266  0.8718685681333227  0.6849051344919701  1.0000
  C   C9        1.0  0.38786216245365773  0.7648960614341647  0.9757322203964234  1.0000
  C   C10       1.0  0.6233015145181326  0.23508897910510032  0.5242797617300566  1.0000
  C   C11       1.0  0.6121322595402886  0.2350999354738903  0.0242656906667236  1.0000
  C   C12       1.0  0.3766924722798564  0.7649124959873532  0.475725711906648  1.0000
  C   C13       1.0  0.3224956305133446  0.9451538929204872  0.12133599901124367  1.0000
  C   C14       1.0  0.3773906651381722  0.0547453227299073  0.3786403246992407  1.0000
  C   C15       1.0  0.6775019658201344  0.0548421039875677  0.8786619120518963  1.0000
  C   C16       1.0  0.6226087572910187  0.9452543263010824  0.621359648874467  1.0000
  C   C17       1.0  0.2905898414576881  0.6301902462306614  0.963229387496682  1.0000
  C   C18       1.0  0.6604281268661366  0.36975370792563217  0.5367526881744311  1.0000
  C   C19       1.0  0.7094078999411123  0.3698039246159297  0.03676779023169979  1.0000
  C   C20       1.0  0.3395752378851284  0.6302495932282852  0.46324875206880006  1.0000
  C   C21       1.0  0.9645605697141306  0.9302660137938404  0.9886479506828963  1.0000
  C   C22       1.0  0.0343285805335114  0.0697308961449465  0.5112886575010691  1.0000
  C   C23       1.0  0.0354364250300989  0.0697308961449465  0.0113536041732942  1.0000
  C   C24       1.0  0.965669160865289  0.9302632747016446  0.4887013701349545  1.0000
  C   C25       1.0  0.07957986764141371  0.8651039234350861  0.20042033760152828  1.0000
  C   C26       1.0  0.2143023860048956  0.1348044225226346  0.29962638697809746  1.0000
  C   C27       1.0  0.9204195547877774  0.1348957255958965  0.7995790401311422  1.0000
  C   C28       1.0  0.7856997542398999  0.8651943134776232  0.7003735178487389  1.0000
  C   C29       1.0  0.32782982427003293  0.5518695569529086  0.006731604702984806  1.0000
  C   C30       1.0  0.7759234489186753  0.4481629611844582  0.49327799385029886  1.0000
  C   C31       1.0  0.6721671704741965  0.4481273529858782  0.9932657792659967  1.0000
  C   C32       1.0  0.22408006089790433  0.5518385139079953  0.5067256922633163  1.0000
  C   C33       1.0  0.15946024688686578  0.5816179242842239  0.9112899325841326  1.0000
  C   C34       1.0  0.5777217906583587  0.4181826840470464  0.588697437536588  1.0000
  C   C35       1.0  0.8405335735178311  0.418378985654563  0.08870864306690858  1.0000
  C   C36       1.0  0.42227854481869537  0.5818187910454071  0.4113032693718779  1.0000
  C   C37       1.0  0.0016834033770436567  0.8023266693500304  0.26284598495645634  1.0000
  C   C38       1.0  0.1991988341073991  0.1975725463003641  0.2371845602877229  1.0000
  C   C39       1.0  0.9983185918024374  0.19767389271169122  0.7371546532051454  1.0000
  C   C40       1.0  0.800801334976363  0.8024243636384227  0.7628163987274377  1.0000
  C   C41       1.0  0.20357982055924143  0.746372493930089  0.29096621540425355  1.0000
  C   C42       1.0  0.4571011503722389  0.2536280681316256  0.20909758190648378  1.0000
  C   C43       1.0  0.7964235441920239  0.2536308072238285  0.7090352248389777  1.0000
  C   C44       1.0  0.5429000981526713  0.7463752330222917  0.7909032624957176  1.0000
  C   C45       1.0  0.1165931378695717  0.3838755542675898  0.9499425526078085  1.0000
  C   C46       1.0  0.7324628815811992  0.6160090528910871  0.5501113221687035  1.0000
  C   C47       1.0  0.8834047699225208  0.616123181732668  0.0500561605369683  1.0000
  C   C48       1.0  0.26753533766949994  0.3839924222013664  0.4498893847397625  1.0000
  C   C49       1.0  0.07332548156709612  0.4560643291448372  0.9036167175983891  1.0000
  C   C50       1.0  0.617041605612897  0.5437536267703464  0.5964249885644506  1.0000
  C   C51       1.0  0.9266713681118187  0.5439344068554135  0.0963837830694771  1.0000
  C   C52       1.0  0.3829576717509795  0.4562478483221  0.4035745266619628  1.0000
  C   C53       1.0  0.22063109163571676  0.9291238123472922  0.7451811463497009  1.0000
  C   C54       1.0  0.2913913223400257  0.0708301851470665  0.7548690155732984  1.0000
  C   C55       1.0  0.7793653015192703  0.0708740106222336  0.2548240522995329  1.0000
  C   C56       1.0  0.7086127677378329  0.9291639856995247  0.2451341205653819  1.0000
  N   N1        1.0  0.06335278425035541  0.7447016476893324  0.3083861394358607  1.0000
  N   N2        1.0  0.318516354373223  0.2552331761596349  0.1916619829618895  1.0000
  N   N3        1.0  0.9366516386140801  0.2553016534645849  0.6916158966484005  1.0000
  N   N4        1.0  0.6814850392170085  0.7447682989328187  0.8083393197876064  1.0000
  N   N5        1.0  0.24101432150852986  0.4311422422663256  0.0014643287080460012  1.0000
  N   N6        1.0  0.809705030745782  0.5688665370719832  0.49855897429345924  1.0000
  N   N7        1.0  0.7589846443967403  0.5688564937339251  0.9985331927546709  1.0000
  N   N8        1.0  0.19029544979658652  0.4311331119589994  0.5014427868033309  1.0000
  O   O1        1.0  0.03506497565140891  0.8846509983904697  0.940303627101592  1.0000
  O   O2        1.0  0.15046824211925977  0.1153751285317668  0.5596250516846197  1.0000
  O   O3        1.0  0.9649243221699422  0.115349563671252  0.05969820274206229  1.0000
  O   O4        1.0  0.8495069461162288  0.8846099120074983  0.4403636926416965  1.0000
  O   O5        1.0  0.5228741697020993  0.7980354249065585  0.006460192203178411  1.0000
  O   O6        1.0  0.7252770610064871  0.202124917533375  0.49349229671623357  1.0000
  O   O7        1.0  0.4771278254773819  0.2019651371551632  0.9935368709122442  1.0000
  O   O8        1.0  0.27472507923830847  0.7978738184668758  0.5065087997926625  1.0000
  O   O9        1.0  0.21076568029597106  0.8786578646613279  0.8085885938399144  1.0000
  O   O10       1.0  0.33200091604354026  0.12128061131056711  0.6914520576119257  1.0000
  O   O11       1.0  0.789229799811153  0.12133813224672711  0.1914182548386805  1.0000
  O   O12       1.0  0.6679978834684306  0.878713559536024  0.3085516743677843  1.0000
  O   O13       1.0  0.254896388567488  0.9844206056397198  0.0731170011877964  1.0000
  O   O14       1.0  0.2705544887994762  0.015201048667947201  0.4268402109980727  1.0000
  O   O15       1.0  0.7450971203785953  0.0155735652068714  0.9268837515867645  1.0000
  O   O16       1.0  0.7294646025841302  0.9848040785474339  0.5731607708978643  1.0000
  O   O17       1.0  0.3254918710880688  0.8336682753098259  0.9549889725402778  1.0000
  O   O18       1.0  0.49220662733769416  0.16616063697415484  0.5449933786409742  1.0000
  O   O19       1.0  0.6745076750784731  0.1663231564445624  0.0450068072654375  1.0000
  O   O20       1.0  0.5077994552291756  0.8338417511490306  0.4550044178092136  1.0000
  O   O21       1.0  0.1794968253746277  0.8757745136076097  0.6745318916377058  1.0000
  O   O22       1.0  0.3035283937489339  0.12420778783945251  0.8255019303662579  1.0000
  O   O23       1.0  0.8205103153054195  0.1242278745155758  0.3254730549048332  1.0000
  O   O24       1.0  0.6964725433173627  0.8757927742222621  0.1744969202722544  1.0000
  O   O25       1.0  0.4629670546973017  0.9605841123023353  0.12153375028506018  1.0000
  O   O26       1.0  0.502606006858656  0.0395835343834605  0.3783829423064802  1.0000
  O   O27       1.0  0.5370357084647138  0.0394201018823139  0.8784659711819457  1.0000
  O   O28       1.0  0.4974024820652048  0.9604152016167903  0.6216133874741772  1.0000
  O   O29       1.0  0.8389903269508139  0.8712376638970554  0.020334601150771875  1.0000
  O   O30       1.0  0.9679002465729667  0.1287291160275572  0.4794752076113724  1.0000
  O   O31       1.0  0.1610007756382856  0.1287601590724634  0.9796676182933127  1.0000
  O   O32       1.0  0.03208830459381326  0.8712741851263601  0.5205166991753813  1.0000
