data_image0
_chemical_formula_structural       Hg2H20C24Br4N8O4
_chemical_formula_sum              "Hg2 H20 C24 Br4 N8 O4"
_cell_length_a       5.018357326033162
_cell_length_b       11.44222015776323
_cell_length_c       13.691915868072778
_cell_angle_alpha    98.14131203024633
_cell_angle_beta     90.0501760127808
_cell_angle_gamma    89.9707071357006

_space_group_name_H-M_alt    "P 1"
_space_group_IT_number       1

loop_
  _space_group_symop_operation_xyz
  'x, y, z'

loop_
  _atom_site_type_symbol
  _atom_site_label
  _atom_site_symmetry_multiplicity
  _atom_site_fract_x
  _atom_site_fract_y
  _atom_site_fract_z
  _atom_site_occupancy
  Hg  Hg1       1.0  0.8842302305301144  0.4999991655029135  0.2500805150889249  1.0000
  Hg  Hg2       1.0  0.11579124027163347  0.5000464435397447  0.7499656108577426  1.0000
  H   H1        1.0  0.1429913907254772  0.9369062192835216  0.424063802778555  1.0000
  H   H2        1.0  0.14338808844346568  0.06305238294613248  0.07590163771158129  1.0000
  H   H3        1.0  0.8566732016051757  0.0631069491817868  0.5758592608372197  1.0000
  H   H4        1.0  0.8567848207152547  0.9369357382829192  0.9241207264349285  1.0000
  H   H5        1.0  0.44158701738370326  0.6008286774515951  0.08238498730587197  1.0000
  H   H6        1.0  0.4419340856000033  0.3992329141344512  0.4176021611977704  1.0000
  H   H7        1.0  0.5586275758297033  0.39923923913953974  0.9175694406877852  1.0000
  H   H8        1.0  0.5581550977112001  0.6007772608116682  0.5824083918133027  1.0000
  H   H9        1.0  0.0818264095614794  0.7514710294657048  0.084221618220738  1.0000
  H   H10       1.0  0.08263656434082378  0.24851606311729305  0.41568857691419936  1.0000
  H   H11       1.0  0.9183522417406348  0.2485853496912398  0.9156850524831057  1.0000
  H   H12       1.0  0.9174227097527917  0.7515048645006956  0.5843145505788742  1.0000
  H   H13       1.0  0.02157511987157079  0.9019810394883689  0.2355062639946864  1.0000
  H   H14       1.0  0.02257766719299069  0.0979295399567519  0.2644389765493784  1.0000
  H   H15       1.0  0.9782828408698873  0.09799932556126831  0.7644514510812428  1.0000
  H   H16       1.0  0.9776311522661626  0.9020264479019318  0.7355968796955779  1.0000
  H   H17       1.0  0.6852235810420025  0.7381504366120378  0.36465581312723566  1.0000
  H   H18       1.0  0.6853116635495766  0.26185578833050727  0.1354119136118683  1.0000
  H   H19       1.0  0.31460057037178757  0.2618687191446298  0.6353550117970244  1.0000
  H   H20       1.0  0.31479746743671905  0.7381366034953276  0.8646046812831258  1.0000
  C   C1        1.0  0.4143695810954995  0.6687281588041712  0.14589033002935983  1.0000
  C   C2        1.0  0.4148310054326599  0.3312991418004003  0.35411461544623535  1.0000
  C   C3        1.0  0.5857334531618861  0.33131956366069915  0.854075521277231  1.0000
  C   C4        1.0  0.5852422536252461  0.6687021258781272  0.6459029877066912  1.0000
  C   C5        1.0  0.21396929863688288  0.7534664760278954  0.1476032252375745  1.0000
  C   C6        1.0  0.21469776098577845  0.24651915920509285  0.35235782798181964  1.0000
  C   C7        1.0  0.7860838838618348  0.24656281954956685  0.8523355211756751  1.0000
  C   C8        1.0  0.7853934337259644  0.753481144641583  0.6476603210744827  1.0000
  C   C9        1.0  0.18230623364581078  0.8374572688652292  0.23103888747206006  1.0000
  C   C10       1.0  0.18315293542840286  0.16248206796797857  0.2689337607772018  1.0000
  C   C11       1.0  0.817589568763111  0.16253991168976975  0.7689133349423685  1.0000
  C   C12       1.0  0.8169821249965492  0.8375017923111299  0.7310943641573218  1.0000
  C   C13       1.0  0.3573347370191654  0.8351100450328277  0.31005608400741386  1.0000
  C   C14       1.0  0.35795413200449383  0.1648246730390639  0.18995498851234774  1.0000
  C   C15       1.0  0.6424594838728266  0.16487464802530377  0.6899186154398222  1.0000
  C   C16       1.0  0.6421988829411871  0.8351431621574577  0.8100795238412175  1.0000
  C   C17       1.0  0.5513940394240675  0.7464148376364009  0.30323746303692906  1.0000
  C   C18       1.0  0.5517030502859724  0.2535902031376267  0.19681230310601447  1.0000
  C   C19       1.0  0.4484799101320006  0.25360125005321527  0.6967610256176187  1.0000
  C   C20       1.0  0.4484040987924585  0.7463988864629697  0.8032095111542861  1.0000
  C   C21       1.0  0.5411217662516704  0.9629613650698089  0.4510948172767257  1.0000
  C   C22       1.0  0.5414844480549019  0.037045412202537896  0.04889304423572579  1.0000
  C   C23       1.0  0.45855281857654967  0.03708182649191374  0.5488561604496951  1.0000
  C   C24       1.0  0.4586864702990495  0.9629356778214838  0.9511279369404948  1.0000
  Br  Br1       1.0  0.06139866243937319  0.6037301253370302  0.4142857586618476  1.0000
  Br  Br2       1.0  0.06083183086199278  0.3962530059423344  0.0858988624648944  1.0000
  Br  Br3       1.0  0.9384356477005793  0.3962200010529386  0.5858164000386026  1.0000
  Br  Br4       1.0  0.9390084620444409  0.6036286001197837  0.9141817516766224  1.0000
  N   N1        1.0  0.5775479879415001  0.6651820110288753  0.22353415349972036  1.0000
  N   N2        1.0  0.5778112176704723  0.3348374414809214  0.27651570504365  1.0000
  N   N3        1.0  0.42244948760457374  0.3348457768972608  0.7764563780052498  1.0000
  N   N4        1.0  0.4222779978021264  0.665154203389676  0.7235073435350757  1.0000
  N   N5        1.0  0.33180185951303526  0.9145600911650646  0.39819912925778317  1.0000
  N   N6        1.0  0.33227299301528024  0.08539035771583058  0.1017914751456956  1.0000
  N   N7        1.0  0.6678966800455441  0.0854397085560592  0.6017616579936131  1.0000
  N   N8        1.0  0.667901920930035  0.9145848759478665  0.8982334900817079  1.0000
  O   O1        1.0  0.778440127028176  0.9519828768271666  0.42571290426806024  1.0000
  O   O2        1.0  0.7788972255919544  0.04800197504157921  0.07430877258704531  1.0000
  O   O3        1.0  0.2212484535409088  0.04803735238070319  0.5742577686494741  1.0000
  O   O4        1.0  0.22126973718739848  0.9519555613551846  0.9257215149405909  1.0000
