data_image0
_chemical_formula_structural       Zn2H34C56N10O16
_chemical_formula_sum              "Zn2 H34 C56 N10 O16"
_cell_length_a       9.035178651089264
_cell_length_b       10.566630722892645
_cell_length_c       14.621798122703849
_cell_angle_alpha    76.92222201870484
_cell_angle_beta     87.3816098723223
_cell_angle_gamma    68.90181828826492

_space_group_name_H-M_alt    "P 1"
_space_group_IT_number       1

loop_
  _space_group_symop_operation_xyz
  'x, y, z'

loop_
  _atom_site_type_symbol
  _atom_site_label
  _atom_site_symmetry_multiplicity
  _atom_site_fract_x
  _atom_site_fract_y
  _atom_site_fract_z
  _atom_site_occupancy
  Zn  Zn1       1.0  0.3626750805638609  0.966523381679863  0.04136093577042748  1.0000
  Zn  Zn2       1.0  0.6373241492608129  0.03347824142768731  0.9586374044419588  1.0000
  H   H1        1.0  0.028138464736734578  0.6584263209303954  0.12542946284069967  1.0000
  H   H2        1.0  0.9718539684447052  0.3415784867886912  0.8745692573053603  1.0000
  H   H3        1.0  0.0737419738483354  0.3837462719696916  0.39784428256945154  1.0000
  H   H4        1.0  0.9262624898666943  0.616253175687312  0.6021515068477613  1.0000
  H   H5        1.0  0.6138942809600891  0.6839633876778703  0.2844885518965654  1.0000
  H   H6        1.0  0.38610274591935945  0.31602998319494446  0.7155126932377983  1.0000
  H   H7        1.0  0.6833160630719063  0.260960329161378  0.188289608469141  1.0000
  H   H8        1.0  0.316678694423693  0.7390362845673125  0.8117166236330036  1.0000
  H   H9        1.0  0.6122402677482413  0.3918190341361978  0.314607597219002  1.0000
  H   H10       1.0  0.3877540616842338  0.6081786067636512  0.6853977860771182  1.0000
  H   H11       1.0  0.3297741332769418  0.49893011957889377  0.3524162656778033  1.0000
  H   H12       1.0  0.6702192250285819  0.5010727165759832  0.6475882392070602  1.0000
  H   H13       1.0  0.011593260169000504  0.09323635984065957  0.05061939682578751  1.0000
  H   H14       1.0  0.9884098017880806  0.9067642901262543  0.9493837583590405  1.0000
  H   H15       1.0  0.8035966654488363  0.06708569137559549  0.1629510675974259  1.0000
  H   H16       1.0  0.19640083805582986  0.9329150065039682  0.8370522891879733  1.0000
  H   H17       1.0  0.17386804991593852  0.7330159844876292  0.34359296286949365  1.0000
  H   H18       1.0  0.8261306227817259  0.26698149391493325  0.6564061284560341  1.0000
  H   H19       1.0  0.36349359398198533  0.7642958630984537  0.21854161650005474  1.0000
  H   H20       1.0  0.6365077416594077  0.23570058276424527  0.7814589241790629  1.0000
  H   H21       1.0  0.3974155403657065  0.075363930334106  0.26860780728386413  1.0000
  H   H22       1.0  0.6025852062133051  0.9246366284270523  0.731389979038845  1.0000
  H   H23       1.0  0.1070896911768529  0.1438065113303253  0.29148448998715537  1.0000
  H   H24       1.0  0.8929113224660199  0.8561961059869743  0.7085122395911867  1.0000
  H   H25       1.0  0.17550497332906898  0.8758125116393957  0.5529435124510584  1.0000
  H   H26       1.0  0.8244921481153469  0.12418598972050886  0.4470540892007692  1.0000
  H   H27       1.0  0.47262541149569864  0.8002845952151034  0.5440503198045903  1.0000
  H   H28       1.0  0.5273714083859389  0.19971180619960194  0.45594629502821965  1.0000
  H   H29       1.0  0.9842965362618087  0.7405681761419913  0.45432923586530904  1.0000
  H   H30       1.0  0.015702426498997103  0.25943138840941765  0.5456701610914437  1.0000
  H   H31       1.0  0.07873506441013942  0.3798486928659485  0.9927960437968296  1.0000
  H   H32       1.0  0.9212616634700697  0.6201508770541719  0.00720275261235772  1.0000
  H   H33       1.0  0.5872630618666789  0.6590512976452914  0.42113964039614876  1.0000
  H   H34       1.0  0.41273962696624267  0.34093887060581807  0.5788599027490663  1.0000
  C   C1        1.0  0.7063782990007894  0.7993583009673343  0.12251178291805334  1.0000
  C   C2        1.0  0.29361270942342793  0.20064768146896478  0.8774929406200374  1.0000
  C   C3        1.0  0.8102739027820225  0.6820533260526103  0.1980193272744516  1.0000
  C   C4        1.0  0.18973328393847316  0.31795345703878297  0.8019798555291615  1.0000
  C   C5        1.0  0.9735202687253093  0.6196478219195283  0.18841217535912602  1.0000
  C   C6        1.0  0.02648118448032479  0.38035378202296494  0.8115860842130403  1.0000
  C   C7        1.0  0.06859750126386657  0.5094944787475553  0.25887773638117306  1.0000
  C   C8        1.0  0.931401694061897  0.49050710297094463  0.7411185602678358  1.0000
  C   C9        1.0  0.999940509810486  0.4679379976650963  0.34236070813349784  1.0000
  C   C10       1.0  6.327027718812869e-05  0.5320604324032772  0.6576359704098493  1.0000
  C   C11       1.0  0.8364330560462958  0.5319094138313075  0.3536589755965097  1.0000
  C   C12       1.0  0.16357239029532883  0.4680848523670206  0.6463383734197522  1.0000
  C   C13       1.0  0.765939602187899  0.4851558600883195  0.44285812328489277  1.0000
  C   C14       1.0  0.2340760908647823  0.5148353307143978  0.5571455367152967  1.0000
  C   C15       1.0  0.7420822208675304  0.6357328143789258  0.2802919926866069  1.0000
  C   C16       1.0  0.2579174485199117  0.3642677953538183  0.7197078775195963  1.0000
  C   C17       1.0  0.23894820021530452  0.436347724140134  0.24291670548566918  1.0000
  C   C18       1.0  0.7610499179188963  0.563653908549945  0.7570816750468338  1.0000
  C   C19       1.0  0.2804672965621152  0.35906142013714504  0.17296182125230794  1.0000
  C   C20       1.0  0.7195333120169138  0.6409422519440254  0.8270354218956015  1.0000
  C   C21       1.0  0.1522022401296752  0.3467016646090286  0.11813096156470952  1.0000
  C   C22       1.0  0.8477979518858662  0.6533030484396459  0.8818661139649749  1.0000
  C   C23       1.0  0.44110464402797334  0.2921521172929075  0.1549927084041727  1.0000
  C   C24       1.0  0.5588976998028343  0.7078474736963257  0.8450092923434129  1.0000
  C   C25       1.0  0.48279124252096045  0.18789928581195878  0.0939931703079893  1.0000
  C   C26       1.0  0.5171988727145446  0.8121004105850957  0.9060092739608409  1.0000
  C   C27       1.0  0.5593651216474883  0.30915142759644704  0.20383125321335882  1.0000
  C   C28       1.0  0.440629799410921  0.6908503993974477  0.796175422533004  1.0000
  C   C29       1.0  0.5187689563047115  0.38321660893971193  0.2746558782071845  1.0000
  C   C30       1.0  0.48122790957115297  0.6167831265366315  0.7253510924555188  1.0000
  C   C31       1.0  0.36020487079068164  0.4439886901431009  0.2955238696247591  1.0000
  C   C32       1.0  0.6397915325231408  0.5560120311153439  0.7044802086685422  1.0000
  C   C33       1.0  0.0417252454476014  0.013932704636239595  0.1159499094512597  1.0000
  C   C34       1.0  0.9582737633117587  0.9860669151005793  0.8840522122566626  1.0000
  C   C35       1.0  0.9270295564384411  0.001171774265436901  0.1798350349293472  1.0000
  C   C36       1.0  0.07296692737717336  0.9988257646912403  0.8201661805997916  1.0000
  C   C37       1.0  0.9716109840106384  0.9008223837407598  0.26437841618819397  1.0000
  C   C38       1.0  0.028387005059670404  0.0991740770731724  0.735621564263468  1.0000
  C   C39       1.0  0.13173848759399936  0.8132152578697072  0.2793577092121496  1.0000
  C   C40       1.0  0.8682601966033018  0.1867822343292147  0.7206420633011704  1.0000
  C   C41       1.0  0.23840286271204295  0.8303490645766656  0.21086206390337742  1.0000
  C   C42       1.0  0.7615965281118948  0.16964947280358433  0.7891381818593928  1.0000
  C   C43       1.0  0.8503225143938168  0.8867776906378352  0.33085501233231446  1.0000
  C   C44       1.0  0.14967618130312133  0.11321981535743218  0.6691454413687978  1.0000
  C   C45       1.0  0.6303321345615843  0.895564741710778  0.3926466708511356  1.0000
  C   C46       1.0  0.369666549635717  0.10443275048814371  0.6073531016621844  1.0000
  C   C47       1.0  0.4593075881203389  0.9327120918128885  0.4046614322663232  1.0000
  C   C48       1.0  0.5406869163789028  0.0672874972722965  0.5953374447830841  1.0000
  C   C49       1.0  0.3532504681432727  0.0305080264823872  0.3333971991536657  1.0000
  C   C50       1.0  0.646749571809103  0.9694914870974427  0.666600113919593  1.0000
  C   C51       1.0  0.19092175220244914  0.06697165016199587  0.34628460334678834  1.0000
  C   C52       1.0  0.8090781727492241  0.9330310043305445  0.6537135289272559  1.0000
  C   C53       1.0  0.23064670164185916  0.9170635507962506  0.49104143233167014  1.0000
  C   C54       1.0  0.7693484864847447  0.082937055877558  0.5089565555916096  1.0000
  C   C55       1.0  0.3954581367452193  0.874859992816887  0.4857359847095071  1.0000
  C   C56       1.0  0.6045364827547246  0.1251364553555874  0.5142620731391148  1.0000
  N   N1        1.0  0.19532735972010323  0.9299676966581744  0.1306697709316325  1.0000
  N   N2        1.0  0.8046705143494961  0.07003190506846829  0.8693310287208221  1.0000
  N   N3        1.0  0.693518315394293  0.9487583386282593  0.3133795219663044  1.0000
  N   N4        1.0  0.3064803803026522  0.0512391673670081  0.686620931734808  1.0000
  N   N5        1.0  0.8778200829514871  0.8011996307388073  0.41785711515090906  1.0000
  N   N6        1.0  0.12218014099942562  0.19879682470642016  0.5821434658483184  1.0000
  N   N7        1.0  0.7405752927868929  0.8040580795633899  0.45839299945622264  1.0000
  N   N8        1.0  0.259424514600525  0.1959394168493489  0.5416074139247797  1.0000
  N   N9        1.0  0.1285646360826149  0.011664889550644398  0.4231790067666097  1.0000
  N   N10       1.0  0.8714337376158098  0.988338787899231  0.5768176358337342  1.0000
  O   O1        1.0  0.5585697448165164  0.8223982388717487  0.12544997611915681  1.0000
  O   O2        1.0  0.4414389471586658  0.17760746607690686  0.8745479716069796  1.0000
  O   O3        1.0  0.7749626432308502  0.8654686457787193  0.06268454959662516  1.0000
  O   O4        1.0  0.22505028850412856  0.1345433302579337  0.9373162376262272  1.0000
  O   O5        1.0  0.046710067502665764  0.3054185065321774  0.15107892169148582  1.0000
  O   O6        1.0  0.9532868380035282  0.6945945894419977  0.8489195376435463  1.0000
  O   O7        1.0  0.16072760859689336  0.39689446083846747  0.024663022175943208  1.0000
  O   O8        1.0  0.8392728594186065  0.6031040255701967  0.975335139703333  1.0000
  O   O9        1.0  0.3898529559857025  0.12050297569959412  0.09955825823895743  1.0000
  O   O10       1.0  0.6101521683530818  0.8795007408295632  0.9004429107552596  1.0000
  O   O11       1.0  0.6061579413689273  0.17024266883029776  0.045490914749834105  1.0000
  O   O12       1.0  0.39384910478803203  0.829758928588596  0.9545091867851454  1.0000
  O   O13       1.0  0.832549856306464  0.37571203625224564  0.5006743105645698  1.0000
  O   O14       1.0  0.1674692663826391  0.6242842562899752  0.49932558499273944  1.0000
  O   O15       1.0  0.6189526018506726  0.5649459427073678  0.4611632119659248  1.0000
  O   O16       1.0  0.38106488651985176  0.43504625610145087  0.5388395185880057  1.0000
