data_image0
_chemical_formula_structural       Rb4H8C24N12O32
_chemical_formula_sum              "Rb4 H8 C24 N12 O32"
_cell_length_a       4.546695172489161
_cell_length_b       10.966398681001055
_cell_length_c       19.644270929808474
_cell_angle_alpha    89.99996976380054
_cell_angle_beta     91.26111098575788
_cell_angle_gamma    89.99996037281426

_space_group_name_H-M_alt    "P 1"
_space_group_IT_number       1

loop_
  _space_group_symop_operation_xyz
  'x, y, z'

loop_
  _atom_site_type_symbol
  _atom_site_label
  _atom_site_symmetry_multiplicity
  _atom_site_fract_x
  _atom_site_fract_y
  _atom_site_fract_z
  _atom_site_occupancy
  Rb  Rb1       1.0  0.9148450143480459  0.8599521267058066  0.1328280519519538  1.0000
  Rb  Rb2       1.0  0.5851552934241298  0.3599529147893178  0.3671723558320963  1.0000
  Rb  Rb3       1.0  0.0851555513733402  0.140047376047896  0.867172001701519  1.0000
  Rb  Rb4       1.0  0.4148430723698909  0.6400484117174728  0.6328276853540302  1.0000
  H   H1        1.0  0.09748604902406299  0.8821973032684837  0.48179691232699884  1.0000
  H   H2        1.0  0.4025168893862486  0.3821974189497226  0.018202763071187195  1.0000
  H   H3        1.0  0.902516716621612  0.1178040232376674  0.5182031537932659  1.0000
  H   H4        1.0  0.5974814764085465  0.617802995680684  0.9817972781150743  1.0000
  H   H5        1.0  0.6750658982723862  0.9623174980958776  0.3068272244207506  1.0000
  H   H6        1.0  0.8249364361201685  0.46231838214640675  0.1931731648643122  1.0000
  H   H7        1.0  0.32493466744900706  0.03768200465781751  0.6931728292327222  1.0000
  H   H8        1.0  0.1750663186302361  0.5376811206064928  0.8068279193061443  1.0000
  C   C1        1.0  0.4279618064395621  0.8308933391992498  0.3284229827136613  1.0000
  C   C2        1.0  0.07204121882880801  0.3308934045264493  0.1715767082042419  1.0000
  C   C3        1.0  0.5720409701036997  0.1691070754309933  0.671576065356831  1.0000
  C   C4        1.0  0.9279593414434048  0.6691070101033958  0.8284238544740461  1.0000
  C   C5        1.0  0.3169229132873781  0.7133132840323596  0.3162773678760402  1.0000
  C   C6        1.0  0.18307590029805712  0.2133114821822771  0.1837233517264778  1.0000
  C   C7        1.0  0.6830732525839096  0.2866843949692067  0.6837226608435643  1.0000
  C   C8        1.0  0.8169246599780139  0.7866843730656399  0.8162772109524995  1.0000
  C   C9        1.0  0.13047152500428894  0.6466706266463191  0.3632180970961585  1.0000
  C   C10       1.0  0.36952740685455154  0.1466706394407851  0.136782133640871  1.0000
  C   C11       1.0  0.8695312351937474  0.3533297879832062  0.6367824780492056  1.0000
  C   C12       1.0  0.6304709589410109  0.8533288633132369  0.8632179075455255  1.0000
  C   C13       1.0  0.0541376456177574  0.7186513954596663  0.4232893301412872  1.0000
  C   C14       1.0  0.44586116982545587  0.2186514432390751  0.0767103697962384  1.0000
  C   C15       1.0  0.9458607201770305  0.2813490191707402  0.5767107110449743  1.0000
  C   C16       1.0  0.554134996044283  0.781348059515274  0.923289658923096  1.0000
  C   C17       1.0  0.1569085759760043  0.834611047470041  0.4354481589182271  1.0000
  C   C18       1.0  0.34309443755059726  0.3346102244329643  0.06455203990014269  1.0000
  C   C19       1.0  0.8430941896704383  0.16538936715972596  0.5645519072021798  1.0000
  C   C20       1.0  0.6569061281707889  0.6653892783207382  0.9354480137533301  1.0000
  C   C21       1.0  0.3377706929158535  0.8928589714996916  0.38881835087084227  1.0000
  C   C22       1.0  0.1622278166949513  0.3928599800123962  0.1111823144177677  1.0000
  C   C23       1.0  0.6622298673571337  0.1071405312537692  0.6111822118075807  1.0000
  C   C24       1.0  0.8377683437256067  0.6071404346180885  0.8888182233263818  1.0000
  N   N1        1.0  0.3929881159997422  0.6537267401600886  0.2539693462586783  1.0000
  N   N2        1.0  0.1070108093622508  0.1537258130053161  0.2460303733190301  1.0000
  N   N3        1.0  0.6070102552426846  0.34627458634695063  0.746030185902498  1.0000
  N   N4        1.0  0.8929875564325443  0.8462746016250903  0.7539696678672314  1.0000
  N   N5        1.0  0.8769725367546927  0.6635939802886668  0.47492957674342057  1.0000
  N   N6        1.0  0.623025908977219  0.16359325791736978  0.0250703689481711  1.0000
  N   N7        1.0  0.12302583448773421  0.3364073462183654  0.5250699554177558  1.0000
  N   N8        1.0  0.37697025689251973  0.8364062448369722  0.9749296597711633  1.0000
  N   N9        1.0  0.43126328086171384  0.013420743744127597  0.4029706400660871  1.0000
  N   N10       1.0  0.0687402873392529  0.5134200890634658  0.0970286378640424  1.0000
  N   N11       1.0  0.5687438900847895  0.9865796708852343  0.5970289419635079  1.0000
  N   N12       1.0  0.9312580839047228  0.4865794136907978  0.9029708942974038  1.0000
  O   O1        1.0  0.6205724211907083  0.8795756759185166  0.2867100392494137  1.0000
  O   O2        1.0  0.8794234480577641  0.3795774371199343  0.2132908466890768  1.0000
  O   O3        1.0  0.37942373378376  0.12042200308257381  0.7132910075201053  1.0000
  O   O4        1.0  0.12057711221521572  0.6204220656335265  0.7867097159893461  1.0000
  O   O5        1.0  0.38854895829455677  0.7146063695198919  0.2000596025978609  1.0000
  O   O6        1.0  0.11144986399779103  0.21460539000317166  0.2999400985634608  1.0000
  O   O7        1.0  0.6114494075002381  0.2853940451105145  0.7999404385884006  1.0000
  O   O8        1.0  0.8885507017236025  0.7853941127505306  0.700059955090012  1.0000
  O   O9        1.0  0.45186826492801657  0.5428927156374569  0.2554204162725924  1.0000
  O   O10       1.0  0.048130842627649904  0.0428927186573915  0.2445798458577855  1.0000
  O   O11       1.0  0.5481301063159519  0.4571067871168069  0.744579115888854  1.0000
  O   O12       1.0  0.9518675177195136  0.9571067840963892  0.7554207043535754  1.0000
  O   O13       1.0  0.0499694236925521  0.539022723326127  0.3539521839175279  1.0000
  O   O14       1.0  0.4500340902667049  0.0390227042011304  0.1460481043176785  1.0000
  O   O15       1.0  0.9500399253876923  0.46097586754918035  0.6460494466792284  1.0000
  O   O16       1.0  0.5499686753797378  0.9609777104286364  0.8539519618027215  1.0000
  O   O17       1.0  0.6758298016545012  0.5927786092788735  0.4572693140473021  1.0000
  O   O18       1.0  0.8241687694160902  0.09277872423578512  0.04273014404121509  1.0000
  O   O19       1.0  0.3241685695887  0.4072218053517744  0.5427302181140092  1.0000
  O   O20       1.0  0.1758251965270574  0.9072216903952681  0.957269872210908  1.0000
  O   O21       1.0  0.9314986363115664  0.690818925008557  0.5357841478182905  1.0000
  O   O22       1.0  0.5685016384765545  0.19081962591802443  0.9642157654445285  1.0000
  O   O23       1.0  0.06849972948322153  0.30918148962184927  0.4642158933679709  1.0000
  O   O24       1.0  0.43149892724329664  0.8091817005884536  0.0357842882086672  1.0000
  O   O25       1.0  0.33075623807696536  0.0702762277184021  0.45184208368677053  1.0000
  O   O26       1.0  0.1692428449123682  0.5702755904624581  0.0481561340602354  1.0000
  O   O27       1.0  0.6692509328695381  0.9297241869109596  0.5481574983428246  1.0000
  O   O28       1.0  0.8307489374517091  0.42972300041686395  0.9518423426502309  1.0000
  O   O29       1.0  0.6225453063153737  0.061700029744251594  0.36452339648580073  1.0000
  O   O30       1.0  0.877457717222356  0.561701073650113  0.1354760959381451  1.0000
  O   O31       1.0  0.3774574702286557  0.9382994730096071  0.6354756515848337  1.0000
  O   O32       1.0  0.1225406485724392  0.4382993409803007  0.8645239452481165  1.0000
