data_image0
_chemical_formula_structural       Cd8P12H52C36O38
_chemical_formula_sum              "Cd8 P12 H52 C36 O38"
_cell_length_a       8.550627914725254
_cell_length_b       8.745387679605852
_cell_length_c       21.5854
_cell_angle_alpha    86.15688639165867
_cell_angle_beta     86.0692147909027
_cell_angle_gamma    63.57549671012598

_space_group_name_H-M_alt    "P 1"
_space_group_IT_number       1

loop_
  _space_group_symop_operation_xyz
  'x, y, z'

loop_
  _atom_site_type_symbol
  _atom_site_label
  _atom_site_symmetry_multiplicity
  _atom_site_fract_x
  _atom_site_fract_y
  _atom_site_fract_z
  _atom_site_occupancy
  Cd  Cd1       1.0  0.0156649986780693  0.2172370690308441  0.24001467763849152  1.0000
  Cd  Cd2       1.0  0.7841662887620304  0.9746972126100315  0.261800098521512  1.0000
  Cd  Cd3       1.0  0.9843382512563609  0.7827453213112108  0.7599795044036455  1.0000
  Cd  Cd4       1.0  0.21582944237033536  0.02530179085799489  0.738192910009758  1.0000
  Cd  Cd5       1.0  0.3308920560035489  0.3538583053077601  0.27992016744951803  1.0000
  Cd  Cd6       1.0  0.6072950811998865  0.6782947645160462  0.2257758722471976  1.0000
  Cd  Cd7       1.0  0.6690541411638977  0.6461879816726535  0.7200891168569755  1.0000
  Cd  Cd8       1.0  0.39267123470725096  0.3216863478932409  0.7742225903831113  1.0000
  P   P1        1.0  0.015146458594394206  0.5931461042368225  0.17137579364980846  1.0000
  P   P2        1.0  0.3911392715816577  0.9869104160662585  0.3322776751525255  1.0000
  P   P3        1.0  0.9848468348714764  0.4068375640379997  0.8286218669928972  1.0000
  P   P4        1.0  0.6088523643941315  0.0130898653345355  0.6677302347164726  1.0000
  P   P5        1.0  0.636305378849933  0.033226251947468186  0.8808305311871295  1.0000
  P   P6        1.0  0.9858924773535591  0.35134588948742607  0.624788902249094  1.0000
  P   P7        1.0  0.3637066242434274  0.9667497487307484  0.1191709990913594  1.0000
  P   P8        1.0  0.01407990167258085  0.6486684491738044  0.37522424485592154  1.0000
  P   P9        1.0  0.36022295594567305  0.6788340521438059  0.8434307198990679  1.0000
  P   P10       1.0  0.33689983764178794  0.619327112838661  0.6593739694139203  1.0000
  P   P11       1.0  0.6398007387244178  0.3211368368033405  0.15655302721012285  1.0000
  P   P12       1.0  0.6630934403004575  0.380653999570626  0.340622371227191  1.0000
  H   H1        1.0  0.28266862029357037  0.464823763350168  0.02390699764102071  1.0000
  H   H2        1.0  0.531935402652465  0.713002140540709  0.4762414013404666  1.0000
  H   H3        1.0  0.7173753288332135  0.5352007987732037  0.9760789114295108  1.0000
  H   H4        1.0  0.4680512453294555  0.2870454243724723  0.5237621170502962  1.0000
  H   H5        1.0  0.06393743458510669  0.9180145047204176  0.904208492643754  1.0000
  H   H6        1.0  0.08193463975527501  0.9309535739884252  0.6022097567474634  1.0000
  H   H7        1.0  0.9360776000677546  0.08197810908377078  0.09577953244743755  1.0000
  H   H8        1.0  0.918063280665713  0.0690198708242633  0.3978001010484888  1.0000
  H   H9        1.0  0.7416687792391914  0.822018751113113  0.04834812457824711  1.0000
  H   H10       1.0  0.17697891305483893  0.24658351709706486  0.457452070224754  1.0000
  H   H11       1.0  0.2583668398618784  0.17798536408598403  0.9516557071534707  1.0000
  H   H12       1.0  0.8229613141352987  0.7534448788246095  0.5425629580713434  1.0000
  H   H13       1.0  0.09469067554294952  0.3916097171839255  0.09341506855098203  1.0000
  H   H14       1.0  0.6091062462653056  0.890411156948673  0.4055879148630198  1.0000
  H   H15       1.0  0.9054059788208165  0.6084071773428477  0.9065761033764731  1.0000
  H   H16       1.0  0.39088554095109634  0.1097105280650013  0.5944273495035405  1.0000
  H   H17       1.0  0.8666467161400957  0.5218170089022109  0.09874555339814611  1.0000
  H   H18       1.0  0.4905212211573584  0.11412067404464918  0.4046325257180358  1.0000
  H   H19       1.0  0.13344351806146898  0.47810787446531566  0.9012385626585913  1.0000
  H   H20       1.0  0.5093252210455291  0.8860035668345672  0.5953731811169831  1.0000
  H   H21       1.0  0.7712203039666506  0.1484229453821015  0.9413675295288257  1.0000
  H   H22       1.0  0.8494243352191617  0.22341587396030593  0.5695000880923191  1.0000
  H   H23       1.0  0.2287988568900232  0.8515735022203899  0.05862027940649029  1.0000
  H   H24       1.0  0.15055531423116272  0.7765409577264037  0.4305403666607149  1.0000
  H   H25       1.0  0.6263898686549111  0.0875690649403182  0.9880251453927474  1.0000
  H   H26       1.0  0.9084666147795276  0.3613367678614807  0.5193920825484497  1.0000
  H   H27       1.0  0.3736397183743848  0.9124069357378983  0.011970348076268102  1.0000
  H   H28       1.0  0.09139200822332341  0.6386699032031513  0.4806308477111401  1.0000
  H   H29       1.0  0.4437983838240669  0.4850815535759878  0.9308236364641548  1.0000
  H   H30       1.0  0.5184504927025841  0.5521666341906906  0.5662257950629412  1.0000
  H   H31       1.0  0.556238314397696  0.5149072264299048  0.06917224342495841  1.0000
  H   H32       1.0  0.4815269674591249  0.4478157561513639  0.4337635279937687  1.0000
  H   H33       1.0  0.4500858097648078  0.6806921663873309  0.9445512510230358  1.0000
  H   H34       1.0  0.3144393920643653  0.5531429748248369  0.5571599563858599  1.0000
  H   H35       1.0  0.5499328037697071  0.31931067087899817  0.0554289868443618  1.0000
  H   H36       1.0  0.6855219824197576  0.4468930886934429  0.44282695614450074  1.0000
  H   H37       1.0  0.3423297162799628  0.5164484133471632  0.16077632046995663  1.0000
  H   H38       1.0  0.402692802995766  0.7317097983198975  0.3401211918435862  1.0000
  H   H39       1.0  0.6577175943978377  0.48355059012086327  0.8392097280924631  1.0000
  H   H40       1.0  0.5973217619530261  0.2683019844757979  0.6598853197839533  1.0000
  H   H41       1.0  0.45095104854368634  0.9187825423135151  0.8733357300575335  1.0000
  H   H42       1.0  0.0641475002689162  0.5637907106412356  0.6286563891383781  1.0000
  H   H43       1.0  0.5490685975406678  0.0811972921630044  0.12665900270038583  1.0000
  H   H44       1.0  0.9358043719271053  0.4362249059527699  0.37135218409507337  1.0000
  H   H45       1.0  0.18934251291018708  0.7164142210291615  0.19741419432136104  1.0000
  H   H46       1.0  0.22080276034348148  0.6993729875784069  0.2834690366694801  1.0000
  H   H47       1.0  0.8106178795905024  0.2835566679179919  0.8025684921176365  1.0000
  H   H48       1.0  0.7792293730176353  0.30063623935175326  0.7165393836690727  1.0000
  H   H49       1.0  0.9743734077944097  0.0247113859195451  0.25717565829546635  1.0000
  H   H50       1.0  0.1739708551014658  0.8783819758109246  0.2466382842889558  1.0000
  H   H51       1.0  0.025642737026373746  0.9752710044225095  0.7428001058147445  1.0000
  H   H52       1.0  0.8261436510952863  0.12158252347238367  0.753353362397448  1.0000
  C   C1        1.0  0.011655586863547285  0.6343734932397922  0.04290518278530441  1.0000
  C   C2        1.0  0.36527319294766886  0.9805233080957405  0.46030937394432686  1.0000
  C   C3        1.0  0.9883893948130763  0.36562806609376947  0.9570891985864166  1.0000
  C   C4        1.0  0.6346788655317539  0.01952297888467309  0.5397016043011647  1.0000
  C   C5        1.0  0.17306661622664177  0.5856190802379544  0.010610925357759994  1.0000
  C   C6        1.0  0.41248902463220816  0.8220711463565704  0.4916389742072767  1.0000
  C   C7        1.0  0.8269907440614261  0.4143939804905159  0.9893828075463418  1.0000
  C   C8        1.0  0.5874753503641799  0.1779764185566108  0.5083711716013894  1.0000
  C   C9        1.0  0.19414407427876065  0.6855291419112175  0.9603052705355354  1.0000
  C   C10       1.0  0.31358344631017593  0.8015092081321595  0.5431847746601903  1.0000
  C   C11       1.0  0.8058799308636679  0.3144928643466187  0.0396858822851556  1.0000
  C   C12       1.0  0.6864035937577313  0.19850640846184575  0.4568191373719729  1.0000
  C   C13       1.0  0.050141109117738863  0.8366676944236457  0.9425936425612991  1.0000
  C   C14       1.0  0.16267268646112154  0.9443092493385377  0.562831116840897  1.0000
  C   C15       1.0  0.9499062481309153  0.1633389766409863  0.05739682928198421  1.0000
  C   C16       1.0  0.8372950035154362  0.055705089322699984  0.43717891466371844  1.0000
  C   C17       1.0  0.8861551565522776  0.8852853686193993  0.9732818356892567  1.0000
  C   C18       1.0  0.11468743273619002  0.10533616420284628  0.5327648145732269  1.0000
  C   C19       1.0  0.11388807449255722  0.11471746864693697  0.026718117831961805  1.0000
  C   C20       1.0  0.8852661745679954  0.8946756185928562  0.4672526178966407  1.0000
  C   C21       1.0  0.8682599771397224  0.7840526465320676  0.023659760275300798  1.0000
  C   C22       1.0  0.21607761803130643  0.12203746753751687  0.481437521463036  1.0000
  C   C23       1.0  0.1317880205727846  0.21596297006193765  0.9763411066082882  1.0000
  C   C24       1.0  0.7838637348503781  0.8779832607875591  0.5185762946518437  1.0000
  C   C25       1.0  0.9937004283021341  0.5242949205378336  0.09682685520351701  1.0000
  C   C26       1.0  0.4762767003749603  0.9956144161437308  0.40529342605718455  1.0000
  C   C27       1.0  0.006347398650582632  0.47569258153529137  0.9031636611475451  1.0000
  C   C28       1.0  0.523666713610851  0.004456151559260498  0.5947148112020387  1.0000
  C   C29       1.0  0.7322858235303614  0.04504713004416059  0.9519305108050631  1.0000
  C   C30       1.0  0.9553618706423066  0.259151985862573  0.5558263549164125  1.0000
  C   C31       1.0  0.2677484525485241  0.9549288706340562  0.0480625389511076  1.0000
  C   C32       1.0  0.04457521632301113  0.740841905874383  0.4441929385558794  1.0000
  C   C33       1.0  0.3706573428037603  0.625191546307384  0.9259919298556128  1.0000
  C   C34       1.0  0.3769342827525649  0.6261666090087701  0.5755091585325192  1.0000
  C   C35       1.0  0.6293693834258323  0.37479595576573377  0.0739954532821017  1.0000
  C   C36       1.0  0.6230450522298696  0.3738349503247917  0.42448746876790017  1.0000
  O   O1        1.0  0.15412115005366894  0.6655320499699116  0.15602882222399472  1.0000
  O   O2        1.0  0.31111930914688213  0.856122942871657  0.3456634013399622  1.0000
  O   O3        1.0  0.8458657813489127  0.3344656755653475  0.8439746520430235  1.0000
  O   O4        1.0  0.6888933344103307  0.14386200333593277  0.6543480607027305  1.0000
  O   O5        1.0  0.09290922215997446  0.4363539771622554  0.21721898463196962  1.0000
  O   O6        1.0  0.5350529815506563  0.9274226457526209  0.2800202763778686  1.0000
  O   O7        1.0  0.9070993107170439  0.5636296911125669  0.7827796520089763  1.0000
  O   O8        1.0  0.46496605511708106  0.07255335492559567  0.7199921815286106  1.0000
  O   O9        1.0  0.8425163082690191  0.7339346792676122  0.1965500856365168  1.0000
  O   O10       1.0  0.23980806703237792  0.1614668051370174  0.31515653750932426  1.0000
  O   O11       1.0  0.15745818242765344  0.2660413214106043  0.8034455141590442  1.0000
  O   O12       1.0  0.7601812088949984  0.8385309203982416  0.6848450199871153  1.0000
  O   O13       1.0  0.7747906843826299  0.9429725316640327  0.8309515258726635  1.0000
  O   O14       1.0  0.13807773940504833  0.22309511283573605  0.660733458932846  1.0000
  O   O15       1.0  0.2252493443429132  0.05698557795544448  0.1690525088555361  1.0000
  O   O16       1.0  0.8619130192570665  0.7769537300102127  0.3392782520986302  1.0000
  O   O17       1.0  0.5066462421030025  0.21824152418587053  0.8641837520534923  1.0000
  O   O18       1.0  0.8081881096006001  0.4207414725452451  0.6623863501680844  1.0000
  O   O19       1.0  0.4933715446842442  0.7817216971646772  0.1358114823277603  1.0000
  O   O20       1.0  0.19179000654858677  0.5792524191917108  0.33764619070554164  1.0000
  O   O21       1.0  0.5322092172758417  0.923586291585458  0.903653639585663  1.0000
  O   O22       1.0  0.023452964282661547  0.5066556145520309  0.5981095159578234  1.0000
  O   O23       1.0  0.467809194451654  0.07638331942892758  0.09634603707326758  1.0000
  O   O24       1.0  0.9764849183826813  0.49337278136964346  0.4018981635867861  1.0000
  O   O25       1.0  0.2488933744809927  0.6104429242410134  0.8127036799480225  1.0000
  O   O26       1.0  0.3930737765534289  0.7449261789983908  0.6886262640513295  1.0000
  O   O27       1.0  0.7511122044546072  0.38953691023550613  0.1872840223892354  1.0000
  O   O28       1.0  0.6068880210639095  0.2550830479317767  0.31136599850411534  1.0000
  O   O29       1.0  0.5579630447819852  0.5781712880706491  0.815770238580619  1.0000
  O   O30       1.0  0.4501563693849351  0.4334888518981684  0.6836748528184985  1.0000
  O   O31       1.0  0.44204825575304346  0.4217855436160604  0.1842063511291556  1.0000
  O   O32       1.0  0.5498410502847478  0.5664986501749496  0.3163253713249503  1.0000
  O   O33       1.0  0.3134770605829544  0.8676613978268006  0.8315679776438645  1.0000
  O   O34       1.0  0.14184756676025498  0.6654362050123765  0.6704705479717321  1.0000
  O   O35       1.0  0.6865659531312505  0.13230565732204974  0.1684190551683784  1.0000
  O   O36       1.0  0.8581503226134901  0.3345321280692416  0.3295264777467679  1.0000
  O   O37       1.0  0.2470555621533492  0.754087679006517  0.24334980501595993  1.0000
  O   O38       1.0  0.7529920629923481  0.24586659681465756  0.7566518111567789  1.0000
