data_image0
_chemical_formula_structural       Al2H24C42S6O30
_chemical_formula_sum              "Al2 H24 C42 S6 O30"
_cell_length_a       4.3200905060059975
_cell_length_b       24.476913167763826
_cell_length_c       24.476961342766053
_cell_angle_alpha    120.00005070766198
_cell_angle_beta     89.99985633041857
_cell_angle_gamma    89.99996266989984

_space_group_name_H-M_alt    "P 1"
_space_group_IT_number       1

loop_
  _space_group_symop_operation_xyz
  'x, y, z'

loop_
  _atom_site_type_symbol
  _atom_site_label
  _atom_site_symmetry_multiplicity
  _atom_site_fract_x
  _atom_site_fract_y
  _atom_site_fract_z
  _atom_site_occupancy
  Al  Al1       1.0  0.023342252750389  0.49999876563850876  0.500000465750162  1.0000
  Al  Al2       1.0  0.0234932780522072  0.16666576420709606  0.8333346063194683  1.0000
  H   H1        1.0  0.4728821838754555  0.44368127792984796  0.7366543695955842  1.0000
  H   H2        1.0  0.4729414572850601  0.2229676354183353  0.5966664028988402  1.0000
  H   H3        1.0  0.4980872176833202  0.33130940915866364  0.8302963370541221  1.0000
  H   H4        1.0  0.4543406999748285  0.39445100063567634  0.7784709631240715  1.0000
  H   H5        1.0  0.497971482114373  0.3353532786666732  0.5030245236540621  1.0000
  H   H6        1.0  0.45422677734273254  0.2722030809795442  0.5548389422067856  1.0000
  H   H7        1.0  0.47287124275455744  0.7929700148441795  0.5563193150886506  1.0000
  H   H8        1.0  0.4729412826405975  0.8736956294720454  0.7770333304898428  1.0000
  H   H9        1.0  0.49808944102871777  0.9989841926947632  0.6686917907242814  1.0000
  H   H10       1.0  0.4543410195983525  0.8840170461369966  0.6055498382475974  1.0000
  H   H11       1.0  0.4979766612898686  0.6676673770590752  0.6646463030626251  1.0000
  H   H12       1.0  0.4542338600846421  0.7826327949876698  0.7277973867335632  1.0000
  H   H13       1.0  0.47288396647704184  0.26334539311323363  0.20702984100100247  1.0000
  H   H14       1.0  0.47293057541068595  0.4033346466028008  0.12630501788162724  1.0000
  H   H15       1.0  0.4980934091088471  0.1697041200852993  0.0010159539328214089  1.0000
  H   H16       1.0  0.45434804224427683  0.22152888743109136  0.1159825069631637  1.0000
  H   H17       1.0  0.4979723947109775  0.49697648506992914  0.3323322021405062  1.0000
  H   H18       1.0  0.4542265389772382  0.44516041388915534  0.21736680683540036  1.0000
  H   H19       1.0  3.1158313724700016e-05  0.5578533474157439  0.6816096202801986  1.0000
  H   H20       1.0  0.0002521072961983  0.10879152385703608  0.6516944763354431  1.0000
  H   H21       1.0  2.57928757676e-05  0.6237537542909948  0.4421471169119968  1.0000
  H   H22       1.0  0.0002412689827124999  0.04290029343668793  0.8912090853972003  1.0000
  H   H23       1.0  3.840177539160001e-05  0.31838932032430733  0.37624620807400794  1.0000
  H   H24       1.0  0.00024023390435700003  0.34830589948005297  0.957100689007845  1.0000
  C   C1        1.0  0.5211335205792906  0.4452872831142684  0.4057926763086925  1.0000
  C   C2        1.0  0.5211278048290993  0.4605028643905697  0.5547135062360979  1.0000
  C   C3        1.0  0.521129979483277  0.5942067418727888  0.5394970590446491  1.0000
  C   C4        1.0  0.5212331656062048  0.20615595892753907  0.7786152786542218  1.0000
  C   C5        1.0  0.5212309908577666  0.07245624252845304  0.793843906673139  1.0000
  C   C6        1.0  0.52123207930466  0.22138540151770783  0.9275443088769393  1.0000
  C   C7        1.0  0.4967045250787623  0.42474787370387196  0.5894380133541759  1.0000
  C   C8        1.0  0.4968333941895224  0.24191005090594334  0.743885160670331  1.0000
  C   C9        1.0  0.4865653257048734  0.45386174895827486  0.6554332655819053  1.0000
  C   C10       1.0  0.4648110052097394  0.41831204998236154  0.6853620422259823  1.0000
  C   C11       1.0  0.48667440772807424  0.21279214097572213  0.6778882347426176  1.0000
  C   C12       1.0  0.4648625113331875  0.24834103260168655  0.6479586555157366  1.0000
  C   C13       1.0  0.4844930032511596  0.30786004580375  0.7789708274115554  1.0000
  C   C14       1.0  0.4598617216593013  0.34327290016262424  0.7490514539008258  1.0000
  C   C15       1.0  0.48439033996528746  0.3587998345296483  0.55434958753127  1.0000
  C   C16       1.0  0.4597703386244874  0.3233812083087956  0.5842641380756036  1.0000
  C   C17       1.0  0.45121906789636057  0.352145792280801  0.6504983715406566  1.0000
  C   C18       1.0  0.4512559444315798  0.3145045629548663  0.6828177148317992  1.0000
  C   C19       1.0  0.4967041804263275  0.6646865032597871  0.5752521575010617  1.0000
  C   C20       1.0  0.49683373870092135  0.0019722000361994084  0.7580906652081154  1.0000
  C   C21       1.0  0.4865586980097518  0.7015683943118205  0.546138536687927  1.0000
  C   C22       1.0  0.46480877956015115  0.7670467371627294  0.5816885050068379  1.0000
  C   C23       1.0  0.4866699197212014  0.9650932847920256  0.7872082536841559  1.0000
  C   C24       1.0  0.4648605655650472  0.8996146526080651  0.7516594160478577  1.0000
  C   C25       1.0  0.4844923888305317  0.971107885412337  0.6921409767088418  1.0000
  C   C26       1.0  0.45985901852404953  0.905775565003964  0.6567285442153478  1.0000
  C   C27       1.0  0.48438909780379896  0.69554695881083  0.6412003945170568  1.0000
  C   C28       1.0  0.4597688703208078  0.7608794922429779  0.6766191781721673  1.0000
  C   C29       1.0  0.4512228878594939  0.7983495769192858  0.6478545727925678  1.0000
  C   C30       1.0  0.4512595268283733  0.8683098687262284  0.6854961246135002  1.0000
  C   C31       1.0  0.4967086715510334  0.41056235613445574  0.335312450720984  1.0000
  C   C32       1.0  0.49683156232868714  0.2561147239837211  0.9980275200365581  1.0000
  C   C33       1.0  0.4865703796044444  0.3445663607588187  0.2984310653157181  1.0000
  C   C34       1.0  0.4648167264727833  0.31463773148373514  0.23295234209174953  1.0000
  C   C35       1.0  0.4866695136182101  0.3221114867381303  0.0349067876002707  1.0000
  C   C36       1.0  0.4648546350899778  0.3520419495627394  0.10038451863777452  1.0000
  C   C37       1.0  0.48449154890105467  0.22102921862788352  0.028891238209553166  1.0000
  C   C38       1.0  0.4598572860490435  0.25094910975893464  0.09422347737922368  1.0000
  C   C39       1.0  0.4843873245342394  0.4456506556512989  0.30445194421301375  1.0000
  C   C40       1.0  0.4597679896289151  0.4157359941346854  0.23912022253932724  1.0000
  C   C41       1.0  0.45121994677191424  0.34950139442669576  0.20164972269969175  1.0000
  C   C42       1.0  0.4512459662134205  0.3171822687206145  0.1316897078517201  1.0000
  S   S1        1.0  0.5569475976437345  0.5363380157439934  0.7060587442509245  1.0000
  S   S2        1.0  0.5571757583090574  0.1303245531327518  0.6272572670928084  1.0000
  S   S3        1.0  0.5569398130196815  0.6697166295778059  0.46366142783062964  1.0000
  S   S4        1.0  0.557167797764869  0.996930984020011  0.8696764708917472  1.0000
  S   S5        1.0  0.5569692354103425  0.2939383704043621  0.3302787123549322  1.0000
  S   S6        1.0  0.5571612245412183  0.37274098269142536  0.0030681787444635034  1.0000
  O   O1        1.0  0.7618818475504909  0.5712150778069045  0.550081732460022  1.0000
  O   O2        1.0  0.7618828807202789  0.47886466686450985  0.4287843916798336  1.0000
  O   O3        1.0  0.7618799635974084  0.44991786341886086  0.5211368136476509  1.0000
  O   O4        1.0  0.29319293418161857  0.5645577959197327  0.5037588280862906  1.0000
  O   O5        1.0  0.2931903409939309  0.49624111899414897  0.5608017803814462  1.0000
  O   O6        1.0  0.2931890227106209  0.4391990709544301  0.4354419174199932  1.0000
  O   O7        1.0  0.7619772612732945  0.18780692027485205  0.9045509715897068  1.0000
  O   O8        1.0  0.7619732341506166  0.2167417787436959  0.812194152661327  1.0000
  O   O9        1.0  0.7619759796567962  0.09544938679736963  0.7832583020337295  1.0000
  O   O10       1.0  0.2932926096556868  0.22747126438017057  0.8978927683445191  1.0000
  O   O11       1.0  0.2932886981562747  0.10210823045103744  0.8295809837198008  1.0000
  O   O12       1.0  0.2932889766497269  0.17041873288350468  0.7725294981899536  1.0000
  O   O13       1.0  0.2789926362088481  0.5738503761842041  0.7154797893373797  1.0000
  O   O14       1.0  0.7049070494735404  0.544032787261024  0.7619436942648149  1.0000
  O   O15       1.0  0.7714387365293263  0.5520871352425942  0.665036010805771  1.0000
  O   O16       1.0  0.27922801442920075  0.09279971526407854  0.6178228619094028  1.0000
  O   O17       1.0  0.7051869575047717  0.12264068300407155  0.5713841295741062  1.0000
  O   O18       1.0  0.7716779465454309  0.11458896309638077  0.6682882938012183  1.0000
  O   O19       1.0  0.2789829920314233  0.6416258274853135  0.42614937399471836  1.0000
  O   O20       1.0  0.70489501182864  0.7179072610379293  0.45596611753466476  1.0000
  O   O21       1.0  0.7714309069774076  0.6129455841223502  0.44791334061523  1.0000
  O   O22       1.0  0.2792214549073577  0.02502125956389993  0.9072012218574131  1.0000
  O   O23       1.0  0.7051763058611583  0.9487421609538983  0.8773608199515904  1.0000
  O   O24       1.0  0.7716695727855196  0.05369736191183699  0.8854122494813623  1.0000
  O   O25       1.0  0.2790026546160504  0.2845188054836001  0.3583722775040314  1.0000
  O   O26       1.0  0.7049295446205903  0.23805684413500217  0.2820914855303585  1.0000
  O   O27       1.0  0.7714480587646406  0.3349635934623549  0.387053231468407  1.0000
  O   O28       1.0  0.2792156808162147  0.3821769632507069  0.9749802967189678  1.0000
  O   O29       1.0  0.7051761959815295  0.4286156192861625  0.051258862023850285  1.0000
  O   O30       1.0  0.7716686240904876  0.3317115816267631  0.9463022288891096  1.0000
