data_image0
_chemical_formula_structural       Al2H16C24O12
_chemical_formula_sum              "Al2 H16 C24 O12"
_cell_length_a       6.923850304500046
_cell_length_b       11.026094166021807
_cell_length_c       15.262082754547897
_cell_angle_alpha    82.93894678191666
_cell_angle_beta     77.20571597985722
_cell_angle_gamma    73.81326949716549

_space_group_name_H-M_alt    "P 1"
_space_group_IT_number       1

loop_
  _space_group_symop_operation_xyz
  'x, y, z'

loop_
  _atom_site_type_symbol
  _atom_site_label
  _atom_site_symmetry_multiplicity
  _atom_site_fract_x
  _atom_site_fract_y
  _atom_site_fract_z
  _atom_site_occupancy
  Al  Al1       1.0  0.5024082813671952  0.49647284850798457  0.4996473015605361  1.0000
  Al  Al2       1.0  0.0020107190694033253  0.496904334617021  0.49987799663832533  1.0000
  H   H1        1.0  0.26966887816197976  0.3684663077046579  0.5815770403792088  1.0000
  H   H2        1.0  0.7345722370987814  0.6241328411865082  0.4168822298895662  1.0000
  H   H3        1.0  0.835037607066255  0.5206154366948469  0.9378031309603045  1.0000
  H   H4        1.0  0.15665338651542982  0.4933026383242022  0.06202824975819961  1.0000
  H   H5        1.0  0.7019372379537072  0.469801964933879  0.2308187086816532  1.0000
  H   H6        1.0  0.7842880179858864  0.48517588418267377  0.06695201073672763  1.0000
  H   H7        1.0  0.30401484002751294  0.517595330096448  0.7679187147331776  1.0000
  H   H8        1.0  0.21994099844750534  0.5027829207200725  0.9317414181881106  1.0000
  H   H9        1.0  0.7792605052100964  0.8625797811983916  0.49242034527251394  1.0000
  H   H10       1.0  0.6392799752953451  0.09651793459892843  0.5008702437993904  1.0000
  H   H11       1.0  0.3411915907420068  0.12817849093395492  0.569282731086574  1.0000
  H   H12       1.0  0.38828260175723966  0.15272913305495453  0.4494382549654148  1.0000
  H   H13       1.0  0.5306321163797847  0.9168069570461274  0.43666242739144695  1.0000
  H   H14       1.0  0.4848188252399762  0.8929211094871266  0.5568931568103468  1.0000
  H   H15       1.0  0.9611093830057553  0.5396898634415805  0.702736545645877  1.0000
  H   H16       1.0  0.03751478091644597  0.46309440467413054  0.2970342035434541  1.0000
  C   C1        1.0  0.8447617133829084  0.2711038223724245  0.5099771833807553  1.0000
  C   C2        1.0  0.6637939280355737  0.5233006117269953  0.6597824020643159  1.0000
  C   C3        1.0  0.16030619974251445  0.7221098788459556  0.48986692722638037  1.0000
  C   C4        1.0  0.33964246650996427  0.47113173531059976  0.33956173056204625  1.0000
  C   C5        1.0  0.6152558864932941  0.5253152643530967  0.758351172689224  1.0000
  C   C6        1.0  0.38614015025863313  0.47136110401364556  0.24089973982651722  1.0000
  C   C7        1.0  0.7637714746724101  0.527888061649051  0.8085948757649035  1.0000
  C   C8        1.0  0.7149244873679805  0.518990710691881  0.9028237619063122  1.0000
  C   C9        1.0  0.23383198478015288  0.4754799748055447  0.19090349366706502  1.0000
  C   C10       1.0  0.28058721360421407  0.4876701339094609  0.09670857914449735  1.0000
  C   C11       1.0  0.5834478753309253  0.4746252639080242  0.19314213594910973  1.0000
  C   C12       1.0  0.6286218735026948  0.4842473905840095  0.10016456657852764  1.0000
  C   C13       1.0  0.4196957316371621  0.5177835768834953  0.8058501153523352  1.0000
  C   C14       1.0  0.37322700591731456  0.509368456768712  0.898820211635375  1.0000
  C   C15       1.0  0.5218933919719502  0.5076484164840737  0.9497193118519079  1.0000
  C   C16       1.0  0.4762365563987173  0.4933098930338886  0.04955003660818852  1.0000
  C   C17       1.0  0.9231287473426589  0.13184862838496508  0.5061756643447239  1.0000
  C   C18       1.0  0.08542054357067724  0.8614234861030072  0.4944464317402577  1.0000
  C   C19       1.0  0.12760404306255416  0.0709319604683429  0.5053279975900156  1.0000
  C   C20       1.0  0.8775524926962178  0.9222405142782221  0.49562452033835325  1.0000
  C   C21       1.0  0.20659943514018408  0.9405446385438979  0.49926590523885034  1.0000
  C   C22       1.0  0.7993133628297214  0.052514208068906505  0.5009007735347738  1.0000
  C   C23       1.0  0.3312682056958423  0.0927079486787292  0.5066405189401451  1.0000
  C   C24       1.0  0.4212051008253681  0.9447879810008217  0.4992650644875312  1.0000
  O   O1        1.0  0.6576494434587231  0.32211477782691844  0.5049572056403805  1.0000
  O   O2        1.0  0.8466860732665678  0.5314119023391299  0.6197097890087663  1.0000
  O   O3        1.0  0.028703369431326616  0.6646877136466357  0.4820686519533696  1.0000
  O   O4        1.0  0.47647930539705624  0.4816784957223136  0.3795650028163707  1.0000
  O   O5        1.0  0.34778522986600513  0.6708113704689539  0.494243672238639  1.0000
  O   O6        1.0  0.15681385605741846  0.46320374404042763  0.37986994012413794  1.0000
  O   O7        1.0  0.9760788389453764  0.3288850426313701  0.5177965158408355  1.0000
  O   O8        1.0  0.5285432247033199  0.5106915437841977  0.6196723315349788  1.0000
  O   O9        1.0  0.25104018306011255  0.44793429900337134  0.5453284123568666  1.0000
  O   O10       1.0  0.7533629982140084  0.5454857428972204  0.4540928280062105  1.0000
  O   O11       1.0  0.9547179937591889  0.5370375046530073  0.7690907557289394  1.0000
  O   O12       1.0  0.04119353372838927  0.47001953237314353  0.23068240859992528  1.0000
