data_image0
_chemical_formula_structural       K4H44Pt2C40S8Cl8O6
_chemical_formula_sum              "K4 H44 Pt2 C40 S8 Cl8 O6"
_cell_length_a       8.05534874035073
_cell_length_b       12.61525368732182
_cell_length_c       14.319642379878234
_cell_angle_alpha    83.4467543233891
_cell_angle_beta     75.87416746402471
_cell_angle_gamma    77.7180404474806

_space_group_name_H-M_alt    "P 1"
_space_group_IT_number       1

loop_
  _space_group_symop_operation_xyz
  'x, y, z'

loop_
  _atom_site_type_symbol
  _atom_site_label
  _atom_site_symmetry_multiplicity
  _atom_site_fract_x
  _atom_site_fract_y
  _atom_site_fract_z
  _atom_site_occupancy
  K   K1        1.0  0.0324339273746972  0.4899418960607705  0.7576846511288977  1.0000
  K   K2        1.0  0.9675680586398696  0.5100515228902438  0.2423182378725173  1.0000
  K   K3        1.0  0.5007989830183986  0.4453284339071644  0.8315721377805403  1.0000
  K   K4        1.0  0.4991846302270487  0.5546787680053528  0.1684375079002649  1.0000
  H   H1        1.0  0.014901013956624399  0.020514515890973  0.8653529090981706  1.0000
  H   H2        1.0  0.9851077817489938  0.9794813547764392  0.13464386109531287  1.0000
  H   H3        1.0  0.28685027939289415  0.9663659459399554  0.929513898876607  1.0000
  H   H4        1.0  0.713154740408946  0.0336299228369654  0.0704869022744958  1.0000
  H   H5        1.0  0.20005727273915122  0.9598415934294311  0.5291859722609614  1.0000
  H   H6        1.0  0.7999472701596132  0.04015998683013319  0.4708177870273503  1.0000
  H   H7        1.0  0.9758058973342115  0.9938690083516093  0.6844496024224611  1.0000
  H   H8        1.0  0.024192725229689  0.0061309058981962  0.3155523837768471  1.0000
  H   H9        1.0  0.3817998659285493  0.7085062059464776  0.7560196399901286  1.0000
  H   H10       1.0  0.6181963884268599  0.29149286614357106  0.24397858262890534  1.0000
  H   H11       1.0  0.17289393803463338  0.673568673979858  0.8047720005883932  1.0000
  H   H12       1.0  0.8271018037351539  0.3264279505414365  0.19522585470318887  1.0000
  H   H13       1.0  0.20169161317380707  0.8426963700663707  0.6683039474614318  1.0000
  H   H14       1.0  0.7983005943108876  0.1573035101306317  0.3316975610537582  1.0000
  H   H15       1.0  0.07087790487701542  0.7485835168328734  0.65855906773956  1.0000
  H   H16       1.0  0.92912088247742  0.251415560504853  0.3414373960836627  1.0000
  H   H17       1.0  0.2805814747842559  0.7315511021502774  0.503814299257499  1.0000
  H   H18       1.0  0.7194191094965845  0.26845450490572625  0.4961833152276043  1.0000
  H   H19       1.0  0.452183255512068  0.7498104838339474  0.5556498500309814  1.0000
  H   H20       1.0  0.5478140594067114  0.2501934923651348  0.4443511963888155  1.0000
  H   H21       1.0  0.3037372970232397  0.5465452716544377  0.563426513902364  1.0000
  H   H22       1.0  0.6962624683129236  0.4534586888587171  0.43656789904796506  1.0000
  H   H23       1.0  0.519630603428098  0.5585206544351067  0.5690414715294806  1.0000
  H   H24       1.0  0.48036816637547725  0.4414824934567676  0.4309545658802207  1.0000
  H   H25       1.0  0.5022419126656601  0.3412055211477423  0.6370445660460432  1.0000
  H   H26       1.0  0.49775515488094146  0.6587992710298212  0.3629571280761894  1.0000
  H   H27       1.0  0.2960832151300463  0.33235640283053425  0.615491945313444  1.0000
  H   H28       1.0  0.7039158964247249  0.6676459530069894  0.38450901544941724  1.0000
  H   H29       1.0  0.3947629097371673  0.14648400762935412  0.5994388077398227  1.0000
  H   H30       1.0  0.6052392002127363  0.8535207890625357  0.40055797602688875  1.0000
  H   H31       1.0  0.589077053647024  0.14848901255901134  0.6354374181210645  1.0000
  H   H32       1.0  0.41092507989763744  0.8515157901139078  0.3645607584095459  1.0000
  H   H33       1.0  0.30666990686859197  0.05902388370982691  0.7537649024475427  1.0000
  H   H34       1.0  0.6933334635369305  0.9409768390707214  0.2462300355708749  1.0000
  H   H35       1.0  0.4717679914521895  0.09941460105741133  0.7968915269945568  1.0000
  H   H36       1.0  0.5282328577516751  0.9005861194659772  0.2031058662016321  1.0000
  H   H37       1.0  0.11137772045503877  0.2314774971477789  0.7845885531772581  1.0000
  H   H38       1.0  0.8886223569936575  0.7685215887948119  0.21540842401196156  1.0000
  H   H39       1.0  0.22093062064853802  0.22408157801412193  0.8806917124814786  1.0000
  H   H40       1.0  0.7790689914040527  0.7759150723217944  0.11930768290808665  1.0000
  H   H41       1.0  0.7086368808360672  0.6549435651082973  0.8336626340467532  1.0000
  H   H42       1.0  0.29136352656644954  0.3450547257894316  0.16633857011367328  1.0000
  H   H43       1.0  0.70709706056347  0.6508712274358714  0.7246510574551621  1.0000
  H   H44       1.0  0.29290259867862994  0.34912543486210273  0.2753511234622009  1.0000
  Pt  Pt1       1.0  4.3666651809025673e-07  0.49999833475896344  1.1696970076957137e-06  1.0000
  Pt  Pt2       1.0  0.9999975113298869  0.5000010046036822  0.5000020469660883  1.0000
  C   C1        1.0  0.9854089493909514  0.756815208702541  0.9447703779862806  1.0000
  C   C2        1.0  0.01459603501875509  0.24318065110283274  0.0552283340189703  1.0000
  C   C3        1.0  0.9442999362849701  0.8634794396205978  0.9039129676119018  1.0000
  C   C4        1.0  0.0557076047185134  0.1365164314134901  0.0960853783614439  1.0000
  C   C5        1.0  0.05123425604866574  0.9387307769928203  0.8970817692027353  1.0000
  C   C6        1.0  0.9487735441243713  0.061264281053311706  0.1029166254501135  1.0000
  C   C7        1.0  0.20222506375758792  0.9086385932311176  0.9326617660310745  1.0000
  C   C8        1.0  0.7977801916190471  0.09135645657681829  0.06733769103563962  1.0000
  C   C9        1.0  0.24453497563507648  0.803598842736399  0.9731549745845527  1.0000
  C   C10       1.0  0.7554687658698712  0.1963970204261685  0.026846009582506308  1.0000
  C   C11       1.0  0.14080097712177048  0.7252681589663511  0.9788396031775405  1.0000
  C   C12       1.0  0.8592025170109993  0.2747285201746977  0.021162028691953973  1.0000
  C   C13       1.0  0.10583901277463072  0.2384719461482803  0.507629277655596  1.0000
  C   C14       1.0  0.8941603815444451  0.7615296026823162  0.49237312455068144  1.0000
  C   C15       1.0  0.18373864202666823  0.1302464477798679  0.48667348581658837  1.0000
  C   C16       1.0  0.8162620541840511  0.8697551126461252  0.5133301261376388  1.0000
  C   C17       1.0  0.13804007787293668  0.042247580496521706  0.5484343196143584  1.0000
  C   C18       1.0  0.8619637050680424  0.9577523681727769  0.4515697200489299  1.0000
  C   C19       1.0  0.013804067888962398  0.061111432543427206  0.6347762027749084  1.0000
  C   C20       1.0  0.9861953264301061  0.9388901162871691  0.3652261994313691  1.0000
  C   C21       1.0  0.9357838578829031  0.1676749803443869  0.6566676813008882  1.0000
  C   C22       1.0  0.06421399896972695  0.8323273758598121  0.3433348552418352  1.0000
  C   C23       1.0  0.9751122690697686  0.25768067183408766  0.593741184565026  1.0000
  C   C24       1.0  0.02488840354619256  0.7423208826108696  0.4062610346252952  1.0000
  C   C25       1.0  0.27165365494557386  0.6825002430159514  0.738069382694647  1.0000
  C   C26       1.0  0.7283431177489346  0.31749720309817775  0.2619289372834146  1.0000
  C   C27       1.0  0.20367440130352313  0.7572750092802425  0.6592858413272751  1.0000
  C   C28       1.0  0.7963216174770904  0.24272488177879137  0.3407137253761476  1.0000
  C   C29       1.0  0.33477473345111963  0.7142258469641547  0.5683006915406281  1.0000
  C   C30       1.0  0.6652240835419644  0.28577731288977765  0.4316981313968782  1.0000
  C   C31       1.0  0.37966159746007117  0.5918516589361573  0.5932310606150963  1.0000
  C   C32       1.0  0.6203371605461284  0.408151485965199  0.40676428041265206  1.0000
  C   C33       1.0  0.3923843494931063  0.29820668648414284  0.6595227854723617  1.0000
  C   C34       1.0  0.6076145028921115  0.7017964823413437  0.3404781266109893  1.0000
  C   C35       1.0  0.44698772001852655  0.17415249869713997  0.6542258293939014  1.0000
  C   C36       1.0  0.5530149318652279  0.8258506779998597  0.3457724444957293  1.0000
  C   C37       1.0  0.36953220727312436  0.1274090354941322  0.7561782773609309  1.0000
  C   C38       1.0  0.6304686419307471  0.8725916850292494  0.24381911583525095  1.0000
  C   C39       1.0  0.2395828432505311  0.22407686466629434  0.8023007659493189  1.0000
  C   C40       1.0  0.7604172577929232  0.7759222272573325  0.19769760400379974  1.0000
  S   S1        1.0  0.8496270956460138  0.6638701121898123  0.9507355807412452  1.0000
  S   S2        1.0  0.15037481383081533  0.33612736236276675  0.04926339993689062  1.0000
  S   S3        1.0  0.2085308294958708  0.5904118629123261  0.020484574623367297  1.0000
  S   S4        1.0  0.7914660375776561  0.40958560712592634  0.9795193164102969  1.0000
  S   S5        1.0  0.17527670405168996  0.34693164985554864  0.43243018588419346  1.0000
  S   S6        1.0  0.8247203692483889  0.6530690687773487  0.5675712382696075  1.0000
  S   S7        1.0  0.8633098356962277  0.38951014787380006  0.6205147967458231  1.0000
  S   S8        1.0  0.13668878686767266  0.6104897663760127  0.379487189453492  1.0000
  Cl  Cl1       1.0  0.7583635504803256  0.9016979707837434  0.8581860413056432  1.0000
  Cl  Cl2       1.0  0.2416439669284003  0.09829789426931512  0.14181091190379647  1.0000
  Cl  Cl3       1.0  0.4384623523938487  0.7673836325058687  0.011372715661565273  1.0000
  Cl  Cl4       1.0  0.5615373304430094  0.23261303577313444  0.9886308580196966  1.0000
  Cl  Cl5       1.0  0.34301597272670387  0.10548716731589991  0.3811590016044946  1.0000
  Cl  Cl6       1.0  0.6569857544087366  0.8945152147029134  0.6188450750362122  1.0000
  Cl  Cl7       1.0  0.7877137465116847  0.18990528069896578  0.766685643557679  1.0000
  Cl  Cl8       1.0  0.2122797510672711  0.8100946081029009  0.2333163783235079  1.0000
  O   O1        1.0  0.3305170323750772  0.5762403594497058  0.6985501771613299  1.0000
  O   O2        1.0  0.669482491342393  0.423760343497257  0.3014446135230102  1.0000
  O   O3        1.0  0.31446259549544914  0.31829659901413976  0.760432915515473  1.0000
  O   O4        1.0  0.6855357325067711  0.681704119252075  0.23956693285847314  1.0000
  O   O5        1.0  0.6777905322162283  0.612616316730751  0.788815083101305  1.0000
  O   O6        1.0  0.32220886785632535  0.3873811585551863  0.211187049136548  1.0000
