data_image0
_chemical_formula_structural       Cd2H60C36S4N8O12
_chemical_formula_sum              "Cd2 H60 C36 S4 N8 O12"
_cell_length_a       7.561957290419775
_cell_length_b       11.824676572000046
_cell_length_c       12.753360729389982
_cell_angle_alpha    89.99999203857423
_cell_angle_beta     103.03526413693591
_cell_angle_gamma    90.00000813288592

_space_group_name_H-M_alt    "P 1"
_space_group_IT_number       1

loop_
  _space_group_symop_operation_xyz
  'x, y, z'

loop_
  _atom_site_type_symbol
  _atom_site_label
  _atom_site_symmetry_multiplicity
  _atom_site_fract_x
  _atom_site_fract_y
  _atom_site_fract_z
  _atom_site_occupancy
  Cd  Cd1       1.0  0.9999986811931267  0.500000144951059  0.9999997828878477  1.0000
  Cd  Cd2       1.0  0.9999980921991495  8.111004418999999e-07  0.4999981511068512  1.0000
  H   H1        1.0  0.7156255626248083  0.6552830081737324  0.9643872208521034  1.0000
  H   H2        1.0  0.7156234234703759  0.8447165538068049  0.4643877131250989  1.0000
  H   H3        1.0  0.2843767364697882  0.3447147255487052  0.03561352172205551  1.0000
  H   H4        1.0  0.2843748140675829  0.15528202560461318  0.5356116840162813  1.0000
  H   H5        1.0  0.7516497581604826  0.43743186644415033  0.12468005305648694  1.0000
  H   H6        1.0  0.7516505047107885  0.06256830193055408  0.6246809495142928  1.0000
  H   H7        1.0  0.24834984720635597  0.5625667129673744  0.8753187489867856  1.0000
  H   H8        1.0  0.248349058726312  0.937432814548025  0.3753209832558754  1.0000
  H   H9        1.0  0.532927245363247  0.2659514530421347  0.48828394919382134  1.0000
  H   H10       1.0  0.5329293861775141  0.2340486431257744  0.9882842302993072  1.0000
  H   H11       1.0  0.4670696138633518  0.7340471263691201  0.5117168257274188  1.0000
  H   H12       1.0  0.46707155557108143  0.7659541647311628  0.011716324690901586  1.0000
  H   H13       1.0  0.5067631405642673  0.37074587310988977  0.3179407932717099  1.0000
  H   H14       1.0  0.5067652757061155  0.12925424400604874  0.8179403040731046  1.0000
  H   H15       1.0  0.4932364438376028  0.6292527063015283  0.6820595741350887  1.0000
  H   H16       1.0  0.4932356870073775  0.8707477181619013  0.1820586855536277  1.0000
  H   H17       1.0  0.44724276767670545  0.7340564415753189  0.3148488250569415  1.0000
  H   H18       1.0  0.44724355606147276  0.7659439599107714  0.814848914811499  1.0000
  H   H19       1.0  0.5527554488964768  0.2659446749032668  0.6851521374478082  1.0000
  H   H20       1.0  0.5527573961693405  0.2340554651898472  0.18515085749714189  1.0000
  H   H21       1.0  0.7768852230680069  0.668936672840033  0.8024852141687335  1.0000
  H   H22       1.0  0.7768844391552179  0.8310637633634669  0.3024858956380215  1.0000
  H   H23       1.0  0.22311436133406204  0.3310644436386596  0.1975151532379158  1.0000
  H   H24       1.0  0.22311650259311483  0.1689356617370947  0.6975146593523861  1.0000
  H   H25       1.0  0.8401531156364898  0.8054917816308346  0.8535231792174544  1.0000
  H   H26       1.0  0.8401509638087817  0.6945094995353925  0.3535229065503316  1.0000
  H   H27       1.0  0.159849172975882  0.19450933484791477  0.1464783460382719  1.0000
  H   H28       1.0  0.1598486310755689  0.3054890798760751  0.6464766781747002  1.0000
  H   H29       1.0  0.836575769511562  0.2673282784998392  0.077558340599694  1.0000
  H   H30       1.0  0.8365751954207924  0.2326719048979911  0.5775582467004768  1.0000
  H   H31       1.0  0.16342380440775633  0.7326694552224283  0.9224428094889205  1.0000
  H   H32       1.0  0.16342302115238994  0.7673292115805951  0.4224427158042731  1.0000
  H   H33       1.0  0.909461898568182  0.2646854939314167  0.21926936512381448  1.0000
  H   H34       1.0  0.9094626927137598  0.23531552284728005  0.7192686758142912  1.0000
  H   H35       1.0  0.09054037956163799  0.735314776858182  0.780732942813728  1.0000
  H   H36       1.0  0.09053824903470091  0.7646855936314694  0.2807318791760167  1.0000
  H   H37       1.0  0.9013430565163248  0.44400371081962214  0.3134293789486549  1.0000
  H   H38       1.0  0.9013451593998526  0.055995600740409684  0.8134304637663945  1.0000
  H   H39       1.0  0.09865383415779412  0.5559957142808827  0.6865690479272573  1.0000
  H   H40       1.0  0.0986544145196007  0.9440038243600455  0.18657068632211352  1.0000
  H   H41       1.0  0.9176791998521451  0.5720165201780034  0.24244530303064238  1.0000
  H   H42       1.0  0.9176786453877313  0.9279830927408595  0.7424459687441783  1.0000
  H   H43       1.0  0.0823190376858776  0.4279829049225016  0.7575540941106881  1.0000
  H   H44       1.0  0.08232092853184979  0.07201802373777609  0.2575551813442303  1.0000
  H   H45       1.0  0.1069016168151649  0.47877925500404933  0.2732026445681797  1.0000
  H   H46       1.0  0.10690102061000321  0.02122082826354439  0.7732017929625101  1.0000
  H   H47       1.0  0.8930993249332316  0.5212210157856063  0.726797910422178  1.0000
  H   H48       1.0  0.8930972169281546  0.9787802882151553  0.2267976041787136  1.0000
  H   H49       1.0  0.1467510494116624  0.1560304236784873  0.9675872110636804  1.0000
  H   H50       1.0  0.14674892062440392  0.34396794530687913  0.4675869207432584  1.0000
  H   H51       1.0  0.8532512706479666  0.8439681557331439  0.032411966146916875  1.0000
  H   H52       1.0  0.853249316913626  0.6560314797936257  0.532412476398072  1.0000
  H   H53       1.0  0.13788134355776552  0.26763094522283376  0.8725025765540835  1.0000
  H   H54       1.0  0.1378805653953279  0.23236828171902604  0.37250170431708807  1.0000
  H   H55       1.0  0.8621209555368311  0.7323667884996042  0.12749816602008218  1.0000
  H   H56       1.0  0.862117672142695  0.7676311433814789  0.6274976928242425  1.0000
  H   H57       1.0  0.9417662970574412  0.2357823307615377  0.9228339047730927  1.0000
  H   H58       1.0  0.9417655342872139  0.2642169697094729  0.42283224609256825  1.0000
  H   H59       1.0  0.05823599155473861  0.7642162486499303  0.0771676204827827  1.0000
  H   H60       1.0  0.05823406059713682  0.735781609702002  0.5771673386324707  1.0000
  C   C1        1.0  0.5283801087084399  0.3451544617802185  0.5316225119963464  1.0000
  C   C2        1.0  0.5283820332881178  0.1548473884918806  0.031622024083119996  1.0000
  C   C3        1.0  0.4716181183470383  0.6548441176311428  0.46837766782679324  1.0000
  C   C4        1.0  0.4716189084604708  0.8451554193650493  0.9683785309070885  1.0000
  C   C5        1.0  0.5067056964544393  0.4478777817980201  0.47240027037938864  1.0000
  C   C6        1.0  0.5067064413944139  0.052122313941801196  0.9724011680710022  1.0000
  C   C7        1.0  0.4932952557762463  0.5521199519244178  0.5275995019293589  1.0000
  C   C8        1.0  0.49329587866559893  0.947881339604386  0.027598009139289604  1.0000
  C   C9        1.0  0.49664688584300626  0.4499607213122232  0.35989495231981294  1.0000
  C   C10       1.0  0.49664765142697587  0.0500410803643518  0.8598942848938336  1.0000
  C   C11       1.0  0.5033513516951517  0.5500403951664694  0.6401044448214108  1.0000
  C   C12       1.0  0.503349239247271  0.9499600361143475  0.14010414198197202  1.0000
  C   C13       1.0  0.4736662759022395  0.5513749142575789  0.3048903833944721  1.0000
  C   C14       1.0  0.47366711341379647  0.9486254912521943  0.8048888862082749  1.0000
  C   C15       1.0  0.52633194067095  0.448626202221007  0.6951105791102777  1.0000
  C   C16       1.0  0.526332481470682  0.05137477953746131  0.19511069851665752  1.0000
  C   C17       1.0  0.46173168084983024  0.6546597644633394  0.3592475451323338  1.0000
  C   C18       1.0  0.46173113461038895  0.8453414780198399  0.859246655243574  1.0000
  C   C19       1.0  0.5382692923460796  0.3453413520155735  0.6407506618126888  1.0000
  C   C20       1.0  0.5382671029276979  0.15465879276975872  0.14075274189769973  1.0000
  C   C21       1.0  0.8737262239240381  0.7148863445099067  0.8651307321796082  1.0000
  C   C22       1.0  0.8737254538926322  0.785113247033955  0.3651298537127161  1.0000
  C   C23       1.0  0.12627471782435862  0.2851139262797489  0.1348698228107494  1.0000
  C   C24       1.0  0.1262754878556933  0.2148861780666067  0.6348707012776913  1.0000
  C   C25       1.0  0.06795170359897901  0.6941440885555534  0.8541470520259369  1.0000
  C   C26       1.0  0.06794956893627813  0.8058554238259745  0.3541467662072009  1.0000
  C   C27       1.0  0.9320492381493538  0.3058553365450152  0.1458535029644707  1.0000
  C   C28       1.0  0.9320513728121186  0.19414484696368817  0.6458537887831568  1.0000
  C   C29       1.0  0.9583338430151827  0.4830432636591339  0.24973236215333122  1.0000
  C   C30       1.0  0.9583345930165452  0.0169560624201495  0.7497324813167695  1.0000
  C   C31       1.0  0.0416644050053208  0.5169561614414279  0.7502662523062327  1.0000
  C   C32       1.0  0.04166498090297211  0.9830442083693995  0.2502686687716889  1.0000
  C   C33       1.0  0.09048700474065192  0.24062131969932923  0.9435157825122291  1.0000
  C   C34       1.0  0.0904848838781263  0.2593787383610362  0.4435139368195565  1.0000
  C   C35       1.0  0.9095139370076097  0.7593772597121387  0.05648477247822107  1.0000
  C   C36       1.0  0.9095133536598325  0.740619841050382  0.5564854603218237  1.0000
  S   S1        1.0  0.4570090705824441  0.5566934619446471  0.1629668972376095  1.0000
  S   S2        1.0  0.45701262196644177  0.9433010417094962  0.662965775847276  1.0000
  S   S3        1.0  0.5429918711658246  0.4433051174668208  0.8370336577528478  1.0000
  S   S4        1.0  0.5429869729181078  0.0567000747692532  0.33703380887760664  1.0000
  N   N1        1.0  0.8491111756713822  0.676155466924385  0.9705419597704009  1.0000
  N   N2        1.0  0.8491104011281082  0.8238432618814926  0.4705418594106661  1.0000
  N   N3        1.0  0.1508897660769435  0.3238439581761768  0.0294585952200066  1.0000
  N   N4        1.0  0.1508891937562424  0.1761553175299824  0.5294577253143729  1.0000
  N   N5        1.0  0.10960430675348933  0.5724240595001575  0.8548473277691784  1.0000
  N   N6        1.0  0.10960490554776922  0.9275763026443401  0.35484740274088017  1.0000
  N   N7        1.0  0.8903952881309963  0.42757621128949796  0.14515225695576112  1.0000
  N   N8        1.0  0.8903960466831151  0.0724239681453724  0.645152369567711  1.0000
  O   O1        1.0  0.4946609476005507  0.4413177945861477  0.1300608270267816  1.0000
  O   O2        1.0  0.49466310331055047  0.05868150162315541  0.6300579981184811  1.0000
  O   O3        1.0  0.5053372689725749  0.5586824762033444  0.8699401354780179  1.0000
  O   O4        1.0  0.505337848920327  0.9413187691665569  0.36994177419011726  1.0000
  O   O5        1.0  0.5909602036491179  0.6406424888887797  0.14725854279524947  1.0000
  O   O6        1.0  0.5909569343953435  0.8593596415526079  0.6472580587652459  1.0000
  O   O7        1.0  0.40904074858188727  0.3593594732791132  0.8527412295132423  1.0000
  O   O8        1.0  0.40904266048933385  0.14064316630432933  0.3527415259595373  1.0000
  O   O9        1.0  0.2682888092617048  0.5935756484018383  0.11669932510222482  1.0000
  O   O10       1.0  0.2682869046097949  0.9064230712022904  0.6166990230968353  1.0000
  O   O11       1.0  0.7317121429691087  0.4064237766987801  0.8833004472064163  1.0000
  O   O12       1.0  0.7317126902747547  0.09357804527645189  0.3833005616280545  1.0000
