data_image0
_chemical_formula_structural       Hg4H28C28I8N8
_chemical_formula_sum              "Hg4 H28 C28 I8 N8"
_cell_length_a       8.03184918148171
_cell_length_b       11.72997841131658
_cell_length_c       13.075510668928192
_cell_angle_alpha    105.91149281485207
_cell_angle_beta     89.99711991479758
_cell_angle_gamma    109.99368395027419

_space_group_name_H-M_alt    "P 1"
_space_group_IT_number       1

loop_
  _space_group_symop_operation_xyz
  'x, y, z'

loop_
  _atom_site_type_symbol
  _atom_site_label
  _atom_site_symmetry_multiplicity
  _atom_site_fract_x
  _atom_site_fract_y
  _atom_site_fract_z
  _atom_site_occupancy
  Hg  Hg1       1.0  0.8800778504583564  0.8460108741636676  0.5691963510013452  1.0000
  Hg  Hg2       1.0  0.03308269801961929  0.15342649606550654  0.9305493730873806  1.0000
  Hg  Hg3       1.0  0.11991404707364951  0.15398941224538734  0.4308017596697695  1.0000
  Hg  Hg4       1.0  0.9669146350194424  0.8465747021465758  0.06945431930611784  1.0000
  H   H1        1.0  0.22017491195653352  0.6693872307021068  0.8239552583268549  1.0000
  H   H2        1.0  0.5505987442010467  0.33051364533939426  0.6763256802798168  1.0000
  H   H3        1.0  0.7798249212522919  0.3306139873889934  0.176045379814795  1.0000
  H   H4        1.0  0.4493972926537353  0.6694799751121181  0.3236745861153024  1.0000
  H   H5        1.0  0.05155145088428974  0.437251187369192  0.7427435868576211  1.0000
  H   H6        1.0  0.6137475961435683  0.5626282637971229  0.7578903637842558  1.0000
  H   H7        1.0  0.9484505982814538  0.5627519731722758  0.2572506541815969  1.0000
  H   H8        1.0  0.38626202223762357  0.437370111882295  0.24210879810198796  1.0000
  H   H9        1.0  0.8195066837188208  0.3682710298725453  0.5880173925723824  1.0000
  H   H10       1.0  0.45026809426234143  0.63129139958793  0.9124736762494053  1.0000
  H   H11       1.0  0.18049535511860174  0.6317321102991046  0.4119799025672251  1.0000
  H   H12       1.0  0.5497407376043811  0.3687078942139905  0.08753030421274843  1.0000
  H   H13       1.0  0.7585753253276478  0.5348689656865275  0.5249846866925907  1.0000
  H   H14       1.0  0.2227158670100167  0.4645746882623173  0.9752199416860776  1.0000
  H   H15       1.0  0.24142470531331378  0.4651351386851346  0.4750105553727622  1.0000
  H   H16       1.0  0.7772895375461175  0.5354227295365633  0.024780510127953886  1.0000
  H   H17       1.0  0.3808498195305178  0.011893845285015903  0.8767647996613234  1.0000
  H   H18       1.0  0.3689558336606711  0.9878993985855832  0.6231804648947944  1.0000
  H   H19       1.0  0.6191475419114312  0.9881074089440885  0.12323049395608611  1.0000
  H   H20       1.0  0.6310322520247951  0.012093259629153901  0.3768218551803884  1.0000
  H   H21       1.0  0.43213528541141233  0.8747225030200312  0.8137362967780604  1.0000
  H   H22       1.0  0.5570072844200668  0.125197321355742  0.6863533793521127  1.0000
  H   H23       1.0  0.5678636180745116  0.1252768538545936  0.18625852198871942  1.0000
  H   H24       1.0  0.4429887369422262  0.8747962685410331  0.3136514681936049  1.0000
  H   H25       1.0  0.2867883078447663  0.8709139848075936  0.9153979961262237  1.0000
  H   H26       1.0  0.41551226849384193  0.12901043318145614  0.5846632405652628  1.0000
  H   H27       1.0  0.7132085796984456  0.1290863209896784  0.08459706014159  1.0000
  H   H28       1.0  0.5844814501308164  0.8709860231168565  0.4153392651560068  1.0000
  C   C1        1.0  0.07976810713503822  0.7238184890121957  0.7155145708140509  1.0000
  C   C2        1.0  0.35502618512094847  0.2758118826751712  0.7844187928057379  1.0000
  C   C3        1.0  0.9202374793607433  0.2761817845125023  0.28448506607427493  1.0000
  C   C4        1.0  0.6449722212275047  0.7241864799355113  0.21558266033733275  1.0000
  C   C5        1.0  0.11885030216915736  0.6364643962267422  0.7568268105432453  1.0000
  C   C6        1.0  0.48174488935703863  0.36322025715934814  0.7433056075880842  1.0000
  C   C7        1.0  0.8811491342253034  0.3635435023630649  0.2431693810719224  1.0000
  C   C8        1.0  0.5182603974334085  0.6367819083819697  0.2566952676002572  1.0000
  C   C9        1.0  0.024444650892341643  0.5072328729575445  0.7118526252559789  1.0000
  C   C10       1.0  0.5163391479818242  0.4924502823969873  0.7884238878361316  1.0000
  C   C11       1.0  0.9755576721579332  0.49276834464274083  0.2881480127342186  1.0000
  C   C12       1.0  0.4836637615687068  0.507547125707795  0.2115780911795468  1.0000
  C   C13       1.0  0.8942150809642798  0.4684374954073433  0.6266380218161487  1.0000
  C   C14       1.0  0.4247805136444569  0.5311633236453163  0.8736196471510311  1.0000
  C   C15       1.0  0.1057806180859373  0.5315703988262187  0.37335893355129457  1.0000
  C   C16       1.0  0.5752289766427268  0.46883977940670724  0.1263829922099191  1.0000
  C   C17       1.0  0.8618651364224306  0.5609629375108653  0.5902679828975366  1.0000
  C   C18       1.0  0.2997489420087832  0.4385619753117781  0.9097920062038868  1.0000
  C   C19       1.0  0.13813720212032624  0.4390383106441648  0.40972807394206967  1.0000
  C   C20       1.0  0.7002591188359589  0.5614382671673753  0.09021221168358552  1.0000
  C   C21       1.0  0.17402754834427706  0.8621014763483784  0.7628052233966754  1.0000
  C   C22       1.0  0.3113952206223445  0.13755388335011534  0.7371529317328793  1.0000
  C   C23       1.0  0.8259623280808626  0.13789974879841083  0.23719465182568197  1.0000
  C   C24       1.0  0.6885905494150889  0.8624416158038812  0.2628508641433526  1.0000
  C   C25       1.0  0.32588480632274036  0.9084214866465246  0.8471425119183493  1.0000
  C   C26       1.0  0.41714070777999274  0.09139741418157141  0.6528604930681682  1.0000
  C   C27       1.0  0.6741130238537849  0.0915807058295002  0.1528545460988511  1.0000
  C   C28       1.0  0.5828523601704491  0.9085952481440033  0.3471410631790164  1.0000
  I   I1        1.0  0.0864544379787587  0.8613547547977375  0.40060533107651947  1.0000
  I   I2        1.0  0.22502019999021877  0.13926502080425243  0.099453328385593  1.0000
  I   I3        1.0  0.9135507743093997  0.1386397869054932  0.599398989763607  1.0000
  I   I4        1.0  0.7749796306365297  0.8607361921943878  0.9005480732811576  1.0000
  I   I5        1.0  0.5243922842407257  0.7462921344520267  0.589000844019118  1.0000
  I   I6        1.0  0.7769707900274485  0.2531163365447782  0.9107033580400881  1.0000
  I   I7        1.0  0.475604951435372  0.2536939179330204  0.4109944691759821  1.0000
  I   I8        1.0  0.22304385413602998  0.7468896059740828  0.08930075666754789  1.0000
  N   N1        1.0  0.9526000997253519  0.6846820501806762  0.6333387840076412  1.0000
  N   N2        1.0  0.26678548059209123  0.31485081044447594  0.8665252117394858  1.0000
  N   N3        1.0  0.0473986705024032  0.31532202388164887  0.3666610392840326  1.0000
  N   N4        1.0  0.7332198010341955  0.6851513449119296  0.13347719049905038  1.0000
  N   N5        1.0  0.11799098394267554  0.9365055424669109  0.7268448207321896  1.0000
  N   N6        1.0  0.18109010085269972  0.06304809046908132  0.7730861942650763  1.0000
  N   N7        1.0  0.8819996531761235  0.0634947136328137  0.273157871165246  1.0000
  N   N8        1.0  0.8189088487326259  0.9369588342266014  0.226913577625993  1.0000
