data_image0
_chemical_formula_structural       Zn4H50C78N10O22F8
_chemical_formula_sum              "Zn4 H50 C78 N10 O22 F8"
_cell_length_a       12.397632994151532
_cell_length_b       14.254631954302104
_cell_length_c       16.24627440439078
_cell_angle_alpha    83.70726184884877
_cell_angle_beta     71.33564048473676
_cell_angle_gamma    70.5647620553994

_space_group_name_H-M_alt    "P 1"
_space_group_IT_number       1

loop_
  _space_group_symop_operation_xyz
  'x, y, z'

loop_
  _atom_site_type_symbol
  _atom_site_label
  _atom_site_symmetry_multiplicity
  _atom_site_fract_x
  _atom_site_fract_y
  _atom_site_fract_z
  _atom_site_occupancy
  Zn  Zn1       1.0  0.6968899968353028  0.28561467799183055  0.23263588313091074  1.0000
  Zn  Zn2       1.0  0.3031103925989812  0.7143843394751954  0.7673654246885491  1.0000
  Zn  Zn3       1.0  0.052898873093340605  0.7625652253650372  0.3586741648710969  1.0000
  Zn  Zn4       1.0  0.9470941445944449  0.23743749994957142  0.6413279162867057  1.0000
  H   H1        1.0  0.5946787425069219  0.2610701278963816  0.38118803921315697  1.0000
  H   H2        1.0  0.405319389832428  0.7389302555663307  0.6188099712883857  1.0000
  H   H3        1.0  0.6944859707031412  0.31146624716238597  0.3919960943603512  1.0000
  H   H4        1.0  0.305511307915566  0.6885341584921748  0.6080027421434906  1.0000
  H   H5        1.0  0.043697793489819524  0.3791735091658239  0.18223983632918822  1.0000
  H   H6        1.0  0.956306853763749  0.6208255215792564  0.8177610237930395  1.0000
  H   H7        1.0  0.6158853619330175  0.7566319513287355  0.08488768460265558  1.0000
  H   H8        1.0  0.3841135957181195  0.24336184595849636  0.9151139971263405  1.0000
  H   H9        1.0  0.27843802200584383  0.24368182393770615  0.4436948507685514  1.0000
  H   H10       1.0  0.7215688990015607  0.7563179459813442  0.5563053527188302  1.0000
  H   H11       1.0  0.0057374981660487274  0.3329453723076696  0.31623344283917015  1.0000
  H   H12       1.0  0.9942597570874625  0.6670553025277786  0.6837733720122543  1.0000
  H   H13       1.0  0.36438038823257557  0.3374090362191424  0.1749274649105743  1.0000
  H   H14       1.0  0.6356199943607308  0.6625831687896024  0.8250709755101083  1.0000
  H   H15       1.0  0.9125588285300809  0.23525256846272674  0.0789592688588883  1.0000
  H   H16       1.0  0.08743846232157178  0.7647545875314565  0.9210405938865946  1.0000
  H   H17       1.0  0.08212024942357488  0.08240926073525402  0.017523168628571305  1.0000
  H   H18       1.0  0.9178767963244284  0.9176028078166565  0.9824675389882175  1.0000
  H   H19       1.0  0.07567131010387851  0.917453519162784  0.0896453283477641  1.0000
  H   H20       1.0  0.9243336952710521  0.0825553766245761  0.9103382366719047  1.0000
  H   H21       1.0  0.9009833635971348  0.9127112976639253  0.21822994453921057  1.0000
  H   H22       1.0  0.09902871028861432  0.0872879870982217  0.7817548697106176  1.0000
  H   H23       1.0  0.7367287644301967  0.07341724992168963  0.270750749808137  1.0000
  H   H24       1.0  0.26327986484981375  0.9265778718561323  0.729244048918325  1.0000
  H   H25       1.0  0.9300085889539818  0.5041523601222764  0.27395468554743735  1.0000
  H   H26       1.0  0.06999662461213774  0.49584745418048476  0.7260471699445503  1.0000
  H   H27       1.0  0.8228962421256156  0.8049520646068659  0.18468015910089258  1.0000
  H   H28       1.0  0.17710756350556522  0.19504455186086744  0.8153156614716934  1.0000
  H   H29       1.0  0.6776583837773201  0.5923172614405915  0.1262195081737687  1.0000
  H   H30       1.0  0.3223456682718293  0.4076721302375432  0.8737832842898215  1.0000
  H   H31       1.0  0.2451374845517336  0.7816407890748424  0.4140523686301306  1.0000
  H   H32       1.0  0.7548603698491547  0.21836258813193873  0.5859459641668749  1.0000
  H   H33       1.0  0.464772756848653  0.6938734178687582  0.3922783035818114  1.0000
  H   H34       1.0  0.535223970802086  0.3061306216296487  0.6077177668371975  1.0000
  H   H35       1.0  0.5654995742410875  0.5400584016108426  0.29811896160443047  1.0000
  H   H36       1.0  0.4344906164445632  0.4599449475542059  0.7018800543037925  1.0000
  H   H37       1.0  0.44382795074083253  0.4821669186491917  0.23128737405074418  1.0000
  H   H38       1.0  0.5561574131843444  0.5178402581438634  0.7687154606603173  1.0000
  H   H39       1.0  0.22381986046274696  0.5796320228281788  0.2604627884930579  1.0000
  H   H40       1.0  0.7761711956934861  0.42037576295898305  0.7395348581358688  1.0000
  H   H41       1.0  0.8931190747541818  0.9450783686992709  0.44835693807445426  1.0000
  H   H42       1.0  0.10687647209203989  0.05491776746858791  0.5516483897442939  1.0000
  H   H43       1.0  0.847945661437464  0.1309192062270768  0.42512093017919744  1.0000
  H   H44       1.0  0.15205158158309465  0.8690747182687562  0.574884858430579  1.0000
  H   H45       1.0  0.9904277144430365  0.19319790715345425  0.30477156687295104  1.0000
  H   H46       1.0  0.009561875297919272  0.8068027603464784  0.6952365448087292  1.0000
  H   H47       1.0  0.17803262788919483  0.06982899644349061  0.21398599905680268  1.0000
  H   H48       1.0  0.8219530288360275  0.9301773124813624  0.7860131731250773  1.0000
  H   H49       1.0  0.20894598388969154  0.8876351458858807  0.2447367586773268  1.0000
  H   H50       1.0  0.7910439283744851  0.11236890549759689  0.7552610100077289  1.0000
  C   C1        1.0  0.45675374186802753  0.2779037591605586  0.3114805595165037  1.0000
  C   C2        1.0  0.5432449608615357  0.7220996579730325  0.6885187884353456  1.0000
  C   C3        1.0  0.0412087855047858  0.26276786169522387  0.46708728436119173  1.0000
  C   C4        1.0  0.9587921725223792  0.7372342101489124  0.5329159746276134  1.0000
  C   C5        1.0  0.33305757228074384  0.2895310628271731  0.30966462196862204  1.0000
  C   C6        1.0  0.6669442438930275  0.7104663416551489  0.6903328308234791  1.0000
  C   C7        1.0  0.25094365236439126  0.26921015181287805  0.3857341087150489  1.0000
  C   C8        1.0  0.7490573046967698  0.7307873369799582  0.6142660112364878  1.0000
  C   C9        1.0  0.13327787162672425  0.2831692771668131  0.38723646993769023  1.0000
  C   C10       1.0  0.8667273342671038  0.7168283284351846  0.6127662709118339  1.0000
  C   C11       1.0  0.09886738589266028  0.31866460421915127  0.3132768544104323  1.0000
  C   C12       1.0  0.9011341433560319  0.6813358975383538  0.6867239892723519  1.0000
  C   C13       1.0  0.18114460431779372  0.33753951034449176  0.23644838110754313  1.0000
  C   C14       1.0  0.8188571916024262  0.6624558303806154  0.763554253075405  1.0000
  C   C15       1.0  0.2997097188276072  0.3226492055621648  0.23392999787331092  1.0000
  C   C16       1.0  0.7002903709656464  0.6773438673147892  0.7660721050765603  1.0000
  C   C17       1.0  0.18448884658381806  0.40481151484610944  0.08683867325965623  1.0000
  C   C18       1.0  0.8155373884411643  0.5951889438280064  0.9131560142087238  1.0000
  C   C19       1.0  0.09072434267463342  0.45394242969781123  0.04051467176180519  1.0000
  C   C20       1.0  0.9092859806340884  0.5460573963973658  0.959486523749689  1.0000
  C   C21       1.0  0.05698502530120215  0.5560732714511404  0.02449456746565909  1.0000
  C   C22       1.0  0.9430221922355955  0.4439347759960768  0.9755076378480395  1.0000
  C   C23       1.0  0.9674351216480873  0.6007018169091795  0.9852072712309408  1.0000
  C   C24       1.0  0.032577759710918  0.3993002755485194  0.014794243230383582  1.0000
  C   C25       1.0  0.9132602264733196  0.16234108491182297  0.1070228254576122  1.0000
  C   C26       1.0  0.08673962733758606  0.8376659838005626  0.892973945561927  1.0000
  C   C27       1.0  0.007357679837824094  0.07697990427566741  0.07370789050207088  1.0000
  C   C28       1.0  0.9926410602871985  0.9230299733104417  0.9262838916247917  1.0000
  C   C29       1.0  0.0032320610904079945  0.9859604188823355  0.11388357202710607  1.0000
  C   C30       1.0  0.9967717896085306  0.014044866738672106  0.8861037973629565  1.0000
  C   C31       1.0  0.9053306388329857  0.9828727878134418  0.18526938192321302  1.0000
  C   C32       1.0  0.0946771700442  0.0171265664955413  0.8147183349000215  1.0000
  C   C33       1.0  0.8147690622862529  0.0714707585368899  0.21476251502856053  1.0000
  C   C34       1.0  0.1852361764423875  0.9285287658787669  0.7852307483967991  1.0000
  C   C35       1.0  0.8031937145663549  0.4315288488152903  0.20441939751216157  1.0000
  C   C36       1.0  0.19681233689281902  0.5684642343684488  0.795581833173962  1.0000
  C   C37       1.0  0.9666209136169853  0.6766667367694552  0.27368429793134663  1.0000
  C   C38       1.0  0.03337976730303178  0.32333372506123953  0.726315530596608  1.0000
  C   C39       1.0  0.8036691840852371  0.5367715112682206  0.19988390937998446  1.0000
  C   C40       1.0  0.19633941775192199  0.4632216295772765  0.8001185256135132  1.0000
  C   C41       1.0  0.8775106224898365  0.5598347007332976  0.23842138079982092  1.0000
  C   C42       1.0  0.12249402428072645  0.4401620384861289  0.7615779098037692  1.0000
  C   C43       1.0  0.8842023736855681  0.6560573314392003  0.2328726523630919  1.0000
  C   C44       1.0  0.11579916814438458  0.3439430253747561  0.7671238952863888  1.0000
  C   C45       1.0  0.8163837009144501  0.7305014829563917  0.18961966981096623  1.0000
  C   C46       1.0  0.18362292764121688  0.26949225954769673  0.8103788739306452  1.0000
  C   C47       1.0  0.7409799952541788  0.7078140157791067  0.1518887346561827  1.0000
  C   C48       1.0  0.2590220911857699  0.2921781862583686  0.848109281197992  1.0000
  C   C49       1.0  0.7339104686566175  0.6110291716716888  0.1573251720134721  1.0000
  C   C50       1.0  0.26609246659501196  0.3889653618182508  0.8426754285141698  1.0000
  C   C51       1.0  0.6729649247351973  0.8745856068539979  0.08563353413295968  1.0000
  C   C52       1.0  0.32703459826250025  0.1254043909396216  0.914366003928521  1.0000
  C   C53       1.0  0.5805389860568012  0.9352609229391576  0.042058946020851785  1.0000
  C   C54       1.0  0.4194579708699991  0.0647314950743407  0.9579464807233008  1.0000
  C   C55       1.0  0.5959747117625864  0.9228554061078855  0.9546160778748957  1.0000
  C   C56       1.0  0.4040250757609983  0.0771363466427246  0.04539118668074591  1.0000
  C   C57       1.0  0.516732842408004  0.9864877343276535  0.9130319837899136  1.0000
  C   C58       1.0  0.48326497411440533  0.013506890900977503  0.08697234531344121  1.0000
  C   C59       1.0  0.2941096014943483  0.7160379441660611  0.3730068543879598  1.0000
  C   C60       1.0  0.7058839968845801  0.28396539905644863  0.6269913123872402  1.0000
  C   C61       1.0  0.415197938989536  0.6662571417347251  0.36132848052384503  1.0000
  C   C62       1.0  0.584796795609158  0.3337477271907049  0.6386704495527694  1.0000
  C   C63       1.0  0.4707287955100128  0.5811027390951296  0.3096327174595004  1.0000
  C   C64       1.0  0.5292659350110257  0.4188998797170954  0.6903658705365671  1.0000
  C   C65       1.0  0.4033902284438399  0.5486539903380034  0.2715093019369093  1.0000
  C   C66       1.0  0.5965965568288568  0.4513516355890062  0.7284915189039225  1.0000
  C   C67       1.0  0.2824611536593269  0.6023265348155321  0.28619674641984  1.0000
  C   C68       1.0  0.7175281909779728  0.3976790452421355  0.7138022101331387  1.0000
  C   C69       1.0  0.9532153026887895  0.9770068652856737  0.39765749095837327  1.0000
  C   C70       1.0  0.04678167545757359  0.022992199536332705  0.6023458934322008  1.0000
  C   C71       1.0  0.9289653264622119  0.0789502462660678  0.3844778273907679  1.0000
  C   C72       1.0  0.071028522412341  0.9210481222800412  0.6155276533559899  1.0000
  C   C73       1.0  0.009199603252149312  0.11376966990524548  0.3171496316616924  1.0000
  C   C74       1.0  0.9907922597596442  0.8862294452430035  0.6828562538664968  1.0000
  C   C75       1.0  0.11274712366348888  0.0452858818443005  0.2665193742153065  1.0000
  C   C76       1.0  0.8872402125771754  0.95471611023887  0.7334842127103657  1.0000
  C   C77       1.0  0.13048760827244626  0.9443144439860944  0.2835390925593799  1.0000
  C   C78       1.0  0.8695048318358474  0.05568533048251109  0.7164641060242971  1.0000
  N   N1        1.0  0.13321199350292556  0.3739054054023541  0.1673855514199332  1.0000
  N   N2        1.0  0.8667858288944571  0.6260914492332574  0.8326185060449235  1.0000
  N   N3        1.0  0.8188924536677218  0.1597337188030893  0.1765827756092763  1.0000
  N   N4        1.0  0.18111022438199614  0.8402681637137802  0.8234145353416125  1.0000
  N   N5        1.0  0.6703112118999786  0.7801008595682365  0.1073831706701539  1.0000
  N   N6        1.0  0.32969314110452075  0.21989216446810642  0.8926166434253489  1.0000
  N   N7        1.0  0.22926724944301938  0.6849195751880187  0.33571486913201903  1.0000
  N   N8        1.0  0.7707246460552782  0.3150883540570604  0.664286861246964  1.0000
  N   N9        1.0  0.05194204806541324  0.910575683081156  0.3473862384285198  1.0000
  N   N10       1.0  0.9480591932921955  0.08942333290023902  0.6526148571076861  1.0000
  O   O1        1.0  0.5327297008496003  0.2917694227631388  0.23918598302805097  1.0000
  O   O2        1.0  0.4672681617065777  0.7082384546700596  0.7608130339300558  1.0000
  O   O3        1.0  0.4795351983751673  0.2567010885756176  0.3834370277448045  1.0000
  O   O4        1.0  0.5204640783392378  0.7433053208164253  0.6165624302192542  1.0000
  O   O5        1.0  0.078620042205678  0.23426004474416126  0.5347157755579346  1.0000
  O   O6        1.0  0.9213780793497292  0.7657404629558827  0.4652859172578729  1.0000
  O   O7        1.0  0.9375568976960336  0.2730725728356518  0.46549349899873954  1.0000
  O   O8        1.0  0.06244209161029352  0.7269346423059205  0.5345077803373712  1.0000
  O   O9        1.0  0.291337890584373  0.3979167985172865  0.05251493800266621  1.0000
  O   O10       1.0  0.7086525416102846  0.6020816795024759  0.9474944604723418  1.0000
  O   O11       1.0  0.6854928588304219  0.2604841007011913  0.36193775729991273  1.0000
  O   O12       1.0  0.3145080905584479  0.7395111793908811  0.6380632480091606  1.0000
  O   O13       1.0  0.7074833084266531  0.4184745806909547  0.19777700896108286  1.0000
  O   O14       1.0  0.2925216172483829  0.5815237478356963  0.8022250983843122  1.0000
  O   O15       1.0  0.8914620845305451  0.3618751596637324  0.2155834949833633  1.0000
  O   O16       1.0  0.10854340600803881  0.6381170778436597  0.7844148991758785  1.0000
  O   O17       1.0  0.9723119944110866  0.766663318905671  0.267252274209376  1.0000
  O   O18       1.0  0.027684432767301762  0.2333393797601745  0.7327483440963576  1.0000
  O   O19       1.0  0.02541244176345713  0.6081363427814566  0.3126137158185429  1.0000
  O   O20       1.0  0.9745882396395656  0.3918664105748846  0.6873876822280494  1.0000
  O   O21       1.0  0.7406698370146357  0.9136328015894507  0.09937023940601364  1.0000
  O   O22       1.0  0.2593387940626926  0.0863622994821469  0.90062394560141  1.0000
  F   F1        1.0  0.9343633232308833  0.7008999136325899  0.9730739829656158  1.0000
  F   F2        1.0  0.06564701493942243  0.29910203833846793  0.026923872312160303  1.0000
  F   F3        1.0  0.10911776907684607  0.6136445434213302  0.048761241749282626  1.0000
  F   F4        1.0  0.8908888614108365  0.3863583651853446  0.9512435800668725  1.0000
  F   F5        1.0  0.6911725574431318  0.8491925414503926  0.9085573025616396  1.0000
  F   F6        1.0  0.30882782431886113  0.1508042673158698  0.09144489061535668  1.0000
  F   F7        1.0  0.5355275337363068  0.972493306161262  0.827983649306006  1.0000
  F   F8        1.0  0.4644759593242683  0.0275044059431124  0.17202258470525317  1.0000
