data_image0
_chemical_formula_structural       Ag2H24C12S6Cl2O8
_chemical_formula_sum              "Ag2 H24 C12 S6 Cl2 O8"
_cell_length_a       8.382059815317737
_cell_length_b       8.381993152578659
_cell_length_c       8.382070972388764
_cell_angle_alpha    82.40010472664217
_cell_angle_beta     82.39907204071437
_cell_angle_gamma    82.39970150222078

_space_group_name_H-M_alt    "P 1"
_space_group_IT_number       1

loop_
  _space_group_symop_operation_xyz
  'x, y, z'

loop_
  _atom_site_type_symbol
  _atom_site_label
  _atom_site_symmetry_multiplicity
  _atom_site_fract_x
  _atom_site_fract_y
  _atom_site_fract_z
  _atom_site_occupancy
  Ag  Ag1       1.0  0.8981224303333022  0.8981320489073992  0.8981262427762288  1.0000
  Ag  Ag2       1.0  0.10187400854292862  0.10187415351100527  0.10187304157089729  1.0000
  H   H1        1.0  0.26043586465992524  0.6135405407656478  0.8439910912329226  1.0000
  H   H2        1.0  0.8439995402268039  0.2604356107162359  0.6135395663255423  1.0000
  H   H3        1.0  0.1560063686207371  0.3864605344541657  0.7395614146597465  1.0000
  H   H4        1.0  0.6135278475809685  0.8440016049864666  0.2604313243703941  1.0000
  H   H5        1.0  0.26043183815644266  0.8440016916080281  0.6135250054741731  1.0000
  H   H6        1.0  0.6135382305500555  0.2604364547585688  0.8440023000717075  1.0000
  H   H7        1.0  0.1559986666760622  0.7395657455830857  0.3864577352774318  1.0000
  H   H8        1.0  0.3864753173483209  0.15599853738566336  0.7395631005497805  1.0000
  H   H9        1.0  0.7395719801768622  0.3864608141411522  0.15599778946226187  1.0000
  H   H10       1.0  0.8440002738233119  0.6135408229529343  0.2604264302438962  1.0000
  H   H11       1.0  0.7395662283446638  0.1560008765929481  0.386472155732001  1.0000
  H   H12       1.0  0.3864621030193404  0.7395673230020207  0.15599440557216582  1.0000
  H   H13       1.0  0.24907982590577396  0.44875189277082217  0.9993061586139188  1.0000
  H   H14       1.0  0.9993106706181724  0.2490821325820888  0.4487446738980621  1.0000
  H   H15       1.0  0.000691327277827726  0.551252220204688  0.7509147241753451  1.0000
  H   H16       1.0  0.44873866966604226  0.9993158152817402  0.24908439559619913  1.0000
  H   H17       1.0  0.24908082372863297  0.9993177603519569  0.4487414534555612  1.0000
  H   H18       1.0  0.4487414668631828  0.24908294817588938  0.9993076171021187  1.0000
  H   H19       1.0  0.0006876766864465284  0.7509180118155709  0.5512527681017048  1.0000
  H   H20       1.0  0.5512634252185364  0.0006831097133926003  0.750916294174992  1.0000
  H   H21       1.0  0.7509205157173539  0.5512518929654104  0.0006833867841820353  1.0000
  H   H22       1.0  0.9993151761067552  0.44875035043333605  0.24907178695720222  1.0000
  H   H23       1.0  0.7509160376951556  0.0006848076907602003  0.5512570587076623  1.0000
  H   H24       1.0  0.5512591515365912  0.7509184097692128  0.0006857892124613686  1.0000
  C   C1        1.0  0.17647506696267357  0.5391063457953746  0.923051784521533  1.0000
  C   C2        1.0  0.9230577266484802  0.17647559769656598  0.5391040894222668  1.0000
  C   C3        1.0  0.07694484447795699  0.4608953307388575  0.823520229611695  1.0000
  C   C4        1.0  0.5390982801617312  0.9230625753898707  0.1764721525757054  1.0000
  C   C5        1.0  0.17647140719351037  0.9230626956294684  0.5390979109792085  1.0000
  C   C6        1.0  0.5391052381366208  0.17647458430270282  0.9230557282771626  1.0000
  C   C7        1.0  0.07693913611760193  0.8235269716754273  0.460893229366661  1.0000
  C   C8        1.0  0.46090127087791904  0.07693756783677227  0.8235251318413075  1.0000
  C   C9        1.0  0.8235303744309307  0.46089501544128797  0.07693383121626599  1.0000
  C   C10       1.0  0.9230616602489121  0.5391072412284429  0.17646508814655698  1.0000
  C   C11       1.0  0.8235255973166175  0.07693866317014648  0.460898354832217  1.0000
  C   C12       1.0  0.46089403612637614  0.8235279867150708  0.07693769522337127  1.0000
  S   S1        1.0  0.05729000911910022  0.6746090302729754  0.05727622834050548  1.0000
  S   S2        1.0  0.057288557246607814  0.057292607127621395  0.6745992827490211  1.0000
  S   S3        1.0  0.9427175643101863  0.3253947577420532  0.9427040179410181  1.0000
  S   S4        1.0  0.6745974767523677  0.05729518577268069  0.05729271173566991  1.0000
  S   S5        1.0  0.9427093701950326  0.9427111743042785  0.32539654468605766  1.0000
  S   S6        1.0  0.32539910252562265  0.942709804744069  0.9427067130082561  1.0000
  Cl  Cl1       1.0  0.6460561061284267  0.6460475597430245  0.6460506508349724  1.0000
  Cl  Cl2       1.0  0.353952506472929  0.35395741507570466  0.3539507782043145  1.0000
  O   O1        1.0  0.7369045498216735  0.7368675672922009  0.7369121931158131  1.0000
  O   O2        1.0  0.263107919382918  0.2631143656020639  0.2631048729971183  1.0000
  O   O3        1.0  0.545399054671826  0.5454144060890583  0.7621288596649689  1.0000
  O   O4        1.0  0.7621400953006088  0.5454233017403708  0.5453894027875562  1.0000
  O   O5        1.0  0.23786824455095967  0.45458410485731077  0.45460458521236546  1.0000
  O   O6        1.0  0.5454156520406741  0.762176520464294  0.5454175035614952  1.0000
  O   O7        1.0  0.4545967873193107  0.23783692766483705  0.454587085866379  1.0000
  O   O8        1.0  0.4546011452072563  0.4545905902195527  0.23786173871062738  1.0000
