data_image0
_chemical_formula_structural       Zn2H56C60N2O12
_chemical_formula_sum              "Zn2 H56 C60 N2 O12"
_cell_length_a       14.454742303006586
_cell_length_b       18.252978963563294
_cell_length_c       19.575468561588075
_cell_angle_alpha    90.00195749691454
_cell_angle_beta     89.92678107475868
_cell_angle_gamma    89.99833055698929

_space_group_name_H-M_alt    "P 1"
_space_group_IT_number       1

loop_
  _space_group_symop_operation_xyz
  'x, y, z'

loop_
  _atom_site_type_symbol
  _atom_site_label
  _atom_site_symmetry_multiplicity
  _atom_site_fract_x
  _atom_site_fract_y
  _atom_site_fract_z
  _atom_site_occupancy
  Zn  Zn1       1.0  0.5000075834954173  0.4227347316393733  0.5000010220882913  1.0000
  Zn  Zn2       1.0  0.5000083737548592  0.5768953212428584  0.49999415835595334  1.0000
  H   H1        1.0  0.6172097141204987  0.5749865133536572  0.8418155411038981  1.0000
  H   H2        1.0  0.4094312317699503  0.8289298231923894  0.4120351199834431  1.0000
  H   H3        1.0  0.4063158410934662  0.1702877829822498  0.413884724273835  1.0000
  H   H4        1.0  0.5905662666972376  0.8289303209335512  0.5879659184212471  1.0000
  H   H5        1.0  0.48984617870762287  0.06710025812422062  0.3901108677201321  1.0000
  H   H6        1.0  0.5099913118159024  0.9323024346666099  0.6098791182192188  1.0000
  H   H7        1.0  0.5101616327813899  0.06711160538133498  0.6098921673685568  1.0000
  H   H8        1.0  0.4900120053284168  0.9322943748035891  0.39012658152906005  1.0000
  H   H9        1.0  0.7239055690510838  0.583525693258828  0.6351815159238967  1.0000
  H   H10       1.0  0.6968468759039083  0.4976062202655384  0.6727341637815272  1.0000
  H   H11       1.0  0.7947661156620213  0.624578601725595  0.7458919319849501  1.0000
  H   H12       1.0  0.6156652419528683  0.4265295879730573  0.1574522418814723  1.0000
  H   H13       1.0  0.7728042916615435  0.5374680581846006  0.7820150246792608  1.0000
  H   H14       1.0  0.8769301903922012  0.47818717614564576  0.6939881653886744  1.0000
  H   H15       1.0  0.9376653735972836  0.5471241442531606  0.7394038057951136  1.0000
  H   H16       1.0  0.8968004032071804  0.5646336758166441  0.6555596753109185  1.0000
  H   H17       1.0  0.7211937187314703  0.41497592090893676  0.3641967332886935  1.0000
  H   H18       1.0  0.6936520700501134  0.5018372439599047  0.3286080498799251  1.0000
  H   H19       1.0  0.7938598327223331  0.3774395659968162  0.2531569132226537  1.0000
  H   H20       1.0  0.7698951472561221  0.4647819165698904  0.2182569787754716  1.0000
  H   H21       1.0  0.8729897554665628  0.5241787675963181  0.3065922860528261  1.0000
  H   H22       1.0  0.9349709456687025  0.4567915526948311  0.2599967277006953  1.0000
  H   H23       1.0  0.3827365230791955  0.5749899578620655  0.1582038467967735  1.0000
  H   H24       1.0  0.8951441386164589  0.4374834813948069  0.3438285052341996  1.0000
  H   H25       1.0  0.2760705453121374  0.5836024984669945  0.3648207764551756  1.0000
  H   H26       1.0  0.3031531466752781  0.4976486577113093  0.3273299071190721  1.0000
  H   H27       1.0  0.2052224109942955  0.6245405894349004  0.2540743143069548  1.0000
  H   H28       1.0  0.2272186266608287  0.5374105342293091  0.21800428483679474  1.0000
  H   H29       1.0  0.12309956960897492  0.4781869250588925  0.30607686388642463  1.0000
  H   H30       1.0  0.0623458575629741  0.5470685553087618  0.2605902481445597  1.0000
  H   H31       1.0  0.10317362044761319  0.5646765791292053  0.34443080566938283  1.0000
  H   H32       1.0  0.2787750187353523  0.41498538839240945  0.6357800235154514  1.0000
  H   H33       1.0  0.3063049813642706  0.501854063547384  0.6713708176842345  1.0000
  H   H34       1.0  0.38426462830645386  0.4265501395122299  0.8425243356636543  1.0000
  H   H35       1.0  0.2061177953244098  0.37744358731064404  0.746816669044442  1.0000
  H   H36       1.0  0.23007143967075902  0.46478286052959555  0.7817238373838151  1.0000
  H   H37       1.0  0.12696706586734757  0.5241836046515189  0.6933995171522869  1.0000
  H   H38       1.0  0.06500172200549059  0.4567917236196807  0.739991512279218  1.0000
  H   H39       1.0  0.10481882348935298  0.43749020679234  0.6561606789603617  1.0000
  H   H40       1.0  0.5620876718021321  0.3255412720104403  0.9563890785483551  1.0000
  H   H41       1.0  0.44920260025395453  0.3311639114791659  0.9226370091552525  1.0000
  H   H42       1.0  0.5428758370505307  0.3686170929541247  0.8762053423223577  1.0000
  H   H43       1.0  0.5612462534094078  0.6761551946013354  0.0441383098023351  1.0000
  H   H44       1.0  0.44785574477134565  0.6703634537341185  0.07721040914202602  1.0000
  H   H45       1.0  0.5870569652263171  0.30723676871808436  0.5837506232950673  1.0000
  H   H46       1.0  0.5410633014851313  0.6328580701922064  0.1240938473991733  1.0000
  H   H47       1.0  0.4378597312296506  0.3255336204927132  0.043583941703936105  1.0000
  H   H48       1.0  0.5507471980268406  0.3311590078221797  0.07732596540251542  1.0000
  H   H49       1.0  0.4570691911145984  0.3686009987834851  0.1237751095558224  1.0000
  H   H50       1.0  0.4386644784964134  0.6761570163054245  0.9558744151866493  1.0000
  H   H51       1.0  0.5520657546559492  0.6703698254231796  0.922809808409717  1.0000
  H   H52       1.0  0.4588594707961491  0.6328677264127762  0.8759252365350177  1.0000
  H   H53       1.0  0.41601341207309167  0.6921346569373836  0.4143481804350984  1.0000
  H   H54       1.0  0.4129594606297359  0.30723807108925166  0.4162494610702154  1.0000
  H   H55       1.0  0.583998610741432  0.6921345290663792  0.5856517927230485  1.0000
  H   H56       1.0  0.5936964267206976  0.17028327317790118  0.5861199007535803  1.0000
  C   C1        1.0  0.49898620997622334  0.49918273786249057  0.3689859573521376  1.0000
  C   C2        1.0  0.4527187646992202  0.7251699607221268  0.45207518371775984  1.0000
  C   C3        1.0  0.4509415606851732  0.2741093630399334  0.4531392918562531  1.0000
  C   C4        1.0  0.5472922992047132  0.7251678929641301  0.5479268097260004  1.0000
  C   C5        1.0  0.5510998616403808  0.19809173898092777  0.5482541838098882  1.0000
  C   C6        1.0  0.4506911279631042  0.801200813786238  0.45073647155705737  1.0000
  C   C7        1.0  0.4489125225223063  0.19809325293253008  0.4517471954685135  1.0000
  C   C8        1.0  0.5493131787210215  0.8011987941096946  0.5492632205225974  1.0000
  C   C9        1.0  0.5000079640994599  0.15801136711822747  0.49999753016092546  1.0000
  C   C10       1.0  0.49999969622460577  0.8412959987667462  0.5000001957846365  1.0000
  C   C11       1.0  0.4928464112358526  0.037758583587716985  0.43858174970342395  1.0000
  C   C12       1.0  0.5010111116496248  0.4991861510427072  0.6310097062385439  1.0000
  C   C13       1.0  0.5070671739016817  0.9616336999164756  0.5614103146848777  1.0000
  C   C14       1.0  0.5071620914104997  0.037758751069496596  0.5614219307038084  1.0000
  C   C15       1.0  0.4929396092482675  0.9616291498584957  0.4385926978611537  1.0000
  C   C16       1.0  0.5000058295506024  0.922094316886202  0.5000009095512468  1.0000
  C   C17       1.0  0.5000018240469473  0.07725413822164741  0.4999988603900576  1.0000
  C   C18       1.0  0.319925188700843  0.5008125430868091  0.49930837259729083  1.0000
  C   C19       1.0  0.6800934665149613  0.50081115696279  0.5006863283980536  1.0000
  C   C20       1.0  0.22012162064675073  0.5004992547004862  0.4991671456659006  1.0000
  C   C21       1.0  0.7799033042335421  0.5004960546074102  0.5008193752198835  1.0000
  C   C22       1.0  0.1352353576842162  0.5003760664623087  0.49940523329109965  1.0000
  C   C23       1.0  0.5030833490504351  0.4337933914493419  0.9640791923169943  1.0000
  C   C24       1.0  0.8647784887289306  0.5003650379118767  0.5005884304432442  1.0000
  C   C25       1.0  0.042679308372818504  0.5002161811136646  0.4997715674016519  1.0000
  C   C26       1.0  0.957335986079265  0.5002318200131768  0.5002011479513229  1.0000
  C   C27       1.0  0.5645414568916464  0.5431520589690495  0.7439905410973183  1.0000
  C   C28       1.0  0.562788125309531  0.4569819011264824  0.2555879920634965  1.0000
  C   C29       1.0  0.4354215979083095  0.5431460390772145  0.256014609738763  1.0000
  C   C30       1.0  0.4371755401835813  0.45699309203836697  0.744398206294477  1.0000
  C   C31       1.0  0.5655357566441097  0.5422324887246432  0.8152752343010832  1.0000
  C   C32       1.0  0.5638394209016012  0.4588832276179175  0.18432878126589713  1.0000
  C   C33       1.0  0.4344128100664477  0.5422291969505934  0.1847395881019906  1.0000
  C   C34       1.0  0.5024663191407086  0.5678686539620442  0.03593237354304082  1.0000
  C   C35       1.0  0.4360943694996422  0.4589037460236866  0.8156543958366954  1.0000
  C   C36       1.0  0.5007907602580772  0.5007090758089772  0.8521035867323761  1.0000
  C   C37       1.0  0.4991476353236663  0.500691647136726  0.1478977147111848  1.0000
  C   C38       1.0  0.501072985926818  0.4997354850668924  0.7075832727112968  1.0000
  C   C39       1.0  0.4989139157521834  0.49972856757908346  0.2924139351487511  1.0000
  C   C40       1.0  0.7090803705447967  0.5560105912876734  0.68394812545899  1.0000
  C   C41       1.0  0.7888712869370805  0.5658296064497889  0.7337772159379412  1.0000
  C   C42       1.0  0.8799410353176568  0.5374072921319167  0.7041450194041944  1.0000
  C   C43       1.0  0.7066322701814086  0.44381961228782524  0.3161179283149309  1.0000
  C   C44       1.0  0.7867326555193798  0.4358949374928542  0.2660722194310736  1.0000
  C   C45       1.0  0.4968411397021839  0.43379300939871257  0.035907308138988  1.0000
  C   C46       1.0  0.8773008864168403  0.465168459763035  0.2957016765540459  1.0000
  C   C47       1.0  0.29091353636960077  0.556038920209062  0.3160804170511469  1.0000
  C   C48       1.0  0.21113098065568892  0.5658019136928446  0.266228127705709  1.0000
  C   C49       1.0  0.1200597633579932  0.5373984353643164  0.2958681486369343  1.0000
  C   C50       1.0  0.29333510925974343  0.44383419772164256  0.6838622544650832  1.0000
  C   C51       1.0  0.21324220765181678  0.43590063910315274  0.7339061944841703  1.0000
  C   C52       1.0  0.12266497724876049  0.46517262900543693  0.7042806835423434  1.0000
  C   C53       1.0  0.5148754026635345  0.3613502582800265  0.9277676290111287  1.0000
  C   C54       1.0  0.5136745905077832  0.6402602717163078  0.0724134569214883  1.0000
  C   C55       1.0  0.4850583818117046  0.36134034175736207  0.0722115762990896  1.0000
  C   C56       1.0  0.49745830527001533  0.567872332554593  0.9640786155833326  1.0000
  C   C57       1.0  0.4862497315896732  0.6402696837558534  0.9276063624319663  1.0000
  C   C58       1.0  0.49934147342838026  0.5008216661663879  0.07195159379730141  1.0000
  C   C59       1.0  0.5005830876694475  0.5008261396687815  0.9280456182225763  1.0000
  C   C60       1.0  0.5490723637996241  0.2741077989033656  0.5468618328296629  1.0000
  N   N1        1.0  0.5000039113447201  0.31143673446782566  0.5000008699566294  1.0000
  N   N2        1.0  0.500007891623703  0.6879171992040581  0.4999994128328921  1.0000
  O   O1        1.0  0.4754540139749395  0.43980890612021967  0.39827415544947803  1.0000
  O   O2        1.0  0.6227059235981542  0.41095440129191013  0.2895759701931482  1.0000
  O   O3        1.0  0.3755236998031036  0.5889803767514151  0.290745424200658  1.0000
  O   O4        1.0  0.37727140928718933  0.41097589006935203  0.7103970932406369  1.0000
  O   O5        1.0  0.4771910500808829  0.558174326096612  0.6013123600291479  1.0000
  O   O6        1.0  0.5245613495034362  0.43981279053861044  0.6017197208879992  1.0000
  O   O7        1.0  0.5228193939229868  0.5581698261958294  0.3986830501925028  1.0000
  O   O8        1.0  0.3587839634207342  0.44079357913118855  0.5155927836328971  1.0000
  O   O9        1.0  0.6415896813809707  0.5610307137031184  0.5168141391065078  1.0000
  O   O10       1.0  0.6412299390604446  0.44078944127670633  0.4844041867521511  1.0000
  O   O11       1.0  0.3584212413075746  0.5610336008557723  0.4831854445878108  1.0000
  O   O12       1.0  0.6244623678219412  0.5889646797709671  0.7092728725267392  1.0000
