data_image0
_chemical_formula_structural       Zr6H27C52N2O32F5
_chemical_formula_sum              "Zr6 H27 C52 N2 O32 F5"
_cell_length_a       14.780377681674562
_cell_length_b       14.785133101930374
_cell_length_c       14.7862580764058
_cell_angle_alpha    60.06480074238913
_cell_angle_beta     60.01230895920636
_cell_angle_gamma    60.03955532785747

_space_group_name_H-M_alt    "P 1"
_space_group_IT_number       1

loop_
  _space_group_symop_operation_xyz
  'x, y, z'

loop_
  _atom_site_type_symbol
  _atom_site_label
  _atom_site_symmetry_multiplicity
  _atom_site_fract_x
  _atom_site_fract_y
  _atom_site_fract_z
  _atom_site_occupancy
  Zr  Zr1       1.0  0.8777371012742919  0.8825291384276068  0.622395414944883  1.0000
  Zr  Zr2       1.0  0.11817715803849176  0.1200396474372525  0.38430997842731773  1.0000
  Zr  Zr3       1.0  0.11625164995237451  0.8811895375873391  0.6234319215751186  1.0000
  Zr  Zr4       1.0  0.8783707992117512  0.12167523209603819  0.3834098964181579  1.0000
  Zr  Zr5       1.0  0.11760930074589035  0.8827075745925866  0.3827232197657864  1.0000
  Zr  Zr6       1.0  0.8781927548740992  0.12213770584467201  0.6221571015589974  1.0000
  H   H1        1.0  0.09184622035428457  0.7194347010663337  0.5957787851714685  1.0000
  H   H2        1.0  0.09339011755089639  0.09499199454673857  0.22079426612570072  1.0000
  H   H3        1.0  0.0915659155770996  0.09525315501299753  0.5986685921065416  1.0000
  H   H4        1.0  0.715041190524303  0.09648712169358474  0.5968558328123381  1.0000
  H   H5        1.0  0.8297885121390041  0.6095529122065031  0.6204241503708731  1.0000
  H   H6        1.0  0.14381891968161417  0.5902504615672937  0.3559811097527472  1.0000
  H   H7        1.0  0.8356543461148858  0.4382595325520315  0.6171109979921355  1.0000
  H   H8        1.0  0.5899022551880007  0.8482058368816537  0.9290600480438302  1.0000
  H   H9        1.0  0.5926014230651546  0.14117925991393326  0.9234442330505603  1.0000
  H   H10       1.0  0.4203828026552614  0.8519506656679354  0.09911515025446971  1.0000
  H   H11       1.0  0.14373895572105516  0.8594406529775184  0.08366416742722295  1.0000
  H   H12       1.0  0.825275419108358  0.11727503525611395  0.11927370622501601  1.0000
  H   H13       1.0  0.1385519381825729  0.8630024630578959  0.9146520115026749  1.0000
  H   H14       1.0  0.587334270353537  0.4276400082130962  0.6407774787011392  1.0000
  H   H15       1.0  0.5919067464108777  0.4209622600434528  0.3504424416884505  1.0000
  H   H16       1.0  0.4173748067070376  0.5970720600207782  0.6362954478662319  1.0000
  H   H17       1.0  0.9818844437316087  0.574929268770255  0.7418872820549753  1.0000
  H   H18       1.0  0.9629967028549089  0.4158056376108517  0.7487232428242551  1.0000
  H   H19       1.0  0.9627535960162065  0.2474963820790705  0.0839498632469145  1.0000
  H   H20       1.0  0.951913014920052  0.25116159425163437  0.9222386539137448  1.0000
  H   H21       1.0  0.5886861292082202  0.13607413246036512  0.3486579514053433  1.0000
  H   H22       1.0  0.5933376570324357  0.847954074410275  0.6424378637282051  1.0000
  H   H23       1.0  0.41911180455914376  0.12964303510988634  0.3543594639547721  1.0000
  H   H24       1.0  0.07349958654859992  0.4101630991176748  0.22237306065849796  1.0000
  H   H25       1.0  0.10049495409259626  0.5306291156760778  0.13681222957390568  1.0000
  H   H26       1.0  0.04595093547003144  0.737106311164375  0.9206075346866032  1.0000
  H   H27       1.0  0.00562389898318115  0.6853496134179835  0.062055226287107225  1.0000
  C   C1        1.0  0.9901253293294942  0.7060053114948843  0.49498322961361674  1.0000
  C   C2        1.0  0.30689514171339044  0.9986816276391932  0.20431562722416172  1.0000
  C   C3        1.0  0.9948388682751172  0.31179607018549405  0.4939746766894687  1.0000
  C   C4        1.0  0.6988618389082931  0.9972106376896619  0.8111201377027727  1.0000
  C   C5        1.0  0.995593676211747  0.6979824954973848  0.8081101975481745  1.0000
  C   C6        1.0  0.6984942822890968  0.9977816602280425  0.4975838023325067  1.0000
  C   C7        1.0  0.9957593885764594  0.3073181836271176  0.20052183069979895  1.0000
  C   C8        1.0  0.30581534472470645  0.9920631997171439  0.503155124208064  1.0000
  C   C9        1.0  0.30518980940481555  0.7021690281803997  0.4966528828564736  1.0000
  C   C10       1.0  0.9866678741797154  0.9960174065321324  0.8153897514668746  1.0000
  C   C11       1.0  0.698742051259671  0.31055172676622794  0.499036432024802  1.0000
  C   C12       1.0  0.9919567650539064  0.9947262047948441  0.2054921728344541  1.0000
  C   C13       1.0  0.9919045977560043  0.41764822119191797  0.486739610533107  1.0000
  C   C14       1.0  0.9868478884881284  0.6094411649926669  0.48940817302573  1.0000
  C   C15       1.0  0.07667981910487487  0.4641077473190478  0.4121782177387062  1.0000
  C   C16       1.0  0.8987080607343358  0.5679937017839762  0.5620192329554712  1.0000
  C   C17       1.0  0.07545763702415799  0.5580928562209307  0.41294224775477784  1.0000
  C   C18       1.0  0.9020268557734353  0.4733525055006568  0.5601885949545817  1.0000
  C   C19       1.0  0.41042331423901857  0.9979662649493336  0.1060385863952862  1.0000
  C   C20       1.0  0.6007124732706398  0.9950582997134206  0.9150505630403534  1.0000
  C   C21       1.0  0.4618360104791747  0.07803794560793152  0.05507747538536733  1.0000
  C   C22       1.0  0.5529602439028809  0.9126205453913697  0.9650936668944399  1.0000
  C   C23       1.0  0.5554284931624023  0.07754194426980388  0.9609962317546421  1.0000
  C   C24       1.0  0.45925458681298864  0.9147551716979408  0.059082321148032774  1.0000
  C   C25       1.0  0.980351488117023  0.990971394670602  0.921859272489783  1.0000
  C   C26       1.0  0.9859408551111528  0.989175743793126  0.1104355015038437  1.0000
  C   C27       1.0  0.8916233688779938  0.05994234376416342  0.9831421081037492  1.0000
  C   C28       1.0  0.0733489533477468  0.9154639999152038  0.054452069072112946  1.0000
  C   C29       1.0  0.8939032474041253  0.0605704388196103  0.07554789540154161  1.0000
  C   C30       1.0  0.07009782212475106  0.9173061955418332  0.9612998260358412  1.0000
  C   C31       1.0  0.40859024965731533  0.6037210288581034  0.49279691069147463  1.0000
  C   C32       1.0  0.5997005923734876  0.413622137422223  0.4963923472511383  1.0000
  C   C33       1.0  0.46037875897508934  0.5523500348165696  0.4125731647171735  1.0000
  C   C34       1.0  0.5510283153448726  0.46361312915272623  0.5768049487492065  1.0000
  C   C35       1.0  0.5543701670613146  0.45883805378575443  0.4135134816265026  1.0000
  C   C36       1.0  0.45697390618793304  0.5572125816066132  0.5743528462403377  1.0000
  C   C37       1.0  0.0015103987210949572  0.5945950943762026  0.9048206346889033  1.0000
  C   C38       1.0  0.9860865778303282  0.503772520998652  0.9089917632990564  1.0000
  C   C39       1.0  0.023047933898411182  0.5872658899012108  0.9905059867144885  1.0000
  C   C40       1.0  0.9791373349551904  0.5031400004126497  0.8169824948692299  1.0000
  C   C41       1.0  0.9674923982639849  0.41408314150245895  0.8209361972470363  1.0000
  C   C42       1.0  0.999650158221172  0.4044480223183909  0.09727262747204429  1.0000
  C   C43       1.0  0.026521706716344785  0.4884631594505037  0.08659595828496691  1.0000
  C   C44       1.0  0.9818020829250784  0.4089115678695237  0.007664684290084274  1.0000
  C   C45       1.0  0.9683346626216647  0.31935791710991174  0.009278975084846958  1.0000
  C   C46       1.0  0.9615066919111185  0.3216536024492668  0.9182809786155633  1.0000
  C   C47       1.0  0.4103631920457361  0.9873046426039734  0.5007529265010932  1.0000
  C   C48       1.0  0.6007655200048204  0.9931305367854364  0.495548956689163  1.0000
  C   C49       1.0  0.4625283951121375  0.9076527002590778  0.5802437886894227  1.0000
  C   C50       1.0  0.5525150445956513  0.07213596296190158  0.4133704002298161  1.0000
  C   C51       1.0  0.5560087386474989  0.9098711812894466  0.5787057053858577  1.0000
  C   C52       1.0  0.45876211582663007  0.06862021822074388  0.41660984097281784  1.0000
  N   N1        1.0  0.050420751957417964  0.4865898689316878  0.16675197900544705  1.0000
  N   N2        1.0  0.04433913425307855  0.6689526168409614  0.9898869076527748  1.0000
  O   O1        1.0  0.9152119603438252  0.74210562984517  0.5745477026720281  1.0000
  O   O2        1.0  0.26458829487980745  0.0753010704420163  0.24480403951254465  1.0000
  O   O3        1.0  0.07358528483501191  0.2677904661298171  0.42100173230841165  1.0000
  O   O4        1.0  0.7361944657266334  0.9217008907300367  0.770617022625217  1.0000
  O   O5        1.0  0.07005219194624589  0.7413644752310019  0.7693427613679094  1.0000
  O   O6        1.0  0.7355086264486842  0.07658319378001718  0.4223540700918208  1.0000
  O   O7        1.0  0.9188948514698579  0.2670596584617898  0.24172486845490226  1.0000
  O   O8        1.0  0.2620577964417234  0.9189031382469609  0.5817202791455288  1.0000
  O   O9        1.0  0.263059816354428  0.7419538609252996  0.42184424384743124  1.0000
  O   O10       1.0  0.9165516866289208  0.07752187714233125  0.7697009999082101  1.0000
  O   O11       1.0  0.7366730634818164  0.27046151764520937  0.5771820821097579  1.0000
  O   O12       1.0  0.07274429438864889  0.921718174662672  0.2402540524617436  1.0000
  O   O13       1.0  0.06487441540750899  0.9190709422222052  0.7764973692249839  1.0000
  O   O14       1.0  0.7367485952960423  0.26928163709999337  0.42395892436746163  1.0000
  O   O15       1.0  0.9170769439280093  0.0735528488969591  0.24279373709354252  1.0000
  O   O16       1.0  0.2651365420663152  0.7385416031946335  0.5759309438509278  1.0000
  O   O17       1.0  0.9185390596920653  0.7388719472933616  0.7684860180270621  1.0000
  O   O18       1.0  0.2664717927929629  0.0709917967957594  0.42715690745532703  1.0000
  O   O19       1.0  0.07058368027491467  0.26796439495666385  0.24349054055451805  1.0000
  O   O20       1.0  0.736129648295062  0.9232000132437294  0.5762515930792561  1.0000
  O   O21       1.0  0.7366138865909021  0.07580022282294167  0.7695970918398487  1.0000
  O   O22       1.0  0.06949439422329126  0.742823762878835  0.42122001132401726  1.0000
  O   O23       1.0  0.26670409123495625  0.9233233824577027  0.23991581910699017  1.0000
  O   O24       1.0  0.9194614380517407  0.2719505930418363  0.5738331793251136  1.0000
  O   O25       1.0  0.7953410416239989  0.06981509592407058  0.5701588786287248  1.0000
  O   O26       1.0  0.06473681447231161  0.0685499946926028  0.5718683804278656  1.0000
  O   O27       1.0  0.06555026300465265  0.06851434007848668  0.3010549399274467  1.0000
  O   O28       1.0  0.06419711600072026  0.799674407119916  0.5697780064350085  1.0000
  O   O29       1.0  0.14656524450752076  0.9512243799033087  0.45430088038218497  1.0000
  O   O30       1.0  0.9478073188155489  0.9524093898796695  0.4529883331032778  1.0000
  O   O31       1.0  0.9485186306725025  0.15012582893086787  0.45379174754068424  1.0000
  O   O32       1.0  0.9472299942697685  0.9526895153796886  0.6517965497044217  1.0000
  F   F1        1.0  0.16563501136177886  0.41744612554390403  0.33657701582523464  1.0000
  F   F2        1.0  0.4216841439813592  0.16033524840290878  0.09543183352487015  1.0000
  F   F3        1.0  0.7997699026894975  0.12962323246323149  0.9537744258588533  1.0000
  F   F4        1.0  0.42007977474693786  0.5917932737217414  0.33037578128666933  1.0000
  F   F5        1.0  0.42276969581137513  0.8251046418949882  0.6632618146568348  1.0000
