data_image0
_chemical_formula_structural       CuSiH12C20N8F10
_chemical_formula_sum              "Cu1 Si1 H12 C20 N8 F10"
_cell_length_a       8.208963859355821
_cell_length_b       13.256126327863802
_cell_length_c       13.260633108218055
_cell_angle_alpha    88.55613071866466
_cell_angle_beta     80.90185802381171
_cell_angle_gamma    80.87497808284405

_space_group_name_H-M_alt    "P 1"
_space_group_IT_number       1

loop_
  _space_group_symop_operation_xyz
  'x, y, z'

loop_
  _atom_site_type_symbol
  _atom_site_label
  _atom_site_symmetry_multiplicity
  _atom_site_fract_x
  _atom_site_fract_y
  _atom_site_fract_z
  _atom_site_occupancy
  Cu  Cu1       1.0  0.49998099270200647  0.5002655667654563  0.4997320161687711  1.0000
  Si  Si1       1.0  6.282350114617904e-05  0.4991874568073484  0.5008619725393473  1.0000
  H   H1        1.0  0.24938195523463938  0.5673988075811139  0.3711987583618495  1.0000
  H   H2        1.0  0.20851903797787227  0.5754269277951778  0.1898387924388842  1.0000
  H   H3        1.0  0.7326136027852072  0.45085510307851717  0.10798738944401261  1.0000
  H   H4        1.0  0.2676966732036233  0.5527022090901993  0.8910811343303493  1.0000
  H   H5        1.0  0.7885715489745593  0.42052188651311445  0.8104629584995422  1.0000
  H   H6        1.0  0.7486015170153805  0.4291456439131451  0.6288771229318684  1.0000
  H   H7        1.0  0.25147932977323245  0.3712335502989674  0.5712490231114984  1.0000
  H   H8        1.0  0.2116633761126536  0.18960740456695654  0.5800664351000863  1.0000
  H   H9        1.0  0.731806419595841  0.10896023151072852  0.4464914616453513  1.0000
  H   H10       1.0  0.2677359280090598  0.8919229447443016  0.5498512529990762  1.0000
  H   H11       1.0  0.7912952112890252  0.8100559296548224  0.42413488665633997  1.0000
  H   H12       1.0  0.7506034585759308  0.6286144088715205  0.43229762745434647  1.0000
  C   C1        1.0  0.3539219525893173  0.5427379232471807  0.31135349365505505  1.0000
  C   C2        1.0  0.3312662008915837  0.5471233808658695  0.20963113955701831  1.0000
  C   C3        1.0  0.46719803168184615  0.5130605076067029  0.1344587885316884  1.0000
  C   C4        1.0  0.6226697442255044  0.47708718635085756  0.16361249193957414  1.0000
  C   C5        1.0  0.6320295647063572  0.47608194363376555  0.2670406559354745  1.0000
  C   C6        1.0  0.37713239834818063  0.5247872816587956  0.8357445462857458  1.0000
  C   C7        1.0  0.5313412997954144  0.4862676015119122  0.8652890355342039  1.0000
  C   C8        1.0  0.666597500920936  0.4503703644509686  0.7903783466521193  1.0000
  C   C9        1.0  0.6445317105620558  0.45517041291269333  0.6885702019681972  1.0000
  C   C10       1.0  0.368542767682804  0.5266465552554251  0.7322116505602239  1.0000
  C   C11       1.0  0.3554741084753843  0.3115483135021507  0.5449667008247374  1.0000
  C   C12       1.0  0.33347349934025766  0.20969723661673365  0.5498829302227364  1.0000
  C   C13       1.0  0.46857883000116357  0.13475965662613734  0.513687995765757  1.0000
  C   C14       1.0  0.6225161868424819  0.16433770935598352  0.4746659066188954  1.0000
  C   C15       1.0  0.6310150720230678  0.26790939599283803  0.4726585586477157  1.0000
  C   C16       1.0  0.3775879619973281  0.8362907049664727  0.5233464222732849  1.0000
  C   C17       1.0  0.5328497454044478  0.8654690440762067  0.4869813387519386  1.0000
  C   C18       1.0  0.6686776800003854  0.7902585754177096  0.4526858253138856  1.0000
  C   C19       1.0  0.6461380827663702  0.6884900202482245  0.45715700663077297  1.0000
  C   C20       1.0  0.3683291310531227  0.732820647243109  0.5244936364728049  1.0000
  N   N1        1.0  0.5025716750040701  0.5062036968982043  0.3408950814560825  1.0000
  N   N2        1.0  0.4370839330771829  0.5185230159046696  0.031867326291646195  1.0000
  N   N3        1.0  0.5611585540254893  0.48049216471551415  0.9679344776301875  1.0000
  N   N4        1.0  0.49723570241023635  0.494290595411357  0.6586324003263826  1.0000
  N   N5        1.0  0.5025281830497973  0.3415104376832829  0.5054173350179454  1.0000
  N   N6        1.0  0.4388844870447172  0.03206131443208451  0.5196680126204782  1.0000
  N   N7        1.0  0.5628157181948267  0.968109152257874  0.48139756672227213  1.0000
  N   N8        1.0  0.49767136944043955  0.6589410942676253  0.4940621474619392  1.0000
  F   F1        1.0  0.20493058602848174  0.5130085697798278  0.5142019254213324  1.0000
  F   F2        1.0  0.7952164188722576  0.4855661865134024  0.4872852825763161  1.0000
  F   F3        1.0  0.9998954575907534  0.5923773367740993  0.40731274403708545  1.0000
  F   F4        1.0  0.00022281092914506668  0.4060669915071884  0.5943904776567877  1.0000
  F   F5        1.0  0.07882319656897607  0.40872848465289746  0.41079056161001404  1.0000
  F   F6        1.0  0.9212989915081164  0.5896746897218462  0.5909175061699941  1.0000
  F   F7        1.0  0.7795875093982259  0.4432536011207802  0.296162363587527  1.0000
  F   F8        1.0  0.22260510578201576  0.563206220438225  0.7026978505386198  1.0000
  F   F9        1.0  0.7766603449966281  0.2974346786335502  0.43547358268077824  1.0000
  F   F10       1.0  0.22101444492751193  0.703674140027232  0.5578805155315152  1.0000
