data_image0
_chemical_formula_structural       Cu4H36C32S8I4N4
_chemical_formula_sum              "Cu4 H36 C32 S8 I4 N4"
_cell_length_a       5.489952859313828
_cell_length_b       12.539165109395066
_cell_length_c       15.606147387692175
_cell_angle_alpha    93.39146058185356
_cell_angle_beta     90.00086656751151
_cell_angle_gamma    90.0008243901677

_space_group_name_H-M_alt    "P 1"
_space_group_IT_number       1

loop_
  _space_group_symop_operation_xyz
  'x, y, z'

loop_
  _atom_site_type_symbol
  _atom_site_label
  _atom_site_symmetry_multiplicity
  _atom_site_fract_x
  _atom_site_fract_y
  _atom_site_fract_z
  _atom_site_occupancy
  Cu  Cu1       1.0  0.7694161803572825  0.9893838702631329  0.49450574046979767  1.0000
  Cu  Cu2       1.0  0.2694215514139486  0.010613937808564301  0.005496564349591901  1.0000
  Cu  Cu3       1.0  0.23056682023025837  0.010617702983573498  0.5054932831549266  1.0000
  Cu  Cu4       1.0  0.7305741997655559  0.9893852365011494  0.9945055480518475  1.0000
  H   H1        1.0  0.2877597180022917  0.23452466703759  0.5558479594189334  1.0000
  H   H2        1.0  0.7877775483411041  0.7654802549363994  0.9441467838623154  1.0000
  H   H3        1.0  0.7122251038432806  0.7654689208582539  0.4441455548136872  1.0000
  H   H4        1.0  0.2122382396211435  0.23452211093965758  0.05586124871211949  1.0000
  H   H5        1.0  0.1051471170423142  0.1347310796717096  0.762159919776259  1.0000
  H   H6        1.0  0.6051283610652689  0.8652925985254568  0.7378321951231612  1.0000
  H   H7        1.0  0.8948304189195042  0.8652664999668362  0.23783763063728  1.0000
  H   H8        1.0  0.3948582825558304  0.13471377041376797  0.2621638547866851  1.0000
  H   H9        1.0  0.992535782192938  0.05362787741180601  0.6720695223964128  1.0000
  H   H10       1.0  0.4925186620277771  0.946393590728263  0.8279251749560499  1.0000
  H   H11       1.0  0.007447218338029399  0.9463689015217439  0.3279305526992998  1.0000
  H   H12       1.0  0.507467981594111  0.05361597563501871  0.1720684653028144  1.0000
  H   H13       1.0  0.8114364628746243  0.0738491101482026  0.7684153384689693  1.0000
  H   H14       1.0  0.31140904227410715  0.9261687542765953  0.7315769470801355  1.0000
  H   H15       1.0  0.188546537684239  0.9261484672298933  0.23158541571673646  1.0000
  H   H16       1.0  0.6885684937021495  0.07383122297426327  0.2684194368465427  1.0000
  H   H17       1.0  0.14006067793516047  0.40008156344575235  0.6754382866000128  1.0000
  H   H18       1.0  0.6400460011139728  0.5999391429147636  0.82456668571168  1.0000
  H   H19       1.0  0.859931430268929  0.5999240043327346  0.32456092874337367  1.0000
  H   H20       1.0  0.3599679653113057  0.4000632238666879  0.17544006535490547  1.0000
  H   H21       1.0  0.2046787623475197  0.5961559971734757  0.6959089500669934  1.0000
  H   H22       1.0  0.7046530700073248  0.4038587466574056  0.8040992815153203  1.0000
  H   H23       1.0  0.7953279178879737  0.4038447758847211  0.3040919575395974  1.0000
  H   H24       1.0  0.29536818237212253  0.5961444222387654  0.1959030226507252  1.0000
  H   H25       1.0  0.5795126989439153  0.6789273870921873  0.637994916595275  1.0000
  H   H26       1.0  0.07947454287559448  0.32108252736635023  0.8620124215689771  1.0000
  H   H27       1.0  0.42049762410101005  0.32106779732205826  0.3620005966401861  1.0000
  H   H28       1.0  0.9205448879803483  0.6789190432674418  0.13799044666608037  1.0000
  H   H29       1.0  0.8860636730075199  0.5651343704854384  0.5599166947619167  1.0000
  H   H30       1.0  0.38605815956727696  0.43487119932838425  0.9400894923262583  1.0000
  H   H31       1.0  0.11393207804656667  0.4348616105018195  0.4400820605281766  1.0000
  H   H32       1.0  0.6139667356910435  0.5651271780011768  0.0599100188127721  1.0000
  H   H33       1.0  0.8145164769263076  0.3683002975753594  0.5358455777051746  1.0000
  H   H34       1.0  0.31454219634073866  0.6317135903338381  0.9641503780747556  1.0000
  H   H35       1.0  0.18547016654029852  0.6316972834607596  0.46415005047978747  1.0000
  H   H36       1.0  0.6854881635290582  0.36828718234759344  0.035851170349573594  1.0000
  C   C1        1.0  0.5736353499055156  0.18545830021297863  0.624910797549461  1.0000
  C   C2        1.0  0.0736450515447657  0.8145523850424823  0.8750811681058508  1.0000
  C   C3        1.0  0.4263403645054992  0.8145392807866972  0.3750848306048624  1.0000
  C   C4        1.0  0.9263652718623802  0.18545158043885124  0.1249243781250371  1.0000
  C   C5        1.0  0.9417541902908296  0.10975982354298709  0.7256142417368494  1.0000
  C   C6        1.0  0.4417401833795722  0.8902660997631457  0.7743797602194461  1.0000
  C   C7        1.0  0.058221524301195884  0.8902417483122275  0.2743867041215609  1.0000
  C   C8        1.0  0.5582501032737068  0.10973946937647132  0.2256175328647245  1.0000
  C   C9        1.0  0.4755825481987087  0.373378867265913  0.6053207433825205  1.0000
  C   C10       1.0  0.9756045741866968  0.6266344961932404  0.8946773201605751  1.0000
  C   C11       1.0  0.5244004522905145  0.6266171136788258  0.3946780118718252  1.0000
  C   C12       1.0  0.024414856585565293  0.37336467910691334  0.10532351080450299  1.0000
  C   C13       1.0  0.3023426343520441  0.4367511176451798  0.6498335979206686  1.0000
  C   C14       1.0  0.802346066754275  0.5632666757468385  0.8501733740157603  1.0000
  C   C15       1.0  0.6976567597486677  0.5632464611547902  0.350165234056881  1.0000
  C   C16       1.0  0.1976678997277759  0.4367412847037854  0.1498317231670896  1.0000
  C   C17       1.0  0.3399497618396623  0.5466906301625798  0.6613955975482853  1.0000
  C   C18       1.0  0.8399071620794769  0.45332261959381265  0.8386126365583806  1.0000
  C   C19       1.0  0.6600569183256082  0.453306148394212  0.3386051183651729  1.0000
  C   C20       1.0  0.16011409031381868  0.5466805488466164  0.16139030835903867  1.0000
  C   C21       1.0  0.5504780590822875  0.5928295731315743  0.6296986850542368  1.0000
  C   C22       1.0  0.05045039642825339  0.4071785480839764  0.8703109766973751  1.0000
  C   C23       1.0  0.4495195136062903  0.4071688018282059  0.3703040297650588  1.0000
  C   C24       1.0  0.9495781418482067  0.5928182305457028  0.12968973927735308  1.0000
  C   C25       1.0  0.7228217845481594  0.5289275340318653  0.585321878840638  1.0000
  C   C26       1.0  0.2228109055872167  0.47107695153489004  0.9146769855729813  1.0000
  C   C27       1.0  0.2771721449129885  0.4710660516156794  0.41467483917435993  1.0000
  C   C28       1.0  0.7772139896012715  0.5289190300052977  0.0853211290474363  1.0000
  C   C29       1.0  0.6855206426275302  0.41920317280909086  0.5723009119314142  1.0000
  C   C30       1.0  0.1855303506787891  0.5808066577053098  0.9276960895432821  1.0000
  C   C31       1.0  0.314471465423054  0.5807976038463849  0.427694869623366  1.0000
  C   C32       1.0  0.8144927231543377  0.41919571366385344  0.0723042540351315  1.0000
  S   S1        1.0  0.5116504886162545  0.05302110298528359  0.6085795141599134  1.0000
  S   S2        1.0  0.011643420258685897  0.9469915627556701  0.8914160634808752  1.0000
  S   S3        1.0  0.488334333354544  0.9469748788770006  0.3914179595968008  1.0000
  S   S4        1.0  0.9883577955328847  0.0530124049739626  0.10858627896763548  1.0000
  S   S5        1.0  0.8201641404219939  0.23043543211881712  0.6868540112528478  1.0000
  S   S6        1.0  0.3201660321547521  0.7695824910711053  0.8131376825550446  1.0000
  S   S7        1.0  0.17981157405825599  0.7695621466021836  0.31314482065833  1.0000
  S   S8        1.0  0.6798442911833502  0.23042227604491222  0.1868640575062486  1.0000
  I   I1        1.0  0.9850587967190305  0.16264348386881972  0.43453965239111614  1.0000
  I   I2        1.0  0.4850631482913598  0.8373557670443574  0.0654574538198034  1.0000
  I   I3        1.0  0.014935132881966197  0.837355692713487  0.5654592562483741  1.0000
  I   I4        1.0  0.5149362460319011  0.16264580124394712  0.9345486181159472  1.0000
  N   N1        1.0  0.4346383470700842  0.2609372007002264  0.5924974412983275  1.0000
  N   N2        1.0  0.9346518971767352  0.7390758910092927  0.9074984704307596  1.0000
  N   N3        1.0  0.5653446533218158  0.7390571847226253  0.40749803352192515  1.0000
  N   N4        1.0  0.06537299823411048  0.2609232806632064  0.0925074865605922  1.0000
