data_image0
_chemical_formula_structural       Nd4H28C52O24
_chemical_formula_sum              "Nd4 H28 C52 O24"
_cell_length_a       6.8400331852738905
_cell_length_b       13.131184444068591
_cell_length_c       13.132015412275312
_cell_angle_alpha    90.0001205936754
_cell_angle_beta     94.17834788187963
_cell_angle_gamma    90.00033973966512

_space_group_name_H-M_alt    "P 1"
_space_group_IT_number       1

loop_
  _space_group_symop_operation_xyz
  'x, y, z'

loop_
  _atom_site_type_symbol
  _atom_site_label
  _atom_site_symmetry_multiplicity
  _atom_site_fract_x
  _atom_site_fract_y
  _atom_site_fract_z
  _atom_site_occupancy
  Nd  Nd1       1.0  0.9043355579279079  0.6283057912330466  0.06657631940741743  1.0000
  Nd  Nd2       1.0  0.595666580278653  0.12830791336910613  0.9334197203512887  1.0000
  Nd  Nd3       1.0  0.09566831199140317  0.3716934118930056  0.9334253439042186  1.0000
  Nd  Nd4       1.0  0.4043328893405871  0.8716920512911345  0.06657720767312013  1.0000
  H   H1        1.0  0.5656452736273179  0.3732315520156605  0.06500490693849062  1.0000
  H   H2        1.0  0.9343553483599719  0.8732381916559153  0.9349954025172169  1.0000
  H   H3        1.0  0.43436152713788084  0.6267646049297398  0.934995344140397  1.0000
  H   H4        1.0  0.06563679413112308  0.12676710381818884  0.06500505608612171  1.0000
  H   H5        1.0  0.2353529056746523  0.002503854810392201  0.27776361239012465  1.0000
  H   H6        1.0  0.26465128604507976  0.5025057184243877  0.7222397921234106  1.0000
  H   H7        1.0  0.764652429667599  0.9974938252253339  0.7222373448051302  1.0000
  H   H8        1.0  0.7353496512242469  0.49749272314950604  0.2777602373576542  1.0000
  H   H9        1.0  0.33173557547691945  0.06451991778966712  0.4533060324968902  1.0000
  H   H10       1.0  0.1682649471746842  0.5645211171050235  0.5466966033931372  1.0000
  H   H11       1.0  0.668266828119634  0.9354792853332725  0.5466948138999471  1.0000
  H   H12       1.0  0.8317359910034127  0.4354803706541688  0.4533049491210478  1.0000
  H   H13       1.0  0.9851200866235741  0.7104422371827185  0.590109430798151  1.0000
  H   H14       1.0  0.5148800898076614  0.2104430157527375  0.40989432401271847  1.0000
  H   H15       1.0  0.0148823165230709  0.2895562043934916  0.4098906540831068  1.0000
  H   H16       1.0  0.4851193811433843  0.7895561873639708  0.5901048885545351  1.0000
  H   H17       1.0  0.09063353540769008  0.7714012680091786  0.7646962319093334  1.0000
  H   H18       1.0  0.40936941872126187  0.27139985252109267  0.23530617318449742  1.0000
  H   H19       1.0  0.9093644701114626  0.22859793510600923  0.23530368677233335  1.0000
  H   H20       1.0  0.5906271209295184  0.728600873683618  0.7646936900989376  1.0000
  H   H21       1.0  0.34569716374792836  0.038769221091989395  0.6405178827065684  1.0000
  H   H22       1.0  0.15430452250505056  0.5387677013709223  0.35948550403537644  1.0000
  H   H23       1.0  0.6543008422121801  0.9612292204780603  0.3594827974887239  1.0000
  H   H24       1.0  0.8456964156685629  0.4612330248423434  0.6405160484778281  1.0000
  H   H25       1.0  0.9771780245521524  0.7344710839804097  0.39921402334151423  1.0000
  H   H26       1.0  0.5228209689232911  0.2344738091709005  0.6007904992285162  1.0000
  H   H27       1.0  0.0228243785989761  0.2655281191417346  0.6007860615407168  1.0000
  H   H28       1.0  0.47717996879594426  0.7655253939497157  0.3992102917681353  1.0000
  C   C1        1.0  0.711289431476487  0.3715121732746667  0.0337060759657675  1.0000
  C   C2        1.0  0.7887097035152378  0.871516144359177  0.9662926506463168  1.0000
  C   C3        1.0  0.28871737019747457  0.6284870298560251  0.9662956981462403  1.0000
  C   C4        1.0  0.21128390351689316  0.12848915111485584  0.03370557881338951  1.0000
  C   C5        1.0  0.05448868072759438  0.8264055848939262  0.22275365421493384  1.0000
  C   C6        1.0  0.4455002626004754  0.32641226763053777  0.7772506225361939  1.0000
  C   C7        1.0  0.9455137210917142  0.17359437977174966  0.7772441461244599  1.0000
  C   C8        1.0  0.5544977433641094  0.6735869354854461  0.22275005766007897  1.0000
  C   C9        1.0  0.10076337767852549  0.8643810165811205  0.32917195473406485  1.0000
  C   C10       1.0  0.399227476553662  0.36437971864842217  0.6708301902832263  1.0000
  C   C11       1.0  0.8992375587133662  0.135619709628962  0.6708265517207226  1.0000
  C   C12       1.0  0.6007690626382567  0.6356187229177197  0.3291689114826681  1.0000
  C   C13       1.0  0.2017592610585837  0.958290462398573  0.34434903522327437  1.0000
  C   C14       1.0  0.2982414923807113  0.4582918673509725  0.6556536831086177  1.0000
  C   C15       1.0  0.7982416762152196  0.04170874072124781  0.6556509942587709  1.0000
  C   C16       1.0  0.7017579785703346  0.5417073357657288  0.34434552945862873  1.0000
  C   C17       1.0  0.25534002575018616  0.9922281789589746  0.44129094915589934  1.0000
  C   C18       1.0  0.24466112662818057  0.4922284544232911  0.5587118562364496  1.0000
  C   C19       1.0  0.74466237695551  0.007771024162366301  0.558708374211733  1.0000
  C   C20       1.0  0.755339810650099  0.5077715102424563  0.4412881732465693  1.0000
  C   C21       1.0  0.2117389615084092  0.9340262934019424  0.5279235004529711  1.0000
  C   C22       1.0  0.28826297256589567  0.4340257607510836  0.47207921103069594  1.0000
  C   C23       1.0  0.7882634411972871  0.06597290971940592  0.47207582291466127  1.0000
  C   C24       1.0  0.7117394319304747  0.5659749654653013  0.5279231583973072  1.0000
  C   C25       1.0  0.10778092275265289  0.8393712901294136  0.5132962114190462  1.0000
  C   C26       1.0  0.3922169664276893  0.3393703472292486  0.4867053849264949  1.0000
  C   C27       1.0  0.8922185477529607  0.16062791298649165  0.4867022396336013  1.0000
  C   C28       1.0  0.607785436732392  0.660630378984742  0.5132946999576903  1.0000
  C   C29       1.0  0.06500560917550759  0.7818966830542567  0.6007420294541534  1.0000
  C   C30       1.0  0.4349886721681954  0.2818941662376986  0.3992585471322698  1.0000
  C   C31       1.0  0.9349953280982886  0.21810252006556402  0.399258000027892  1.0000
  C   C32       1.0  0.5650107992282827  0.7181050368797983  0.6007414269495827  1.0000
  C   C33       1.0  0.29287962290843683  0.9452557148185152  0.8164862524464597  1.0000
  C   C34       1.0  0.20711804286074198  0.4452543286428252  0.1835117525552334  1.0000
  C   C35       1.0  0.7071169149516692  0.054743488291165925  0.18351056477659713  1.0000
  C   C36       1.0  0.7928814294355462  0.554746397568117  0.816489744557785  1.0000
  C   C37       1.0  0.12264671920199526  0.8155503491705858  0.697609708676538  1.0000
  C   C38       1.0  0.37735235537808615  0.3155474520471272  0.3023911204431755  1.0000
  C   C39       1.0  0.8773527526354383  0.18444809240178733  0.30239102691894004  1.0000
  C   C40       1.0  0.6226485823366729  0.6844509895275694  0.6976096705524953  1.0000
  C   C41       1.0  0.22560487012174946  0.9089107225177957  0.7119395366413175  1.0000
  C   C42       1.0  0.27439823412916536  0.4089074778042986  0.28806240429437935  1.0000
  C   C43       1.0  0.7743946008293034  0.09108848059891271  0.28805967592593623  1.0000
  C   C44       1.0  0.7256012385991326  0.5910909637696663  0.7119398543303178  1.0000
  C   C45       1.0  0.2678004103501621  0.9669184147124458  0.6281932472897084  1.0000
  C   C46       1.0  0.23220484168113834  0.46691673796784283  0.37180889785785354  1.0000
  C   C47       1.0  0.7322005269146884  0.033079265315521404  0.37180678219038304  1.0000
  C   C48       1.0  0.7677975632517114  0.5330824651574845  0.6281942330828016  1.0000
  C   C49       1.0  0.054112801663499986  0.8065492340258019  0.4123470419137122  1.0000
  C   C50       1.0  0.4458847025835268  0.3065494292611746  0.5876559932626508  1.0000
  C   C51       1.0  0.9458852025327928  0.19345225372476454  0.587650592227071  1.0000
  C   C52       1.0  0.5541162346902765  0.6934497738586459  0.4123440362193946  1.0000
  O   O1        1.0  0.11361918415626347  0.880310104391228  0.14916991650736836  1.0000
  O   O2        1.0  0.38637478868199787  0.3803167585162301  0.8508316186694815  1.0000
  O   O3        1.0  0.8863802863583029  0.11969062181653103  0.8508285345472333  1.0000
  O   O4        1.0  0.613626149041714  0.6196832061503131  0.14916917232814342  1.0000
  O   O5        1.0  0.2688115857253734  0.8857401807405128  0.8917019904414689  1.0000
  O   O6        1.0  0.23118684672929385  0.38573566541430887  0.10829667879320942  1.0000
  O   O7        1.0  0.7311893493212764  0.11425902237532172  0.10829423146754642  1.0000
  O   O8        1.0  0.7688140918763223  0.6142627761619721  0.8917056352316737  1.0000
  O   O9        1.0  0.9647568567128811  0.7426186462439831  0.20936086227610676  1.0000
  O   O10       1.0  0.5352466301914801  0.24262485279518134  0.7906438474002544  1.0000
  O   O11       1.0  0.03524994228402529  0.2573797953359999  0.7906363427472983  1.0000
  O   O12       1.0  0.4647557720687913  0.757374350325364  0.20935471445277196  1.0000
  O   O13       1.0  0.8225629800676229  0.4484886573691682  0.045112263482323604  1.0000
  O   O14       1.0  0.677435594388811  0.9484960690427757  0.9548873667197313  1.0000
  O   O15       1.0  0.17744382159290947  0.5515082611237504  0.9548895106267495  1.0000
  O   O16       1.0  0.32254921827023236  0.05150922641893631  0.04511205336805801  1.0000
  O   O17       1.0  0.7666767727857219  0.2924282343386437  0.9874620582338169  1.0000
  O   O18       1.0  0.7333258288747683  0.792436133286053  0.012534347162578285  1.0000
  O   O19       1.0  0.23332562992445102  0.7075717303286241  0.012537265134788797  1.0000
  O   O20       1.0  0.26667070858020026  0.20756992373614483  0.987461708554662  1.0000
  O   O21       1.0  0.3730280936115732  0.03274867288331511  0.8239485530279751  1.0000
  O   O22       1.0  0.12697352009294596  0.5327482085065542  0.17605177221212642  1.0000
  O   O23       1.0  0.6269640470664726  0.9672512917661255  0.17604885951009666  1.0000
  O   O24       1.0  0.8730332820398697  0.4672532792627067  0.8239507634174147  1.0000
