data_image0
_chemical_formula_structural       AlH9C24N3O6F3
_chemical_formula_sum              "Al1 H9 C24 N3 O6 F3"
_cell_length_a       3.9467001891350106
_cell_length_b       15.823015058628272
_cell_length_c       15.816134862203528
_cell_angle_alpha    60.16297218882765
_cell_angle_beta     86.15535237204521
_cell_angle_gamma    86.62988250520024

_space_group_name_H-M_alt    "P 1"
_space_group_IT_number       1

loop_
  _space_group_symop_operation_xyz
  'x, y, z'

loop_
  _atom_site_type_symbol
  _atom_site_label
  _atom_site_symmetry_multiplicity
  _atom_site_fract_x
  _atom_site_fract_y
  _atom_site_fract_z
  _atom_site_occupancy
  Al  Al1       1.0  0.9629950506859402  0.5008006550069481  0.5002929469269191  1.0000
  H   H1        1.0  0.241283401420901  0.7592515055695374  0.5137309385411722  1.0000
  H   H2        1.0  0.2632222768947797  0.8556202509978095  0.6000186712965385  1.0000
  H   H3        1.0  0.5640091995579155  0.593948080042523  0.8598516488008556  1.0000
  H   H4        1.0  0.5651867039105412  0.046327906764823006  0.5888839686254952  1.0000
  H   H5        1.0  0.39903699950261984  0.23400685195035462  0.764956265654007  1.0000
  H   H6        1.0  0.41940127180986037  0.05132755014187039  0.8590384295936316  1.0000
  H   H7        1.0  0.6908846539990564  0.8550577396714164  0.04359428026027234  1.0000
  H   H8        1.0  0.2663994977638424  0.518127291665536  0.23553500458216087  1.0000
  H   H9        1.0  0.2804406884038356  0.6038694341118005  0.05266031753554041  1.0000
  C   C1        1.0  0.4827865455042895  0.5797431768900625  0.3504128670388266  1.0000
  C   C2        1.0  0.42595837185751145  0.5719078743072856  0.5798974519472964  1.0000
  C   C3        1.0  0.4802799674506559  0.3508040852095819  0.5716026960040209  1.0000
  C   C4        1.0  0.4837002527183144  0.9300402889315863  0.784780227429735  1.0000
  C   C5        1.0  0.4372779379480889  0.7863222520069827  0.787018274163273  1.0000
  C   C6        1.0  0.48032771177344796  0.7874621614497741  0.9290681641574989  1.0000
  C   C7        1.0  0.3155001031166407  0.7245301563595918  0.5892131295238129  1.0000
  C   C8        1.0  0.326147609654967  0.7778651409467373  0.6370783336236199  1.0000
  C   C9        1.0  0.41796619844537725  0.731258249772758  0.7347511460023595  1.0000
  C   C10       1.0  0.49787417648581567  0.6310895793617208  0.7837017300924244  1.0000
  C   C11       1.0  0.49858643041745404  0.5803426769357429  0.7333293267156263  1.0000
  C   C12       1.0  0.4093499828559145  0.6250229164813706  0.6357185326981987  1.0000
  C   C13       1.0  0.5363013815941571  0.08668813463425813  0.6282043219558915  1.0000
  C   C14       1.0  0.539773549782893  0.18756048452106464  0.5781629538810618  1.0000
  C   C15       1.0  0.4887799012388995  0.2421684306567827  0.6256791769618812  1.0000
  C   C16       1.0  0.44145301864107717  0.19180519504418922  0.7276251880332508  1.0000
  C   C17       1.0  0.45106885933088126  0.09062402751570894  0.7798129097546677  1.0000
  C   C18       1.0  0.4935498178379589  0.03745567408208221  0.7302222472333069  1.0000
  C   C19       1.0  0.6031874728452564  0.7806091000173299  0.08483238014970573  1.0000
  C   C20       1.0  0.6079645638694298  0.7300677269110526  0.1858068894399095  1.0000
  C   C21       1.0  0.4873206147617918  0.6352293444860353  0.2419738869259688  1.0000
  C   C22       1.0  0.3651065030911623  0.5912089635966499  0.19209057622794753  1.0000
  C   C23       1.0  0.37151353714663304  0.6387189013380948  0.09096101190736762  1.0000
  C   C24       1.0  0.48723758003282563  0.7344290186864915  0.03669395440849831  1.0000
  N   N1        1.0  0.4492622495038601  0.8839625768890048  0.7337497228938402  1.0000
  N   N2        1.0  0.44522858961836675  0.7347825269525505  0.8849306137882563  1.0000
  N   N3        1.0  0.506883048777098  0.8848756244427352  0.8822891290456523  1.0000
  O   O1        1.0  0.22972919820875146  0.39259160555473477  0.5926194659841854  1.0000
  O   O2        1.0  0.25422466928601745  0.5161546142130717  0.3929591822893597  1.0000
  O   O3        1.0  0.200125031751618  0.5935819479435127  0.5177412677301375  1.0000
  O   O4        1.0  0.7234037168474925  0.39379518991953694  0.5103879760393184  1.0000
  O   O5        1.0  0.6702577698607469  0.5102052055392363  0.5961482071549327  1.0000
  O   O6        1.0  0.7062944198454699  0.5968730902778676  0.3939008418068822  1.0000
  F   F1        1.0  0.5818311474486249  0.48367594586476076  0.7822605261059151  1.0000
  F   F2        1.0  0.5808982819631225  0.23434858090936228  0.4792918866882798  1.0000
  F   F3        1.0  0.7244930934517271  0.7768344745103805  0.22984888197743908  1.0000
