data_image0
_chemical_formula_structural       Al2H18C30O12
_chemical_formula_sum              "Al2 H18 C30 O12"
_cell_length_a       3.9869026080065395
_cell_length_b       17.234499675934668
_cell_length_c       17.23449870770445
_cell_angle_alpha    119.99993612189056
_cell_angle_beta     89.99984703679138
_cell_angle_gamma    89.99996100780754

_space_group_name_H-M_alt    "P 1"
_space_group_IT_number       1

loop_
  _space_group_symop_operation_xyz
  'x, y, z'

loop_
  _atom_site_type_symbol
  _atom_site_label
  _atom_site_symmetry_multiplicity
  _atom_site_fract_x
  _atom_site_fract_y
  _atom_site_fract_z
  _atom_site_occupancy
  Al  Al1       1.0  0.9998452630855609  0.5000003883327935  0.5000002325192342  1.0000
  Al  Al2       1.0  7.715512182899994e-06  0.16666678176765273  0.8333334975881929  1.0000
  H   H1        1.0  0.48788756416379897  0.5016170768403257  0.7522268884843657  1.0000
  H   H2        1.0  0.512001215905677  0.41878485700191  0.8348235250093625  1.0000
  H   H3        1.0  0.2727751018947444  0.11141199755482499  0.5282205188141804  1.0000
  H   H4        1.0  0.7194100292638196  0.11170584589201853  0.5301195945923498  1.0000
  H   H5        1.0  0.7275720739446638  0.1948714626359731  0.4447328377936587  1.0000
  H   H6        1.0  0.2805935055989649  0.1967150632506575  0.44505965030195693  1.0000
  H   H7        1.0  0.4878910217080872  0.7506102532206071  0.4983829528130459  1.0000
  H   H8        1.0  0.5120017327993767  0.9160397987768079  0.5812156524407472  1.0000
  H   H9        1.0  0.27277926621574977  0.9168071283252529  0.8885883119410994  1.0000
  H   H10       1.0  0.7194116950403141  0.9184124598022336  0.888292792833518  1.0000
  H   H11       1.0  0.7275716565738576  0.7498600494332949  0.805127077240677  1.0000
  H   H12       1.0  0.28059812229844994  0.7483435599465905  0.8032843786801396  1.0000
  H   H13       1.0  0.48789074211629213  0.2477741456307286  0.24938942503189324  1.0000
  H   H14       1.0  0.512005743534779  0.165176462959657  0.08396038929415545  1.0000
  H   H15       1.0  0.27277689848006764  0.4717812056961535  0.083192084067207  1.0000
  H   H16       1.0  0.7194093405380072  0.4698809732578724  0.08158389094569436  1.0000
  H   H17       1.0  0.7275800319379115  0.5552674244519337  0.2501366866253961  1.0000
  H   H18       1.0  0.2805989526659403  0.5549406305595852  0.2516544639387208  1.0000
  C   C1        1.0  0.4998263958254085  0.429079306526333  0.3625468311496648  1.0000
  C   C2        1.0  0.49982274574058033  0.4334686795698348  0.5709212069494074  1.0000
  C   C3        1.0  0.499824923593536  0.6374522285032642  0.5665313008766264  1.0000
  C   C4        1.0  0.5000803660857753  0.23758881958936942  0.7667117332018594  1.0000
  C   C5        1.0  0.5000782433185192  0.029122514621448724  0.7624119913788762  1.0000
  C   C6        1.0  0.5000767540046664  0.2332891359804066  0.9708766312349725  1.0000
  C   C7        1.0  0.5000529596714074  0.2874259670728351  0.7170219588069531  1.0000
  C   C8        1.0  0.4997422979036372  0.38379931508739434  0.6207600045412607  1.0000
  C   C9        1.0  0.4944802931788387  0.24396498052185947  0.6239197836172253  1.0000
  C   C10       1.0  0.49427881951006464  0.4285521590364638  0.7150548800064629  1.0000
  C   C11       1.0  0.5054187819243338  0.290678963028036  0.577253366246481  1.0000
  C   C12       1.0  0.5055455382167507  0.3817209642881353  0.7617816296384279  1.0000
  C   C13       1.0  0.4963921704492903  0.15288223612825655  0.5392354772230095  1.0000
  C   C14       1.0  0.5038367427735508  0.20588013719382312  0.4861632948037455  1.0000
  C   C15       1.0  0.5000493604202063  0.929596135807124  0.7125743394013785  1.0000
  C   C16       1.0  0.49974170939334067  0.7369606707530066  0.6162002406803425  1.0000
  C   C17       1.0  0.49447846951716906  0.8799546547268662  0.7560352096835674  1.0000
  C   C18       1.0  0.49428148777272435  0.7865033330067988  0.571447964352551  1.0000
  C   C19       1.0  0.5054172018260343  0.7865736421764425  0.7093206068065359  1.0000
  C   C20       1.0  0.5055429456719197  0.8800609519803687  0.6182795403276135  1.0000
  C   C21       1.0  0.49639172894897843  0.886352944690259  0.8471180484475059  1.0000
  C   C22       1.0  0.5038365771284604  0.7802816710386794  0.7941189962758418  1.0000
  C   C23       1.0  0.5000539789361013  0.2829790267402856  0.07040328567525489  1.0000
  C   C24       1.0  0.49974425301608955  0.3792396486026633  0.26303851364062353  1.0000
  C   C25       1.0  0.49448280648817894  0.3760811644478324  0.12004493357027717  1.0000
  C   C26       1.0  0.4942792908494624  0.28494481736792204  0.21349525234391825  1.0000
  C   C27       1.0  0.505425549431088  0.4227467788346289  0.21342386243846084  1.0000
  C   C28       1.0  0.5055467729859162  0.23821862811910677  0.11993782580874786  1.0000
  C   C29       1.0  0.49639144416939723  0.46076512666964226  0.11364456800360057  1.0000
  C   C30       1.0  0.503840166517861  0.5138381574786877  0.21971612691268677  1.0000
  O   O1        1.0  0.7347892451008847  0.5989637092400457  0.5849761407518488  1.0000
  O   O2        1.0  0.7347879342941895  0.48601226262853464  0.4010361563119107  1.0000
  O   O3        1.0  0.7347874427467288  0.41502427401731984  0.5139876201653594  1.0000
  O   O4        1.0  0.26569618135541617  0.5974917213307052  0.5098417554019152  1.0000
  O   O5        1.0  0.26569343600962003  0.49015877988419737  0.587650234117014  1.0000
  O   O6        1.0  0.26569708714271906  0.4123499265723397  0.4025076852346532  1.0000
  O   O7        1.0  0.7344519946646598  0.17665922208978202  0.9309663720777979  1.0000
  O   O8        1.0  0.7344599702884481  0.25430831047714264  0.8233413804008267  1.0000
  O   O9        1.0  0.7344582065051243  0.06903296944366845  0.7456931824298395  1.0000
  O   O10       1.0  0.2651903315558429  0.25167984902306273  0.9323045046426589  1.0000
  O   O11       1.0  0.2651937739979929  0.06769626527364644  0.8193757770162053  1.0000
  O   O12       1.0  0.2651989810714497  0.18062573023171083  0.7483215714794512  1.0000
