data_image0
_chemical_formula_structural       Zn8H80C124O26
_chemical_formula_sum              "Zn8 H80 C124 O26"
_cell_length_a       21.64081436803356
_cell_length_b       21.640788059001864
_cell_length_c       34.51555862305467
_cell_angle_alpha    90.00003938063877
_cell_angle_beta     89.9997999203196
_cell_angle_gamma    89.99997325681616

_space_group_name_H-M_alt    "P 1"
_space_group_IT_number       1

loop_
  _space_group_symop_operation_xyz
  'x, y, z'

loop_
  _atom_site_type_symbol
  _atom_site_label
  _atom_site_symmetry_multiplicity
  _atom_site_fract_x
  _atom_site_fract_y
  _atom_site_fract_z
  _atom_site_occupancy
  Zn  Zn1       1.0  0.5523043184681455  0.5523050994030072  0.032850786363482605  1.0000
  Zn  Zn2       1.0  0.4476956710822933  0.5523000909812268  0.9671472381140944  1.0000
  Zn  Zn3       1.0  0.4476950633219019  0.44769848963282044  0.03285174749436241  1.0000
  Zn  Zn4       1.0  0.552304512950677  0.44769481865095173  0.9671494188858747  1.0000
  Zn  Zn5       1.0  0.44769801240956764  0.44769734147241286  0.46714748535593037  1.0000
  Zn  Zn6       1.0  0.4476941082667736  0.5523035495925798  0.5328503413538499  1.0000
  Zn  Zn7       1.0  0.5523054191881371  0.5523053375157688  0.4671494214715182  1.0000
  Zn  Zn8       1.0  0.5523015638724261  0.4476936563577071  0.5328504940552463  1.0000
  H   H1        1.0  0.2567863233911751  0.43031007942780525  0.04429635677333011  1.0000
  H   H2        1.0  0.141636774769232  0.4300698193739976  0.0444207745221519  1.0000
  H   H3        1.0  0.2567860626101535  0.5696895144848215  0.9557039158946168  1.0000
  H   H4        1.0  0.1416360524791429  0.5699312145620895  0.9555794604760308  1.0000
  H   H5        1.0  0.05714438162711129  0.5001135266730828  0.9376154653366343  1.0000
  H   H6        1.0  0.057143584985134104  0.4998875467046418  0.0623852443336403  1.0000
  H   H7        1.0  0.743212994639059  0.5696879770736699  0.04429672359401591  1.0000
  H   H8        1.0  0.8583625425682586  0.5699296235349111  0.044420889392810615  1.0000
  H   H9        1.0  0.7432132609997595  0.4303109276825694  0.9557033534945134  1.0000
  H   H10       1.0  0.8583628097340679  0.43006968955933894  0.9555789356419808  1.0000
  H   H11       1.0  0.9428537839149558  0.5001096054514633  0.062385144177717705  1.0000
  H   H12       1.0  0.9428545806608852  0.49989013029259166  0.9376153650847598  1.0000
  H   H13       1.0  0.569392528820984  0.5693881795210916  0.1510592014742755  1.0000
  H   H14       1.0  0.43061081533834794  0.4306150770428089  0.15105845429934564  1.0000
  H   H15       1.0  0.430614422948409  0.4306110267220193  0.3489416777591075  1.0000
  H   H16       1.0  0.5693873567265797  0.5693924468284168  0.3489409763233695  1.0000
  H   H17       1.0  0.4306102252873388  0.5693835115471659  0.8489417276042277  1.0000
  H   H18       1.0  0.5693929277205143  0.4306112684655832  0.8489409663699308  1.0000
  H   H19       1.0  0.5693870096612484  0.430608849521896  0.6510583223601287  1.0000
  H   H20       1.0  0.4306130869324818  0.5693903344090502  0.6510590835868089  1.0000
  H   H21       1.0  0.42937922344736296  0.2567951007478159  0.043714074151957015  1.0000
  H   H22       1.0  0.4291921035199451  0.14164633673483715  0.0438652856967181  1.0000
  H   H23       1.0  0.5706195177479501  0.25679556811737575  0.9562846921897334  1.0000
  H   H24       1.0  0.5708080776803683  0.14164726594236754  0.9561354591059797  1.0000
  H   H25       1.0  0.5995287060164358  0.05714897408830671  0.9999371052945281  1.0000
  H   H26       1.0  0.40047105253101734  0.057148934438068004  6.3313380835e-05  1.0000
  H   H27       1.0  0.429378878443366  0.7432030263263131  0.9562855309982865  1.0000
  H   H28       1.0  0.4291907814358212  0.8583522525175695  0.9561348993131135  1.0000
  H   H29       1.0  0.5706187115577493  0.7432024930250379  0.043714314072048  1.0000
  H   H30       1.0  0.5708072169154265  0.8583507951125144  0.04386441591636011  1.0000
  H   H31       1.0  0.40047129535144427  0.9428492061307171  0.9999369344954379  1.0000
  H   H32       1.0  0.599528511921527  0.9428486114692733  6.299658406310003e-05  1.0000
  H   H33       1.0  0.569690149701927  0.7432133472018307  0.4557033011395292  1.0000
  H   H34       1.0  0.5699313340653518  0.8583630353972467  0.4555781647330691  1.0000
  H   H35       1.0  0.43031159910399464  0.7432143524865186  0.5442959644822025  1.0000
  H   H36       1.0  0.4300698989130539  0.8583640409311005  0.5444197018759667  1.0000
  H   H37       1.0  0.4998892903990467  0.9428544881136962  0.5623840059587053  1.0000
  H   H38       1.0  0.5001095926964396  0.9428548817450775  0.4376141867778146  1.0000
  H   H39       1.0  0.4303101110263726  0.25678654669508216  0.455703928353401  1.0000
  H   H40       1.0  0.43006846526878223  0.141636858362844  0.4555793223153941  1.0000
  H   H41       1.0  0.5696886301692246  0.2567856385556696  0.5442962866063752  1.0000
  H   H42       1.0  0.569929867579532  0.14163595024717074  0.5444205533115963  1.0000
  H   H43       1.0  0.4998866099984979  0.05714545440741859  0.4376142859555189  1.0000
  H   H44       1.0  0.5001113001971619  0.0571445985817931  0.562384104649283  1.0000
  H   H45       1.0  0.7432026050393148  0.5706193150751774  0.45628570985487477  1.0000
  H   H46       1.0  0.8583512295663385  0.5708078209922222  0.4561352168986446  1.0000
  H   H47       1.0  0.7432037807355485  0.4293800517763984  0.5437149467043341  1.0000
  H   H48       1.0  0.8583524045119546  0.42919195419795403  0.5438654773332559  1.0000
  H   H49       1.0  0.9428488913054949  0.4004711449181571  0.5000631033953982  1.0000
  H   H50       1.0  0.9428483831146794  0.5995285908284844  0.4999374058792156  1.0000
  H   H51       1.0  0.2567941413255355  0.5706199386291928  0.5437152197617436  1.0000
  H   H52       1.0  0.1416459788028703  0.5708080363720994  0.543864843625343  1.0000
  H   H53       1.0  0.25679534199738197  0.429380117370144  0.4562856323364174  1.0000
  H   H54       1.0  0.1416467183094525  0.42919253546865127  0.4561348119021602  1.0000
  H   H55       1.0  0.0571488118485917  0.5995287976213961  0.5000632464671073  1.0000
  H   H56       1.0  0.057148858651693515  0.4004713515729821  0.4999368837435157  1.0000
  H   H57       1.0  0.6154795891492384  0.6731483257602734  0.2830877477958538  1.0000
  H   H58       1.0  0.6216086508208889  0.6214237970431145  0.322492568061179  1.0000
  H   H59       1.0  0.6731396326284412  0.6156203702533534  0.282973810602222  1.0000
  H   H60       1.0  0.6731472101103861  0.6154798585563485  0.21691258800298396  1.0000
  H   H61       1.0  0.6214232945229128  0.6216090158381817  0.1775075180934209  1.0000
  H   H62       1.0  0.6156197863792771  0.6731399718811276  0.21702623535552595  1.0000
  H   H63       1.0  0.3845193227659039  0.32685322721796695  0.2830873465290153  1.0000
  H   H64       1.0  0.37839004157128653  0.3785759507828175  0.3224924922186433  1.0000
  H   H65       1.0  0.3268597420096526  0.3843793342387158  0.28297413978107505  1.0000
  H   H66       1.0  0.3268525325518112  0.38451977349683375  0.21691291725854717  1.0000
  H   H67       1.0  0.3785757434838502  0.37839057300585216  0.1775077314893565  1.0000
  H   H68       1.0  0.38437856938065823  0.326860122387295  0.21702641384829494  1.0000
  H   H69       1.0  0.3845189577249144  0.6731458449780662  0.7169129362652741  1.0000
  H   H70       1.0  0.37838992019339923  0.6214226621841166  0.6775080937162415  1.0000
  H   H71       1.0  0.3268589410950611  0.6156197648733512  0.7170265589506641  1.0000
  H   H72       1.0  0.3268522878592321  0.6154788635279332  0.7830874917638512  1.0000
  H   H73       1.0  0.3785748143158827  0.6216080398745876  0.8224928540399221  1.0000
  H   H74       1.0  0.3843787604994588  0.6731380256937102  0.7829741589777087  1.0000
  H   H75       1.0  0.6154789236390954  0.3268515628036894  0.716912898617281  1.0000
  H   H76       1.0  0.6216081806947004  0.37857516447864736  0.6775074854866505  1.0000
  H   H77       1.0  0.6731394017267648  0.3843781051230479  0.7170261301477441  1.0000
  H   H78       1.0  0.6731470732080496  0.3845186168166491  0.7830876424547029  1.0000
  H   H79       1.0  0.6214229409577356  0.37838948367969033  0.8224925358599153  1.0000
  H   H80       1.0  0.6156201391109236  0.3268585303456817  0.7829738313004881  1.0000
  C   C1        1.0  0.4999953535068755  0.6672935123788264  1.0451374450000002e-06  1.0000
  C   C2        1.0  0.33269576054911454  0.5000002844185191  0.9999989143037383  1.0000
  C   C3        1.0  0.5000020316873304  0.5000020650670012  0.10490413523325512  1.0000
  C   C4        1.0  0.4999963428334695  0.3327045817310364  0.9999984054378502  1.0000
  C   C5        1.0  0.6673051775872879  0.4999991959603279  5.362617443000001e-07  1.0000
  C   C6        1.0  0.500001678985619  0.5000006499441838  0.895095894778713  1.0000
  C   C7        1.0  0.3327050088075652  0.49999677565014644  0.5000017915894759  1.0000
  C   C8        1.0  0.5000013542075054  0.6673044145903688  0.49999932673426883  1.0000
  C   C9        1.0  0.5000002991856506  0.4999999137189946  0.39509587483254194  1.0000
  C   C10       1.0  0.6672945430552417  0.49999623546479927  0.49999968704702996  1.0000
  C   C11       1.0  0.5000005081068082  0.3326955278789613  0.5000007032791274  1.0000
  C   C12       1.0  0.5000001768609366  0.4999995666599588  0.6049035757334451  1.0000
  C   C13       1.0  0.263788464609064  0.5000003005019665  0.9999995691690557  1.0000
  C   C14       1.0  0.23107430578127014  0.46096884752721234  0.0251406824301625  1.0000
  C   C15       1.0  0.1668267232300664  0.46124195799433226  0.0252436049726015  1.0000
  C   C16       1.0  0.2310744146844641  0.5390326067490251  0.9748590670706534  1.0000
  C   C17       1.0  0.16682544656182327  0.5387595262737861  0.9747571543361746  1.0000
  C   C18       1.0  0.1336247068059606  0.5000002447031026  5.409066404000001e-07  1.0000
  C   C19       1.0  0.0654512095005089  0.5000002606149679  6.155200083000002e-07  1.0000
  C   C20       1.0  0.032139700830178704  0.5003635384509125  0.9650573200891871  1.0000
  C   C21       1.0  0.0321390571821709  0.49963708450870575  0.03494344431420871  1.0000
  C   C22       1.0  0.7362106251657536  0.4999987177874062  7.505715942000005e-07  1.0000
  C   C23       1.0  0.7689241947829829  0.5390305742409042  0.0251415592107378  1.0000
  C   C24       1.0  0.8331731630329742  0.5387579259761426  0.025243471827664607  1.0000
  C   C25       1.0  0.7689248022098454  0.46096785642339483  0.9748596204950601  1.0000
  C   C26       1.0  0.8331728467234147  0.46124093678654554  0.9747566980697686  1.0000
  C   C27       1.0  0.8663739338167674  0.499999149497036  2.8663940600000124e-08  1.0000
  C   C28       1.0  0.9345474311213026  0.49999959567571756  2.4377508370000024e-07  1.0000
  C   C29       1.0  0.9678589266838035  0.500361423827485  0.034943579257174  1.0000
  C   C30       1.0  0.9678595706707681  0.4996387623346197  0.965057164995578  1.0000
  C   C31       1.0  0.539614033879822  0.5396124779712609  0.16817180017162062  1.0000
  C   C32       1.0  0.5407774626172073  0.5407811265457952  0.20879492842674102  1.0000
  C   C33       1.0  0.5815374128320556  0.581543969527637  0.22999431770263365  1.0000
  C   C34       1.0  0.4603882907652093  0.4603894110866734  0.16817158009139635  1.0000
  C   C35       1.0  0.45922278735982763  0.459220344966994  0.20879442066746634  1.0000
  C   C36       1.0  0.4184622569516919  0.418457525231794  0.22999475077629233  1.0000
  C   C37       1.0  0.4603878349033366  0.4603895008148415  0.3318282098946811  1.0000
  C   C38       1.0  0.4592188610857519  0.45922408687458477  0.2912056610951552  1.0000
  C   C39       1.0  0.41845660042298494  0.41846309225449124  0.2700056923733669  1.0000
  C   C40       1.0  0.5396126538379918  0.5396139539707864  0.3318284299762127  1.0000
  C   C41       1.0  0.5407804676944535  0.5407779370955837  0.29120529967210734  1.0000
  C   C42       1.0  0.581542846459989  0.5815384463789216  0.2700058387340007  1.0000
  C   C43       1.0  0.5000009870383623  0.500000702508345  0.14815332660037941  1.0000
  C   C44       1.0  0.5000002984718606  0.500000747086297  0.22945955810828883  1.0000
  C   C45       1.0  0.49999995756607524  0.5000008141874304  0.35184639374242016  1.0000
  C   C46       1.0  0.4999997219513261  0.5000007696100184  0.270540741684357  1.0000
  C   C47       1.0  0.46038919621677366  0.5396105498736576  0.8318282469057368  1.0000
  C   C48       1.0  0.4592225323038478  0.5407782302666958  0.7912056986062552  1.0000
  C   C49       1.0  0.41846163888577353  0.5815406069391288  0.7700060371683364  1.0000
  C   C50       1.0  0.5396140521272416  0.4603860597353277  0.8318281431313113  1.0000
  C   C51       1.0  0.5407777077196699  0.4592174106176472  0.7912050123292786  1.0000
  C   C52       1.0  0.5815377950607682  0.4184550106990559  0.7700052441084111  1.0000
  C   C53       1.0  0.5396117354515938  0.46038689418825385  0.6681709338824291  1.0000
  C   C54       1.0  0.5407802477215428  0.45922198633739003  0.7087940616293125  1.0000
  C   C55       1.0  0.5815425274087502  0.41846099593577435  0.7299937230660163  1.0000
  C   C56       1.0  0.4603882658088665  0.5396118464169605  0.6681716171042638  1.0000
  C   C57       1.0  0.4592190651404948  0.5407758746319689  0.7087944581869509  1.0000
  C   C58       1.0  0.4184562052595098  0.5815355020092384  0.7299948058590858  1.0000
  C   C59       1.0  0.5000017994564061  0.49999923996060847  0.8518464136875892  1.0000
  C   C60       1.0  0.49999971548351146  0.4999978091123225  0.7705404719068341  1.0000
  C   C61       1.0  0.5000000563903698  0.5000000524627738  0.64815305682437  1.0000
  C   C62       1.0  0.4999993678242946  0.49999824867919784  0.7294592883318815  1.0000
  C   C63       1.0  0.49999866935815623  0.2637985882926587  0.9999998392143328  1.0000
  C   C64       1.0  0.4599220337893044  0.23107929128253352  0.024486764166020702  1.0000
  C   C65       1.0  0.45976031784059757  0.16682839628278864  0.024309149436867  1.0000
  C   C66       1.0  0.5400771814936576  0.2310797939937927  0.9755134397183411  1.0000
  C   C67       1.0  0.5402403136951507  0.16682936120399464  0.9756921856631137  1.0000
  C   C68       1.0  0.5000005610333602  0.13361239279372233  6.40447027e-07  1.0000
  C   C69       1.0  0.5000001148547852  0.0654314191628771  3.3603623000000023e-07  1.0000
  C   C70       1.0  0.555754943725944  0.03214157697544101  0.9997746124201257  1.0000
  C   C71       1.0  0.44424528858247936  0.03214197915989559  0.00022579548112840005  1.0000
  C   C72       1.0  0.49999855912206925  0.7362000540860123  0.9999993615256672  1.0000
  C   C73       1.0  0.4599215696699873  0.7689188215339302  0.9755124844039856  1.0000
  C   C74       1.0  0.4597593606537771  0.8331697166095962  0.975690678936495  1.0000
  C   C75       1.0  0.5400769325136282  0.7689187434961794  0.0244856333978447  1.0000
  C   C76       1.0  0.5402400357238406  0.8331687141196157  0.0243071768203293  1.0000
  C   C77       1.0  0.4999999150119337  0.8663857013144071  0.9999993895674919  1.0000
  C   C78       1.0  0.49999943701097754  0.9345662128550885  0.9999996939791985  1.0000
  C   C79       1.0  0.4442450585475227  0.9678561409749736  0.9997743565770991  1.0000
  C   C80       1.0  0.5557547370552172  0.967855566925401  0.0002252955514948  1.0000
  C   C81       1.0  0.5000013381244416  0.7362113322103951  0.5000005004751884  1.0000
  C   C82       1.0  0.5390327412850057  0.7689254599315734  0.4748590493198108  1.0000
  C   C83       1.0  0.5387596314965466  0.8331731202462157  0.4747559215668886  1.0000
  C   C84       1.0  0.46096899551938014  0.7689255057197856  0.5251408068278565  1.0000
  C   C85       1.0  0.461241613234968  0.8331745522908209  0.5252430930875607  1.0000
  C   C86       1.0  0.5000003835745234  0.866374337009866  0.49999907989258946  1.0000
  C   C87       1.0  0.49999990557599017  0.9345479171946709  0.4999990945783921  1.0000
  C   C88       1.0  0.4996379841409748  0.9678591078251848  0.5349421842879991  1.0000
  C   C89       1.0  0.5003613493751687  0.9678595314300655  0.4650557294961146  1.0000
  C   C90       1.0  0.49999960001115806  0.26378814816860807  0.4999992398147057  1.0000
  C   C91       1.0  0.4609674127292039  0.23107491706043254  0.4748590189009789  1.0000
  C   C92       1.0  0.46124006100196635  0.16682587036181223  0.47475615259567405  1.0000
  C   C93       1.0  0.5390308783782132  0.2310735401370323  0.5251406055332738  1.0000
  C   C94       1.0  0.538757798002834  0.16682541785900903  0.5252428647106342  1.0000
  C   C95       1.0  0.4999991682949485  0.13362468127844815  0.49999950150107253  1.0000
  C   C96       1.0  0.4999987221145403  0.0654515631840837  0.49999919709196666  1.0000
  C   C97       1.0  0.4996360867130605  0.03213991063230281  0.4650561081752614  1.0000
  C   C98       1.0  0.5003618351528871  0.032139486689033006  0.5349422716567247  1.0000
  C   C99       1.0  0.7362009148099561  0.49999991610556566  0.5000007705300078  1.0000
  C   C100      1.0  0.7689187812277538  0.5400774558810681  0.47551410504662084  1.0000
  C   C101      1.0  0.8331691354332662  0.5402405588870708  0.4756922152768084  1.0000
  C   C102      1.0  0.7689195876963809  0.45992282314771427  0.5244879438444485  1.0000
  C   C103      1.0  0.8331699429722763  0.45975969014901347  0.524309113526165  1.0000
  C   C104      1.0  0.8663854795910382  0.5000003478105484  0.5000006280479142  1.0000
  C   C105      1.0  0.9345663703345154  0.49999986980642325  0.5000002637019421  1.0000
  C   C106      1.0  0.9678557953877844  0.4442449609655412  0.5002253311274956  1.0000
  C   C107      1.0  0.967855308531405  0.5557547631075932  0.4997748336844128  1.0000
  C   C108      1.0  0.2637977128717068  0.4999995642749299  0.5000007081089066  1.0000
  C   C109      1.0  0.23107844148128015  0.5400776082642765  0.5244868114113218  1.0000
  C   C110      1.0  0.16682808720054962  0.5402402789767393  0.5243084115268959  1.0000
  C   C111      1.0  0.2310785966000211  0.45992199764881314  0.4755135175288245  1.0000
  C   C112      1.0  0.16682824140315944  0.4597602811090197  0.4756911888794733  1.0000
  C   C113      1.0  0.13361176182406354  0.5000005188407786  0.4999996916951518  1.0000
  C   C114      1.0  0.0654308710808067  0.5000000726641431  0.5000000560409319  1.0000
  C   C115      1.0  0.0321428310411633  0.5557554438422514  0.5002257998023225  1.0000
  C   C116      1.0  0.0321433204092045  0.4442447170251001  0.4997746748684691  1.0000
  C   C117      1.0  0.6247389342762802  0.6247254148050845  0.29097547440542126  1.0000
  C   C118      1.0  0.6247248377608444  0.6247396946789651  0.2090246060953689  1.0000
  C   C119      1.0  0.3752608578755173  0.3752756847319675  0.2909754039915243  1.0000
  C   C120      1.0  0.3752754109347549  0.37526131499569715  0.2090248253683598  1.0000
  C   C121      1.0  0.3752596351988231  0.6247238538763896  0.7090246093454909  1.0000
  C   C122      1.0  0.3752746558866207  0.6247372994253128  0.7909757673849143  1.0000
  C   C123      1.0  0.6247387522005213  0.3752735452553751  0.709024572290133  1.0000
  C   C124      1.0  0.6247241991471598  0.37525926538818066  0.7909754406315416  1.0000
  O   O1        1.0  0.4999990763287984  0.5000007074605295  0.9999998900942089  1.0000
  O   O2        1.0  0.5374291913087674  0.6405611257426288  0.023226756066833304  1.0000
  O   O3        1.0  0.3594318716322534  0.5372932695985215  0.9766876667154208  1.0000
  O   O4        1.0  0.4627927666073148  0.4627968575025535  0.0880868246011559  1.0000
  O   O5        1.0  0.4625596668821927  0.640559355568044  0.9767759420367312  1.0000
  O   O6        1.0  0.5372113904518585  0.5372077162817064  0.08808820780365073  1.0000
  O   O7        1.0  0.35943084793120056  0.46270442803603373  0.0233100634741419  1.0000
  O   O8        1.0  0.4625605402200463  0.35943875601748243  0.023224459655885703  1.0000
  O   O9        1.0  0.6405701076087881  0.4627016504950775  0.9766905299208019  1.0000
  O   O10       1.0  0.5374298354571535  0.3594374129837163  0.9767731920178733  1.0000
  O   O11       1.0  0.6405685870119272  0.5372945296339681  0.023310641020010806  1.0000
  O   O12       1.0  0.4627946133035437  0.5372058748772731  0.9119127074079075  1.0000
  O   O13       1.0  0.5372118856131536  0.46279313299839964  0.9119120304828812  1.0000
  O   O14       1.0  0.499999082798283  0.4999999712350205  0.49999987014651753  1.0000
  O   O15       1.0  0.35943882664420107  0.46256512536034233  0.47677483771173007  1.0000
  O   O16       1.0  0.46270371575315744  0.6405692729009331  0.5233100087072274  1.0000
  O   O17       1.0  0.5372072538187141  0.5372097421871589  0.4119120265705121  1.0000
  O   O18       1.0  0.3594377555992594  0.537429337641335  0.5232283972258287  1.0000
  O   O19       1.0  0.46279509922669604  0.4627924141424273  0.4119129611548544  1.0000
  O   O20       1.0  0.5372976188656653  0.6405706162014014  0.4766900818671331  1.0000
  O   O21       1.0  0.6405613167060409  0.5374283223752769  0.4767722283645597  1.0000
  O   O22       1.0  0.5372961683422802  0.3594283846775426  0.5233104459567954  1.0000
  O   O23       1.0  0.6405612047770788  0.46256600939491244  0.5232269145226596  1.0000
  O   O24       1.0  0.46270437330815645  0.35943207324959303  0.4766895234977682  1.0000
  O   O25       1.0  0.4627945911323508  0.5372107803273919  0.5880868605761977  1.0000
  O   O26       1.0  0.537203545826131  0.46279064500453165  0.5880864733830862  1.0000
