data_image0
_chemical_formula_structural       ZnH16PdC12N2Cl2O8
_chemical_formula_sum              "Zn1 H16 Pd1 C12 N2 Cl2 O8"
_cell_length_a       5.50520380010102
_cell_length_b       6.6988125817181166
_cell_length_c       12.460304030085796
_cell_angle_alpha    102.0162348829502
_cell_angle_beta     98.55971538538884
_cell_angle_gamma    94.89577606674631

_space_group_name_H-M_alt    "P 1"
_space_group_IT_number       1

loop_
  _space_group_symop_operation_xyz
  'x, y, z'

loop_
  _atom_site_type_symbol
  _atom_site_label
  _atom_site_symmetry_multiplicity
  _atom_site_fract_x
  _atom_site_fract_y
  _atom_site_fract_z
  _atom_site_occupancy
  Zn  Zn1       1.0  0.5000014842346514  0.49999494568808694  0.5000020580591951  1.0000
  H   H1        1.0  0.617444420331168  0.9510409541792625  0.0897887188420441  1.0000
  H   H2        1.0  0.3825635007301641  0.048958122009423684  0.9102095093969922  1.0000
  H   H3        1.0  0.9453937521689112  0.18485058288754166  0.23028931921906803  1.0000
  H   H4        1.0  0.0545896585919223  0.8151548646138735  0.7697177451942423  1.0000
  H   H5        1.0  0.9887842885070626  0.44326964300875443  0.11571470757512971  1.0000
  H   H6        1.0  0.011227952276541867  0.5567340111203051  0.8842810899307025  1.0000
  H   H7        1.0  0.3293593670645265  0.6567967887918089  0.25338512273427233  1.0000
  H   H8        1.0  0.6706534076189498  0.3432099430735107  0.7466134606732809  1.0000
  H   H9        1.0  0.034511672910717564  0.6501316352804665  0.4439132155540123  1.0000
  H   H10       1.0  0.9654841092339692  0.34985984821735633  0.5560866236373201  1.0000
  H   H11       1.0  0.25677189892093816  0.8108644990209299  0.5281505221823296  1.0000
  H   H12       1.0  0.7432249510234994  0.18913313994941913  0.4718548888124588  1.0000
  H   H13       1.0  0.6577066139554829  0.5325382730615189  0.30638068387464307  1.0000
  H   H14       1.0  0.3422857394455575  0.4674547777239794  0.6936191199599406  1.0000
  H   H15       1.0  0.6451947438711156  0.7618260465317305  0.3726111227378226  1.0000
  H   H16       1.0  0.3548046897618704  0.238165405985427  0.6273881352877738  1.0000
  Pd  Pd1       1.0  0.5000045745405471  0.49999805827432914  0.9999972356508878  1.0000
  C   C1        1.0  0.17781343305452418  0.7301819415609146  0.21925581942356598  1.0000
  C   C2        1.0  0.8221816008235691  0.2698403304271011  0.7807450198013727  1.0000
  C   C3        1.0  0.7788529571820744  0.8925815186234586  0.12807868990638127  1.0000
  C   C4        1.0  0.2211521499048601  0.10741142219303872  0.8719178741641047  1.0000
  C   C5        1.0  0.16645669190586426  0.9403499927972873  0.2538501083850804  1.0000
  C   C6        1.0  0.8335452087637022  0.05963374310635321  0.7461484359298538  1.0000
  C   C7        1.0  0.9630075571714584  0.021974314682026402  0.20583997848036972  1.0000
  C   C8        1.0  0.036983139720625474  0.9780556868487125  0.7941598555647432  1.0000
  C   C9        1.0  0.987166374809547  0.6082391288074973  0.1421200243342255  1.0000
  C   C10       1.0  0.012853426641157675  0.39175369320859227  0.8578782340200135  1.0000
  C   C11       1.0  0.3645925811570549  0.07562912784979403  0.34180637821417303  1.0000
  C   C12       1.0  0.6353857363916262  0.9243917436586172  0.6581948795163798  1.0000
  N   N1        1.0  0.7891875400978917  0.6884189047738828  0.0983239629754564  1.0000
  N   N2        1.0  0.21081465488153128  0.31159098854966766  0.9016719157269721  1.0000
  Cl  Cl1       1.0  0.4854573758573081  0.3176282780557785  0.13794033389589092  1.0000
  Cl  Cl2       1.0  0.5145514715468735  0.6823769454098569  0.8620570358318674  1.0000
  O   O1        1.0  0.21503521923029467  0.6814918802645453  0.4687112050028617  1.0000
  O   O2        1.0  0.7849605346729689  0.3184980781951907  0.5312980923937118  1.0000
  O   O3        1.0  0.7015731813326553  0.6261090921033059  0.380662435763469  1.0000
  O   O4        1.0  0.2984217632981228  0.3738885577473638  0.6193396487621571  1.0000
  O   O5        1.0  0.5640721104117148  0.003642378733218298  0.37133595185098767  1.0000
  O   O6        1.0  0.43593704060649685  0.996353600643296  0.6286563866407563  1.0000
  O   O7        1.0  0.31265551629147836  0.2558926324676492  0.37934776328758363  1.0000
  O   O8        1.0  0.6873430617271054  0.7440926768703592  0.6206555684066544  1.0000
