data_image0
_chemical_formula_structural       CuP2H32C18N2O8
_chemical_formula_sum              "Cu1 P2 H32 C18 N2 O8"
_cell_length_a       6.624818804453168
_cell_length_b       9.109405695378491
_cell_length_c       9.768499321706287
_cell_angle_alpha    79.37685878073961
_cell_angle_beta     82.63549150832529
_cell_angle_gamma    73.93673320733745

_space_group_name_H-M_alt    "P 1"
_space_group_IT_number       1

loop_
  _space_group_symop_operation_xyz
  'x, y, z'

loop_
  _atom_site_type_symbol
  _atom_site_label
  _atom_site_symmetry_multiplicity
  _atom_site_fract_x
  _atom_site_fract_y
  _atom_site_fract_z
  _atom_site_occupancy
  Cu  Cu1       1.0  0.4999973909214504  0.9999990475527764  0.49999796405152364  1.0000
  P   P1        1.0  0.18575040582187813  0.3275087694887872  0.3949324892830433  1.0000
  P   P2        1.0  0.8142493744877161  0.6724900270784457  0.6050669305064958  1.0000
  H   H1        1.0  0.9256728067040711  0.04006937567952918  0.4080751374925526  1.0000
  H   H2        1.0  0.07431998519465563  0.9599410027335367  0.5919249748303628  1.0000
  H   H3        1.0  0.15179359710425902  0.050692541730391796  0.1926887088454237  1.0000
  H   H4        1.0  0.8482049612403845  0.9493143392973233  0.8073114698284131  1.0000
  H   H5        1.0  0.6794720265137147  0.9337486361640185  0.9945289304215664  1.0000
  H   H6        1.0  0.3205407960558021  0.06624315736164019  0.005469458230550094  1.0000
  H   H7        1.0  0.47319753588422503  0.9239414045880137  0.22630336883914745  1.0000
  H   H8        1.0  0.5268109979813219  0.07605388003979385  0.7736917447393736  1.0000
  H   H9        1.0  0.5908348543348866  0.3022197083354995  0.2348870828178917  1.0000
  H   H10       1.0  0.4091614628318185  0.6977802642853914  0.7651114338105033  1.0000
  H   H11       1.0  0.5291179245641191  0.48231078019924195  0.2973419575241749  1.0000
  H   H12       1.0  0.4708814904041604  0.517689170910728  0.7026593436342667  1.0000
  H   H13       1.0  0.5460496807292045  0.4778556271635565  0.11504612966547263  1.0000
  H   H14       1.0  0.45394669968980156  0.5221443414819974  0.8849564767297623  1.0000
  H   H15       1.0  0.04976364619373899  0.34907896963999  0.11965450529320526  1.0000
  H   H16       1.0  0.9502326082842744  0.650925619837835  0.8803432158795986  1.0000
  H   H17       1.0  0.31865661557748837  0.23954009733292023  0.11210428149877323  1.0000
  H   H18       1.0  0.6813415452360874  0.7604633273436147  0.8878924393492867  1.0000
  H   H19       1.0  0.24195206378933432  0.42314489756827794  0.0060741266932851055  1.0000
  H   H20       1.0  0.7580438411604364  0.576860845458448  0.9939264982901437  1.0000
  H   H21       1.0  0.1784893693289717  0.6628219084839485  0.10605942967667661  1.0000
  H   H22       1.0  0.8215073611818797  0.33718151949428676  0.8939435672191963  1.0000
  H   H23       1.0  0.16726898935575463  0.6630946121192449  0.28837675732444984  1.0000
  H   H24       1.0  0.8327297576185874  0.336903031219279  0.7116291020274091  1.0000
  H   H25       1.0  0.9625129622340014  0.6166589723386479  0.2167173826122237  1.0000
  H   H26       1.0  0.03748499080540313  0.38334098406069456  0.7832881497106073  1.0000
  H   H27       1.0  0.49182682194958743  0.7139464972025846  0.4472324285894373  1.0000
  H   H28       1.0  0.5081772154378257  0.28604881025017187  0.5527682213902667  1.0000
  H   H29       1.0  0.24821554011664657  0.7477179436354999  0.488608560030798  1.0000
  H   H30       1.0  0.7517891974544569  0.25228428248262696  0.5113928709501749  1.0000
  H   H31       1.0  0.8561510729028541  0.46715607546079224  0.43999168550657  1.0000
  H   H32       1.0  0.14384678525810565  0.5328438869015596  0.5600077121659908  1.0000
  C   C1        1.0  0.8764539180961678  0.017132448344213493  0.31405127361014723  1.0000
  C   C2        1.0  0.12354351203477172  0.9828732854178026  0.685949209975739  1.0000
  C   C3        1.0  0.0031668461783383004  0.023387103183942798  0.1895014993740318  1.0000
  C   C4        1.0  0.9968341097841888  0.9766128376674884  0.8105006828285894  1.0000
  C   C5        1.0  0.9361671822050187  0.9963900300092868  0.06803518075421525  1.0000
  C   C6        1.0  0.0638349962860545  0.0036064392632439986  0.9319695368753642  1.0000
  C   C7        1.0  0.740828914192818  0.9602290969060688  0.0823526523017435  1.0000
  C   C8        1.0  0.25918004826635155  0.039765029203664384  0.917644669674715  1.0000
  C   C9        1.0  0.6227907295029594  0.9552642373697962  0.2102710459949933  1.0000
  C   C10       1.0  0.3772177416738885  0.04473566411493829  0.7897232721279437  1.0000
  C   C11       1.0  0.2589586959906214  0.43327995681126186  0.2249339619762978  1.0000
  C   C12       1.0  0.7410383998615517  0.5667223166242364  0.7750671535506585  1.0000
  C   C13       1.0  0.49534779420898195  0.42258382584399357  0.21857247342187952  1.0000
  C   C14       1.0  0.5046504925455866  0.5774149780002773  0.7814291326486186  1.0000
  C   C15       1.0  0.21382291344849583  0.3565054802672591  0.10918982506504457  1.0000
  C   C16       1.0  0.7861752631781588  0.6434979434154467  0.8908079182247306  1.0000
  C   C17       1.0  0.13307364545172362  0.603634637224985  0.20948307226579035  1.0000
  C   C18       1.0  0.8669227349672823  0.39636533142056857  0.7905195341294445  1.0000
  N   N1        1.0  0.6883745646180731  0.9855707653450166  0.324366314407719  1.0000
  N   N2        1.0  0.3116206243349354  0.014428060010175197  0.6756325071327255  1.0000
  O   O1        1.0  0.27467828604736166  0.15403424731459125  0.39167611263152213  1.0000
  O   O2        1.0  0.7253184122737437  0.8459645697697269  0.6083215450696714  1.0000
  O   O3        1.0  0.2567648969056791  0.3878610899643532  0.5123668839818052  1.0000
  O   O4        1.0  0.7432341837838339  0.6121354008190989  0.4876350491177136  1.0000
  O   O5        1.0  0.935314591607096  0.3603070967496007  0.40754056754547463  1.0000
  O   O6        1.0  0.06468517288942625  0.6396917008114683  0.592457829802349  1.0000
  O   O7        1.0  0.35558464013461594  0.7920719794240936  0.42979046661182013  1.0000
  O   O8        1.0  0.6444197631577142  0.2079267863675156  0.5702115963102303  1.0000
