data_image0
_chemical_formula_structural       Na4B4H24C24N8O16F8
_chemical_formula_sum              "Na4 B4 H24 C24 N8 O16 F8"
_cell_length_a       6.58483704800463
_cell_length_b       11.727005869071883
_cell_length_c       13.960942101076007
_cell_angle_alpha    90.0003776584394
_cell_angle_beta     90.0000111425112
_cell_angle_gamma    89.999864125117

_space_group_name_H-M_alt    "P 1"
_space_group_IT_number       1

loop_
  _space_group_symop_operation_xyz
  'x, y, z'

loop_
  _atom_site_type_symbol
  _atom_site_label
  _atom_site_symmetry_multiplicity
  _atom_site_fract_x
  _atom_site_fract_y
  _atom_site_fract_z
  _atom_site_occupancy
  Na  Na1       1.0  0.20914304000256576  0.5395230422432391  0.24999967311708826  1.0000
  Na  Na2       1.0  0.2908560676846789  0.0395240909580608  0.24999972604951642  1.0000
  Na  Na3       1.0  0.7908555101546781  0.4604754560976474  0.7500008367296759  1.0000
  Na  Na4       1.0  0.7091440011074467  0.960476965576753  0.7500000675203468  1.0000
  B   B1        1.0  0.5386535944264706  0.30239750511448454  0.249999031297115  1.0000
  B   B2        1.0  0.9613509228051524  0.8023978269763604  0.2500011488625304  1.0000
  B   B3        1.0  0.4613479930115432  0.6976009932215703  0.750000762265735  1.0000
  B   B4        1.0  0.03865370191002168  0.1976023768200363  0.7499979284211308  1.0000
  H   H1        1.0  0.8709648417970539  0.6088003018265553  0.0324443744769312  1.0000
  H   H2        1.0  0.6290374580735616  0.1088007156493234  0.46755688344338614  1.0000
  H   H3        1.0  0.12903665015488738  0.3911998990139836  0.5324436654529663  1.0000
  H   H4        1.0  0.3709611875644895  0.8911986383876357  0.9675560963274563  1.0000
  H   H5        1.0  0.12903370835672934  0.3911999019823115  0.9675568516585857  1.0000
  H   H6        1.0  0.37096564800146564  0.8911994881537025  0.5324436264082949  1.0000
  H   H7        1.0  0.8709603813581167  0.6088003047902646  0.4675561281144099  1.0000
  H   H8        1.0  0.6290358439501631  0.1088007126812158  0.032442980953526004  1.0000
  H   H9        1.0  0.7504847327625368  0.7407879139074753  0.0012455505254465001  1.0000
  H   H10       1.0  0.7495109335524928  0.24078926548612867  0.4987564376289272  1.0000
  H   H11       1.0  0.24951067093891055  0.2592103364733519  0.5012448378866098  1.0000
  H   H12       1.0  0.2504892444187377  0.759210333556844  0.9987563425069583  1.0000
  H   H13       1.0  0.24951229874881875  0.2592131426321629  0.9987549593283306  1.0000
  H   H14       1.0  0.250487616599642  0.7592117910581276  0.5012455047929905  1.0000
  H   H15       1.0  0.7504878792166848  0.740789014602932  0.498756388246548  1.0000
  H   H16       1.0  0.7495093057329285  0.24079072297897852  0.0012434510628410002  1.0000
  H   H17       1.0  0.6936485698930495  0.6132543786915151  0.9360159224815947  1.0000
  H   H18       1.0  0.8063493746343509  0.11325565155890868  0.5639866421602449  1.0000
  H   H19       1.0  0.30634854326729055  0.38674216945864254  0.4360139219436619  1.0000
  H   H20       1.0  0.19365061252206314  0.886743944248565  0.0639866819577932  1.0000
  H   H21       1.0  0.3063499802643505  0.3867441196521782  0.06398530364921132  1.0000
  H   H22       1.0  0.19364917551975214  0.8867445522555857  0.4360160165433555  1.0000
  H   H23       1.0  0.6936500068899459  0.6132563288822439  0.5639865879031021  1.0000
  H   H24       1.0  0.8063494562720235  0.11325625955647921  0.9360138278937528  1.0000
  C   C1        1.0  0.8192085322597363  0.40075127777474506  0.19469717359013572  1.0000
  C   C2        1.0  0.6807910125112427  0.9007481427906825  0.3053021181415687  1.0000
  C   C3        1.0  0.18078695634036274  0.5992493444828426  0.6946976200557702  1.0000
  C   C4        1.0  0.3192151551186412  0.09925078981978429  0.805301959061204  1.0000
  C   C5        1.0  0.1807900178922423  0.5992497787666977  0.80530405254774  1.0000
  C   C6        1.0  0.31921513085130465  0.09924865006874484  0.6946955265646438  1.0000
  C   C7        1.0  0.8192146310956827  0.40075000658298887  0.3053014572254042  1.0000
  C   C8        1.0  0.6807879509522933  0.9007511194399667  0.19469640194306953  1.0000
  C   C9        1.0  0.5672428023581871  0.6228400508041718  0.07270672613050522  1.0000
  C   C10       1.0  0.9327564007670047  0.1228423033549433  0.42729604203884725  1.0000
  C   C11       1.0  0.4327465581497093  0.3771553498018108  0.5727009514910932  1.0000
  C   C12       1.0  0.0672543763319737  0.8771541763345855  0.9273001651552095  1.0000
  C   C13       1.0  0.4327557477972447  0.37715930026929817  0.9272937837186178  1.0000
  C   C14       1.0  0.0672421493839579  0.8771596059331443  0.5727087655215826  1.0000
  C   C15       1.0  0.5672565479256304  0.6228448540068358  0.4273009909286571  1.0000
  C   C16       1.0  0.9327502483839893  0.1228460274758731  0.07270249354864691  1.0000
  C   C17       1.0  0.7298845721357663  0.6481965400897849  0.0067929133911733  1.0000
  C   C18       1.0  0.7701160422424137  0.14819782074910393  0.4932092787782665  1.0000
  C   C19       1.0  0.2701153899216067  0.3518017538496352  0.5067919985053209  1.0000
  C   C20       1.0  0.22988109601319442  0.8518017347314599  0.9932082615892031  1.0000
  C   C21       1.0  0.27011397801786063  0.35180366371626814  0.9932075964603088  1.0000
  C   C22       1.0  0.22988554519065466  0.8518032357931418  0.506792663643779  1.0000
  C   C23       1.0  0.7298801229527356  0.6481975972230388  0.4932077950596323  1.0000
  C   C24       1.0  0.770114416857538  0.14819932180638057  0.006791531980461202  1.0000
  N   N1        1.0  0.4354734626435571  0.6017625012367916  0.12540654407491303  1.0000
  N   N2        1.0  0.0645284187248976  0.10176568163458201  0.3745946320104423  1.0000
  N   N3        1.0  0.5645387005981773  0.39823501869816613  0.625410209055282  1.0000
  N   N4        1.0  0.935458036984542  0.8982355005735768  0.8745889182736306  1.0000
  N   N5        1.0  0.5645250875139993  0.39823599710972246  0.8745953983399275  1.0000
  N   N6        1.0  0.9354777246272901  0.8982362276287787  0.6254051615620427  1.0000
  N   N7        1.0  0.43545529363539254  0.601764332369889  0.3745881519415236  1.0000
  N   N8        1.0  0.06453291996251657  0.10176640869143232  0.1254087264460821  1.0000
  O   O1        1.0  0.9480149525216245  0.44663483130910453  0.14484322062715904  1.0000
  O   O2        1.0  0.5519859165591254  0.946633964311758  0.35515345982905444  1.0000
  O   O3        1.0  0.05198355148085909  0.5533653994684827  0.64484769988875  1.0000
  O   O4        1.0  0.4480096424672268  0.053364507039930204  0.8551516253648758  1.0000
  O   O5        1.0  0.051985116266578785  0.5533679306852477  0.8551551403793456  1.0000
  O   O6        1.0  0.4480141522356788  0.0533653867410138  0.6448420360318536  1.0000
  O   O7        1.0  0.9480149986726116  0.44663480433475655  0.3551520936786901  1.0000
  O   O8        1.0  0.5519919449755761  0.9466314330871339  0.14484530305474413  1.0000
  O   O9        1.0  0.6580611513786038  0.34341352817460097  0.16470977675957957  1.0000
  O   O10       1.0  0.8419401548616036  0.8434138256231168  0.3352899140401746  1.0000
  O   O11       1.0  0.34193736134568553  0.656585153134465  0.6647112705577669  1.0000
  O   O12       1.0  0.1580614700019822  0.15658790067227815  0.8352886257775012  1.0000
  O   O13       1.0  0.3419389174169751  0.6565858228922324  0.8352893005215307  1.0000
  O   O14       1.0  0.15806446985537545  0.1565855254406898  0.6647091632411346  1.0000
  O   O15       1.0  0.6580642260903672  0.3434141979313595  0.33528780672340736  1.0000
  O   O16       1.0  0.8419416360730451  0.8434123031307482  0.1647118840741726  1.0000
  F   F1        1.0  0.3444254504947749  0.3510153295334391  0.2499998737386662  1.0000
  F   F2        1.0  0.15557689388792537  0.8510160574263279  0.2500026813506154  1.0000
  F   F3        1.0  0.6555761369417468  0.6489840215408265  0.7500013523946196  1.0000
  F   F4        1.0  0.8444262121856096  0.14898499911490862  0.7499992610715012  1.0000
  F   F5        1.0  0.5271805172963083  0.18358969294565958  0.2500008510002374  1.0000
  F   F6        1.0  0.9728260217491493  0.6835899995629473  0.2500008206980908  1.0000
  F   F7        1.0  0.47282562606309847  0.8164088053873685  0.7499989425628117  1.0000
  F   F8        1.0  0.0271770843257215  0.3164102042372647  0.7499989728695412  1.0000
