data_image0
_chemical_formula_structural       Hf6H86C124N6O32
_chemical_formula_sum              "Hf6 H86 C124 N6 O32"
_cell_length_a       14.931666591000345
_cell_length_b       23.45331539985139
_cell_length_c       40.60766367735249
_cell_angle_alpha    93.86382987252051
_cell_angle_beta     97.67619885054876
_cell_angle_gamma    90.0436668174889

_space_group_name_H-M_alt    "P 1"
_space_group_IT_number       1

loop_
  _space_group_symop_operation_xyz
  'x, y, z'

loop_
  _atom_site_type_symbol
  _atom_site_label
  _atom_site_symmetry_multiplicity
  _atom_site_fract_x
  _atom_site_fract_y
  _atom_site_fract_z
  _atom_site_occupancy
  Hf  Hf1       1.0  0.04805503057221469  0.9186804213535136  0.041149568397166485  1.0000
  Hf  Hf2       1.0  0.0131775297096439  0.08207732994059568  0.9665843813976379  1.0000
  Hf  Hf3       1.0  0.9315483460217918  0.04859177264820858  0.04127110584996528  1.0000
  Hf  Hf4       1.0  0.1292296478649888  0.9522007420660183  0.967800328167932  1.0000
  Hf  Hf5       1.0  0.8934582203564287  0.9529700071915668  0.9696806893404214  1.0000
  Hf  Hf6       1.0  0.1653143196090241  0.0502190381238634  0.0369200274008108  1.0000
  H   H1        1.0  0.012377197148943296  0.8596313198586356  0.9716958220869713  1.0000
  H   H2        1.0  0.8313246781577207  0.0646771820587375  0.9773903749454576  1.0000
  H   H3        1.0  0.2017264595540098  0.060285152763931586  0.9699469740471471  1.0000
  H   H4        1.0  0.08289176831876689  0.013465780504596096  0.088845782928928  1.0000
  H   H5        1.0  0.7359512665786028  0.9317750717054095  0.9932372975065319  1.0000
  H   H6        1.0  0.9824796915552129  0.09519832224087567  0.1059991796157149  1.0000
  H   H7        1.0  0.1809074039368213  0.14565676788515697  0.075841244656857  1.0000
  H   H8        1.0  0.8448819872646851  0.858536278512318  0.9312403553209165  1.0000
  H   H9        1.0  0.13680745029304828  0.9079699544594673  0.9058111789202029  1.0000
  H   H10       1.0  0.3053751470817331  0.9282330490060955  0.9791169227713181  1.0000
  H   H11       1.0  0.3390450162946479  0.06467908977829498  0.018575369920697  1.0000
  H   H12       1.0  0.8202861420158599  0.9721136276491719  0.9082946358325257  1.0000
  H   H13       1.0  0.8576358451383683  0.03761637308289779  0.9219708944838345  1.0000
  H   H14       1.0  0.1335198333561536  0.9084707370570937  0.10301262673548449  1.0000
  H   H15       1.0  0.3031868007580769  0.9915234915792722  0.0688919618314969  1.0000
  H   H16       1.0  0.1638602238578031  0.8561815351217561  0.929105454875291  1.0000
  H   H17       1.0  0.8763462257772685  0.12604088446783374  0.9285607470496303  1.0000
  H   H18       1.0  0.7551405697271746  0.07377087533892987  0.0335594882026058  1.0000
  H   H19       1.0  0.7643120935597381  0.9973429826280336  0.008307771047029209  1.0000
  H   H20       1.0  0.29705471612245304  0.9990704486765765  0.000328362150483503  1.0000
  H   H21       1.0  0.0624048669465722  0.11237913883763179  0.0840808789341878  1.0000
  H   H22       1.0  0.2139792145978276  0.9618399505518409  0.08045241966746629  1.0000
  H   H23       1.0  0.3670067664751713  0.4971222508638532  0.000512348375437502  1.0000
  H   H24       1.0  0.7005389147900162  0.502619312993147  0.00799013795392511  1.0000
  H   H25       1.0  0.6366470003883434  0.008243297556369098  0.497890214063638  1.0000
  H   H26       1.0  0.31514272776936275  0.9943392336662666  0.5097207156557386  1.0000
  H   H27       1.0  0.6622815120580582  0.09916264401299908  0.5155742975830363  1.0000
  H   H28       1.0  0.8000524417039969  0.13643094071147735  0.5507455460576836  1.0000
  H   H29       1.0  0.5723531510253181  0.02532526183345139  0.6000492562790426  1.0000
  H   H30       1.0  0.6619830276395716  0.040913192348540385  0.6555818298096339  1.0000
  H   H31       1.0  0.8089066024330264  0.06860021181544342  0.6895317331501045  1.0000
  H   H32       1.0  0.9042318077851589  0.13437111741904317  0.6041323719109711  1.0000
  H   H33       1.0  0.1211610940082224  0.17303149409200094  0.6161646327408191  1.0000
  H   H34       1.0  0.22653803729711797  0.16650249726970398  0.5735964992362951  1.0000
  H   H35       1.0  0.2541008783184536  0.03326533793397599  0.6653032246479142  1.0000
  H   H36       1.0  0.37345209565402365  0.9792893875899578  0.6384361135446212  1.0000
  H   H37       1.0  0.456379569850327  0.9614968655950162  0.5900267708975946  1.0000
  H   H38       1.0  0.33949145001277964  0.11098890821762808  0.5462874938953773  1.0000
  H   H39       1.0  0.9718527584806722  0.008974311851822797  0.39137296360981105  1.0000
  H   H40       1.0  0.0987765408628221  0.040311033792463  0.4349412908279007  1.0000
  H   H41       1.0  0.1398135032316006  0.8814506096606392  0.34991368746296553  1.0000
  H   H42       1.0  0.29498878129463435  0.8636512160132312  0.3811377832837692  1.0000
  H   H43       1.0  0.4145943053644743  0.889543236707858  0.4274007679837837  1.0000
  H   H44       1.0  0.2529461072590138  0.028078922272001695  0.4614053618695451  1.0000
  H   H45       1.0  0.650654090370189  0.9866677171715634  0.3124638693075923  1.0000
  H   H46       1.0  0.5328286082179545  0.0082067341166407  0.3491070638647216  1.0000
  H   H47       1.0  0.7926826962250714  0.8851951903603278  0.3866277396723489  1.0000
  H   H48       1.0  0.7299295799029011  0.8682979067781955  0.4374421633355964  1.0000
  H   H49       1.0  0.6281209534569712  0.9016145083004402  0.478325223712872  1.0000
  H   H50       1.0  0.48536104590837675  0.008281300292843198  0.4068479159868302  1.0000
  H   H51       1.0  0.15718098197665137  0.7541693490456608  0.047087277211666397  1.0000
  H   H52       1.0  0.233883215439171  0.6603329546808467  0.0531929400073352  1.0000
  H   H53       1.0  0.3069313283009477  0.7891285931758457  0.9673154559406073  1.0000
  H   H54       1.0  0.41915259126470517  0.7187154335533065  0.9496624142631089  1.0000
  H   H55       1.0  0.5022486632581503  0.6285783161879903  0.9580415950418909  1.0000
  H   H56       1.0  0.348651224115315  0.5916017238327527  0.0367168435009901  1.0000
  H   H57       1.0  0.9046701673733678  0.2414772094293055  0.06283927637789327  1.0000
  H   H58       1.0  0.8288192007338465  0.3353662229932579  0.0699436639990552  1.0000
  H   H59       1.0  0.7740766719079915  0.2183913406446932  0.9617447831356359  1.0000
  H   H60       1.0  0.6524818770601966  0.2851642712168853  0.9414042415966009  1.0000
  H   H61       1.0  0.5632745917342845  0.3724214962416637  0.9509593549803906  1.0000
  H   H62       1.0  0.7178006501123092  0.4066654060100347  0.047623974718454996  1.0000
  H   H63       1.0  0.5339980527737609  0.3683065795318042  0.04772972401028139  1.0000
  H   H64       1.0  0.45562558933270475  0.2778379574494281  0.054305184967191195  1.0000
  H   H65       1.0  0.33445518294460186  0.40435005808419766  0.9651050859544269  1.0000
  H   H66       1.0  0.2075430076586855  0.3359110529501094  0.9469510620420678  1.0000
  H   H67       1.0  0.1296921188548694  0.2440551560502015  0.9534324997214654  1.0000
  H   H68       1.0  0.3296117126344882  0.2085736787088308  0.03557751182385971  1.0000
  H   H69       1.0  0.5604536100867534  0.6377644217293079  0.053277190507650084  1.0000
  H   H70       1.0  0.6456025280919563  0.7289662875669265  0.064752750208612  1.0000
  H   H71       1.0  0.7124075536392525  0.5900705937414371  0.9728921593820344  1.0000
  H   H72       1.0  0.8264004112484358  0.6569813588831508  0.9580152898829651  1.0000
  H   H73       1.0  0.9038116654763186  0.7512861108146395  0.9667339583376772  1.0000
  H   H74       1.0  0.7609088264651402  0.7963094654235974  0.05013779823843829  1.0000
  H   H75       1.0  0.22923215227956456  0.9761599128828351  0.8659375157936681  1.0000
  H   H76       1.0  0.2340764499228527  0.9866520906215255  0.8056500326206971  1.0000
  H   H77       1.0  0.029706553118842297  0.10773122387931267  0.8680801608613536  1.0000
  H   H78       1.0  0.9693963963519535  0.1520622625181076  0.8161653788189085  1.0000
  H   H79       1.0  0.9605230694109679  0.15492069821532783  0.7545692761820602  1.0000
  H   H80       1.0  0.174473924570556  0.03242242204598259  0.752924168556973  1.0000
  H   H81       1.0  0.0272213767945217  0.8622926022966552  0.2610706001397105  1.0000
  H   H82       1.0  0.0495501192312631  0.8578945476023632  0.20125440097881145  1.0000
  H   H83       1.0  0.7893080627565895  0.9637949718203341  0.2403808275360717  1.0000
  H   H84       1.0  0.7481951425704878  0.9984505954601769  0.18349104606352276  1.0000
  H   H85       1.0  0.7870512914590577  0.007934336066142597  0.1261812105662017  1.0000
  H   H86       1.0  0.008131583669424498  0.8920975876540636  0.1445951667523602  1.0000
  C   C1        1.0  0.8815115745749011  0.8370177260634076  0.011574250747855796  1.0000
  C   C2        1.0  0.1801404476588786  0.832786118387773  0.004145065654078904  1.0000
  C   C3        1.0  0.9277102575070799  0.9601694980694688  0.0990585249715963  1.0000
  C   C4        1.0  0.8912660833647974  0.1691893244556439  0.008014592248777298  1.0000
  C   C5        1.0  0.17826578594682016  0.16616809436458618  0.9981278174384581  1.0000
  C   C6        1.0  0.12158583729330989  0.035310356652296086  0.906135320906074  1.0000
  C   C7        1.0  0.48431313464307374  0.5512982908783924  0.002733152381232202  1.0000
  C   C8        1.0  0.5799346918715996  0.5530496683454728  0.006517394135279601  1.0000
  C   C9        1.0  0.6269497013732772  0.5014490995386892  0.006227749353485004  1.0000
  C   C10       1.0  0.5828991766726189  0.44842588115810866  0.003811929954316904  1.0000
  C   C11       1.0  0.48796129526145643  0.44676531024460087  0.003276427549366196  1.0000
  C   C12       1.0  0.44057101801105597  0.4983125651616901  0.002048221933406994  1.0000
  C   C13       1.0  0.8985897710171784  0.9192422913185391  0.28993396204636906  1.0000
  C   C14       1.0  0.8150914353995801  0.9324131510802756  0.3324044976563484  1.0000
  C   C15       1.0  0.9690881791600675  0.9299854535371563  0.3429987714291513  1.0000
  C   C16       1.0  0.055309730097142996  0.09582774191176917  0.7137742853847016  1.0000
  C   C17       1.0  0.10902657522017022  0.1035527308357445  0.6647639350818437  1.0000
  C   C18       1.0  0.9577028628349066  0.10803755381876808  0.666791847217901  1.0000
  C   C19       1.0  0.5065024190026789  0.9816432223007323  0.4734731469959499  1.0000
  C   C20       1.0  0.4131064716090762  0.9801960889520485  0.47578409216325207  1.0000
  C   C21       1.0  0.386225697430099  0.9987502020038975  0.5066379858693892  1.0000
  C   C22       1.0  0.44545567151998705  0.021034601119829695  0.534181076685094  1.0000
  C   C23       1.0  0.5377504823828474  0.02779581555817859  0.53064240734696  1.0000
  C   C24       1.0  0.5650311166024053  0.006024376923328099  0.5005443968555239  1.0000
  C   C25       1.0  0.608960105289853  0.05685349094472511  0.5549764550109443  1.0000
  C   C26       1.0  0.6738592824208639  0.09066945983588676  0.5418536877703417  1.0000
  C   C27       1.0  0.7502431809834036  0.11190107320293657  0.5614343520114956  1.0000
  C   C28       1.0  0.7668859753303606  0.10107455325584168  0.5956615410164757  1.0000
  C   C29       1.0  0.6986776275714277  0.0716362804616324  0.6099200433558778  1.0000
  C   C30       1.0  0.6208250350581749  0.05007489505724289  0.5889816372520684  1.0000
  C   C31       1.0  0.7145551118894886  0.06206241588924398  0.6444286268348802  1.0000
  C   C32       1.0  0.7955874050099822  0.07728324300992279  0.6633139138793992  1.0000
  C   C33       1.0  0.865802475241253  0.10230710965335281  0.648421596371918  1.0000
  C   C34       1.0  0.8499873246550891  0.11529559521081012  0.6153428798389626  1.0000
  C   C35       1.0  0.1816010122064355  0.10315715831485757  0.6432110346364652  1.0000
  C   C36       1.0  0.1744218713228847  0.14124049922225615  0.6171788402447047  1.0000
  C   C37       1.0  0.23214947958847176  0.13714012943876944  0.5935034050053715  1.0000
  C   C38       1.0  0.2968118436718896  0.0927786817177463  0.5934184365989594  1.0000
  C   C39       1.0  0.3057194098667182  0.05494864453009998  0.6200060516027007  1.0000
  C   C40       1.0  0.2487666418804935  0.0623640090202002  0.6452642901017923  1.0000
  C   C41       1.0  0.3666899409590059  0.0086514859104767  0.6185122593918493  1.0000
  C   C42       1.0  0.41358758302610704  0.9990147715806327  0.59165355281948  1.0000
  C   C43       1.0  0.4044527395062474  0.03605256473758089  0.5650802266821414  1.0000
  C   C44       1.0  0.34793206152219364  0.08258666043080608  0.5666861239804817  1.0000
  C   C45       1.0  0.0491622939645993  0.943716399788812  0.3679020397023365  1.0000
  C   C46       1.0  0.0374147189933538  0.9883743667896209  0.39246767770028856  1.0000
  C   C47       1.0  0.10724668909301019  0.0051696233203771  0.41662048168728205  1.0000
  C   C48       1.0  0.1909420201937522  0.9761876057770135  0.4187008703591032  1.0000
  C   C49       1.0  0.2026500023342663  0.9299444847624442  0.3946894252879715  1.0000
  C   C50       1.0  0.13105460816790068  0.9157402546679093  0.3687281145960809  1.0000
  C   C51       1.0  0.2855293819436611  0.8997453370319446  0.3987221243593524  1.0000
  C   C52       1.0  0.3528868772487002  0.9144669296019358  0.42458998009317367  1.0000
  C   C53       1.0  0.3427869559366101  0.9615429505936817  0.4478889849281343  1.0000
  C   C54       1.0  0.26221020584639376  0.9913624411932601  0.4442395714785049  1.0000
  C   C55       1.0  0.7308536138785798  0.9355568692972227  0.3479257994516374  1.0000
  C   C56       1.0  0.6544918928676394  0.968481422992333  0.3366267525948458  1.0000
  C   C57       1.0  0.5889725131035987  0.9803281095094007  0.35709816357226026  1.0000
  C   C58       1.0  0.5951900480577236  0.9591316614023737  0.38938291324107144  1.0000
  C   C59       1.0  0.6673490579729419  0.9206934821009225  0.39893623870847955  1.0000
  C   C60       1.0  0.7340311225403863  0.910428465182562  0.37795927640555493  1.0000
  C   C61       1.0  0.6759437920968594  0.8984430253941935  0.43079096109661197  1.0000
  C   C62       1.0  0.6199841776221574  0.9170218844960232  0.45336670456005373  1.0000
  C   C63       1.0  0.5517320941061357  0.9580851170775518  0.4451774066565831  1.0000
  C   C64       1.0  0.5379523146117079  0.9770844146067857  0.4132975346712158  1.0000
  C   C65       1.0  0.2273958950357624  0.7768702003332634  0.006582471831073598  1.0000
  C   C66       1.0  0.2069533328649982  0.740079581478774  0.03106073785858139  1.0000
  C   C67       1.0  0.24967060888614867  0.6884444313275893  0.034339938913518595  1.0000
  C   C68       1.0  0.3158255831531136  0.6709662302110359  0.013726440409655496  1.0000
  C   C69       1.0  0.33669619965547776  0.7080856130881372  0.988999266728392  1.0000
  C   C70       1.0  0.2908603327909915  0.7606196906528166  0.9859109515210136  1.0000
  C   C71       1.0  0.40391890368643857  0.6910321372386999  0.9687955748450036  1.0000
  C   C72       1.0  0.4500957778038098  0.6409160256440032  0.9734332598833644  1.0000
  C   C73       1.0  0.4311203213299278  0.6041992404181754  0.9982608906708562  1.0000
  C   C74       1.0  0.3635980146372049  0.6191200780925641  0.017448591786653405  1.0000
  C   C75       1.0  0.8449964110459831  0.2253638386867678  0.011466824080095308  1.0000
  C   C76       1.0  0.8590190295315807  0.2579398879793615  0.0424953521681317  1.0000
  C   C77       1.0  0.8160771589319679  0.30938702197585133  0.04642889562718719  1.0000
  C   C78       1.0  0.7525423417218561  0.3288601497818461  0.02045228622534979  1.0000
  C   C79       1.0  0.7349388742011485  0.29437063683135983  0.9896629587380589  1.0000
  C   C80       1.0  0.785160591404825  0.24382144766013872  0.9854846053317557  1.0000
  C   C81       1.0  0.6663422453100409  0.3115387398701088  0.9647356975045794  1.0000
  C   C82       1.0  0.6169809037318501  0.36003215869552446  0.9699760180649476  1.0000
  C   C83       1.0  0.6358557248310744  0.3954624178018164  0.9999603254002664  1.0000
  C   C84       1.0  0.7036368324013722  0.38008367544344407  0.024348276401269707  1.0000
  C   C85       1.0  0.4395358098835516  0.3923351537119117  0.005620497722709704  1.0000
  C   C86       1.0  0.4731547081739436  0.355613696729108  0.0309400118982666  1.0000
  C   C87       1.0  0.4294799687771799  0.3053261464674861  0.034641715630819206  1.0000
  C   C88       1.0  0.34955008756683276  0.28833394449299726  0.01320835451336681  1.0000
  C   C89       1.0  0.3144581155609742  0.32509493510487175  0.9877323479069275  1.0000
  C   C90       1.0  0.36089147729470733  0.37681869060091333  0.984727042372917  1.0000
  C   C91       1.0  0.23435607100742567  0.3080305156720015  0.9663184609078781  1.0000
  C   C92       1.0  0.19102318008216906  0.2574079008384587  0.9697659104391291  1.0000
  C   C93       1.0  0.22567507935644926  0.22108085644400421  0.9949907075595092  1.0000
  C   C94       1.0  0.3035373465197182  0.23667256002640605  0.016246697036628198  1.0000
  C   C95       1.0  0.6310629981738245  0.6077420529639851  0.012139338562377604  1.0000
  C   C96       1.0  0.6126144916907919  0.6479919632312487  0.03816385747983732  1.0000
  C   C97       1.0  0.65997795240785  0.6987266182539926  0.044538807027173305  1.0000
  C   C98       1.0  0.7274707268293383  0.7129678739801123  0.024879081482190212  1.0000
  C   C99       1.0  0.7464558328761299  0.6727633790972688  0.9985115728148343  1.0000
  C   C100      1.0  0.6979973130985258  0.6202914589601533  0.9931349270975574  1.0000
  C   C101      1.0  0.8118442549987389  0.6874851630099315  0.9780798870866005  1.0000
  C   C102      1.0  0.8550944081899061  0.739797988415681  0.9830253493004975  1.0000
  C   C103      1.0  0.8367686498175358  0.7793716531052086  0.009246186162705807  1.0000
  C   C104      1.0  0.7750820901608436  0.7658172256256818  0.030004764393595486  1.0000
  C   C105      1.0  0.12888978748535607  0.04199054396611498  0.8703494342851241  1.0000
  C   C106      1.0  0.1865697312816081  0.007153635888599301  0.8526075855791432  1.0000
  C   C107      1.0  0.18913308087011424  0.013100152360685494  0.8192148352032689  1.0000
  C   C108      1.0  0.13233414338536417  0.05280167367580189  0.8016381385115847  1.0000
  C   C109      1.0  0.0733018127506142  0.08749376319320849  0.8196378398054236  1.0000
  C   C110      1.0  0.07431599742995589  0.08185683274959389  0.8540707639102578  1.0000
  C   C111      1.0  0.0132375055707783  0.1254765665166886  0.8022014785835054  1.0000
  C   C112      1.0  0.008780275674133997  0.12752586455356857  0.768336620056111  1.0000
  C   C113      1.0  0.0674541455925493  0.09363297898808298  0.7503823583296023  1.0000
  C   C114      1.0  0.1296458656859016  0.05810664417724348  0.7669412296456883  1.0000
  C   C115      1.0  0.9064377460442188  0.9134389062513008  0.2540026183186939  1.0000
  C   C116      1.0  0.9805710311454661  0.8832829953344116  0.24287390921232088  1.0000
  C   C117      1.0  0.9931226586788284  0.8814319463561945  0.2099110972580007  1.0000
  C   C118      1.0  0.9352895600878525  0.9119568772084817  0.18671252980761466  1.0000
  C   C119      1.0  0.8602913364811754  0.9425060185626818  0.19785006314722856  1.0000
  C   C120      1.0  0.8460577439160558  0.9409492516075345  0.2315401122670835  1.0000
  C   C121      1.0  0.8056065749809987  0.9756573819413319  0.175056392065926  1.0000
  C   C122      1.0  0.8263461901011907  0.9807527440878588  0.143351018325454  1.0000
  C   C123      1.0  0.900494303974554  0.9505237440999107  0.13235440651472888  1.0000
  C   C124      1.0  0.951915768685545  0.9155345315185527  0.15343644215833047  1.0000
  N   N1        1.0  0.8159495200654233  0.928736171833549  0.29931261456680847  1.0000
  N   N2        1.0  0.8899267263323978  0.9352616805824849  0.3549619965969413  1.0000
  N   N3        1.0  0.9769106058416952  0.9171344857772747  0.3107740280304795  1.0000
  N   N4        1.0  0.127156199294653  0.0909996616092172  0.6969171296515312  1.0000
  N   N5        1.0  0.026437372293358404  0.11456991656875459  0.649036747365848  1.0000
  N   N6        1.0  0.969360603914822  0.10244156865196169  0.6997559579950375  1.0000
  O   O1        1.0  0.15158694190470362  0.9114895117416919  0.08112488505959449  1.0000
  O   O2        1.0  0.9519184814176355  0.8464618023890009  0.03259960197619449  1.0000
  O   O3        1.0  0.9737680513916445  0.921552456271314  0.08560557549706259  1.0000
  O   O4        1.0  0.1946840289828984  0.8648632049610326  0.9808407342036741  1.0000
  O   O5        1.0  0.9056043203991138  0.0081479000609761  0.0873681747495851  1.0000
  O   O6        1.0  0.1271933246738115  0.8447987295524155  0.025478081158937  1.0000
  O   O7        1.0  0.8460803012716694  0.8709407301563556  0.9905105421759399  1.0000
  O   O8        1.0  0.9411366352515388  0.9668996042981418  0.021364987452258802  1.0000
  O   O9        1.0  0.0173483471679177  0.8993574015423247  0.9800585462508803  1.0000
  O   O10       1.0  0.0659935446895048  0.0102884412016664  0.06488383972044427  1.0000
  O   O11       1.0  0.13605375182250157  0.9646031482961558  0.017803698348927793  1.0000
  O   O12       1.0  0.27535565065501544  0.9642560676646992  0.9746744850363595  1.0000
  O   O13       1.0  0.7573287220608407  0.9680761231187274  0.9867580896912073  1.0000
  O   O14       1.0  0.0076790746042477  0.9941154257674893  0.9571034595640314  1.0000
  O   O15       1.0  0.8880769674942925  0.04665726588001457  0.9850114566741013  1.0000
  O   O16       1.0  0.0383983292487571  0.07523362559582837  0.017879112809737294  1.0000
  O   O17       1.0  0.15501915228002616  0.04358114664326959  0.9808202131831931  1.0000
  O   O18       1.0  0.7891855772028933  0.038764877809185784  0.03626617588734151  1.0000
  O   O19       1.0  0.884154299162411  0.1360067706316812  0.031172417238778397  1.0000
  O   O20       1.0  0.9315073959335932  0.15845904225836446  0.9826010447405835  1.0000
  O   O21       1.0  0.24650206736219357  0.0003284201120763  0.0774713839132914  1.0000
  O   O22       1.0  0.1085737557183037  0.15401956768182146  0.9770565838591665  1.0000
  O   O23       1.0  0.9916034841163179  0.11008611241246771  0.08489509447926478  1.0000
  O   O24       1.0  0.15778677488916767  0.10777004886785589  0.07856770206628029  1.0000
  O   O25       1.0  0.3063231280995637  0.03136564621036089  0.0238532947286814  1.0000
  O   O26       1.0  0.21107361839342073  0.13458967766760568  0.02136893233847559  1.0000
  O   O27       1.0  0.9153562134067812  0.09349787947187588  0.925634608348787  1.0000
  O   O28       1.0  0.1175457438676517  0.8843085822679907  0.9227690463580058  1.0000
  O   O29       1.0  0.088312762763664  0.07655958207088527  0.9221262834224858  1.0000
  O   O30       1.0  0.1482083779109686  0.987891109876031  0.9182350898148286  1.0000
  O   O31       1.0  0.8605609604608587  0.8980632078653769  0.9290923550554241  1.0000
  O   O32       1.0  0.8229403511764417  0.0015717394217631  0.9265949204402657  1.0000
