data_image0
_chemical_formula_structural       U3H14C16O26
_chemical_formula_sum              "U3 H14 C16 O26"
_cell_length_a       8.667261638855027
_cell_length_b       8.41038552349181
_cell_length_c       10.541967164228117
_cell_angle_alpha    68.08007842621889
_cell_angle_beta     79.60809490972646
_cell_angle_gamma    91.4940171871644

_space_group_name_H-M_alt    "P 1"
_space_group_IT_number       1

loop_
  _space_group_symop_operation_xyz
  'x, y, z'

loop_
  _atom_site_type_symbol
  _atom_site_label
  _atom_site_symmetry_multiplicity
  _atom_site_fract_x
  _atom_site_fract_y
  _atom_site_fract_z
  _atom_site_occupancy
  U   U1        1.0  0.4999849576418073  0.9999873586363747  5.914468054952637e-06  1.0000
  U   U2        1.0  0.7709178047416216  0.68529073383894  0.6089742339238597  1.0000
  U   U3        1.0  0.22909529397762185  0.31474021384991596  0.3910287603055522  1.0000
  H   H1        1.0  0.9318534903377512  0.17058668260844462  0.25853829948989926  1.0000
  H   H2        1.0  0.06816081427579232  0.8294129504585114  0.7414478322453775  1.0000
  H   H3        1.0  0.5099369900727239  0.8949611429930471  0.7040060634440904  1.0000
  H   H4        1.0  0.4900523799868992  0.10504059142850507  0.29600295468844  1.0000
  H   H5        1.0  0.43417338263753896  0.7809865809269495  0.6342632143502483  1.0000
  H   H6        1.0  0.5658397200043055  0.21902547750666912  0.365730932324638  1.0000
  H   H7        1.0  0.5879995673231518  0.4707623826333388  0.13943223366747057  1.0000
  H   H8        1.0  0.41202047228048844  0.5292311870290545  0.8605652437893027  1.0000
  H   H9        1.0  0.6301711859010907  0.586549546115684  0.3605851177062718  1.0000
  H   H10       1.0  0.3698217217744073  0.41345129197028996  0.6394227019001021  1.0000
  H   H11       1.0  0.909658634229757  0.8074956290731092  0.13077323820579786  1.0000
  H   H12       1.0  0.0903413382967386  0.19250465238167175  0.869233731022014  1.0000
  H   H13       1.0  0.9254239713491117  0.5887385860167454  0.04063294848788245  1.0000
  H   H14       1.0  0.07457730975374939  0.41127219285866795  0.9593660976612667  1.0000
  C   C1        1.0  0.6676458772239329  0.5908881975730507  0.09505124485561818  1.0000
  C   C2        1.0  0.3323682945317898  0.40911742974384413  0.9049502749425072  1.0000
  C   C3        1.0  0.6806462623210621  0.7011485480635783  0.2663217744655739  1.0000
  C   C4        1.0  0.319349075732994  0.2988463982754935  0.7336759923057841  1.0000
  C   C5        1.0  0.8527179154583492  0.6820166495290678  0.20947323159455783  1.0000
  C   C6        1.0  0.14727853061754811  0.31797951437028615  0.7905316199747574  1.0000
  C   C7        1.0  0.8324127498114108  0.558371493041264  0.1336619201631635  1.0000
  C   C8        1.0  0.16759911456583146  0.4416327492451941  0.8663346314069356  1.0000
  C   C9        1.0  0.672096854920973  0.6735032308425843  0.9386617807984123  1.0000
  C   C10       1.0  0.3279043060583789  0.32650097268967215  0.06134579820712819  1.0000
  C   C11       1.0  0.6476389963887001  0.8589063823116944  0.29909660331163224  1.0000
  C   C12       1.0  0.3523621775864783  0.14108399234378768  0.7009035306504926  1.0000
  C   C13       1.0  0.9584689850796622  0.6201276861268711  0.3161275600297343  1.0000
  C   C14       1.0  0.041515718580726  0.37987619914988346  0.6838786651784616  1.0000
  C   C15       1.0  0.8304566806514444  0.3732397811695165  0.23377294295923431  1.0000
  C   C16       1.0  0.16957432231260586  0.6267695429882139  0.7661957073497021  1.0000
  O   O1        1.0  0.3148442587822373  0.8667867021301846  0.06073071839465172  1.0000
  O   O2        1.0  0.6851544931030915  0.13321840250170416  0.9392826404245014  1.0000
  O   O3        1.0  0.8962426684271421  0.8553413705557913  0.6162029750102533  1.0000
  O   O4        1.0  0.10375149984352561  0.14465725589536055  0.3837958073316301  1.0000
  O   O5        1.0  0.6391135980412413  0.5204342574302315  0.6022358305546688  1.0000
  O   O6        1.0  0.3608699579048108  0.4795645394602771  0.39776536769173987  1.0000
  O   O7        1.0  0.6395663515534622  0.828527978726349  0.8922529855569434  1.0000
  O   O8        1.0  0.3604111702705096  0.1714547764342598  0.107755544842604  1.0000
  O   O9        1.0  0.7052554749947647  0.5837961946045809  0.8662801731787299  1.0000
  O   O10       1.0  0.29476329520198874  0.41619326703050774  0.13372434919446616  1.0000
  O   O11       1.0  0.5619689546381892  0.9627365021541505  0.227391796349302  1.0000
  O   O12       1.0  0.4380168425586817  0.03724084995441499  0.7726104509170995  1.0000
  O   O13       1.0  0.7011295805208492  0.8811625269326698  0.39548049341789954  1.0000
  O   O14       1.0  0.298876480908099  0.11883376393173957  0.6045049220814391  1.0000
  O   O15       1.0  0.9438478740051935  0.6712486951018375  0.4160181633443401  1.0000
  O   O16       1.0  0.05614397441418361  0.32875985662828094  0.5839819161390024  1.0000
  O   O17       1.0  0.0595848548630542  0.5225352697270652  0.2942054980195437  1.0000
  O   O18       1.0  0.9404044869308663  0.47745632069383953  0.7058016719275455  1.0000
  O   O19       1.0  0.7496383552786625  0.31539422450985904  0.3530090687470063  1.0000
  O   O20       1.0  0.2503532560317865  0.684586065129757  0.6470009984055096  1.0000
  O   O21       1.0  0.9216144276711021  0.27805137549643894  0.18029237297231754  1.0000
  O   O22       1.0  0.07840466032710938  0.7219677934626602  0.8196950968745113  1.0000
  O   O23       1.0  0.6028605733010224  0.7091908784427902  0.15503203909913305  1.0000
  O   O24       1.0  0.3971394202485  0.2908056716483997  0.8449712469442261  1.0000
  O   O25       1.0  0.5311949191084082  0.8053145825463446  0.6636949704858209  1.0000
  O   O26       1.0  0.46878873881469474  0.19468066893040967  0.33629488988198375  1.0000
