data_image0
_chemical_formula_structural       Cd2P2H20C12N2O12
_chemical_formula_sum              "Cd2 P2 H20 C12 N2 O12"
_cell_length_a       6.83844349583602
_cell_length_b       7.572725382249695
_cell_length_c       10.097151775245626
_cell_angle_alpha    87.78003153029972
_cell_angle_beta     78.0567372281981
_cell_angle_gamma    70.04635128071178

_space_group_name_H-M_alt    "P 1"
_space_group_IT_number       1

loop_
  _space_group_symop_operation_xyz
  'x, y, z'

loop_
  _atom_site_type_symbol
  _atom_site_label
  _atom_site_symmetry_multiplicity
  _atom_site_fract_x
  _atom_site_fract_y
  _atom_site_fract_z
  _atom_site_occupancy
  Cd  Cd1       1.0  0.2602553094732373  0.1902768998790094  0.027524628168222882  1.0000
  Cd  Cd2       1.0  0.7397462318035295  0.8097251000800653  0.9724742555609323  1.0000
  P   P1        1.0  0.7268883708271545  0.22411064949510268  0.11516963176526218  1.0000
  P   P2        1.0  0.2731111277829682  0.775892751462152  0.8848304860251163  1.0000
  H   H1        1.0  0.5736756974399809  0.2876540442923741  0.4683279949812018  1.0000
  H   H2        1.0  0.42632348442742096  0.7123423117613826  0.5316753041815543  1.0000
  H   H3        1.0  0.6869171360899599  0.42109251960805955  0.6490810947981416  1.0000
  H   H4        1.0  0.3130855840013282  0.5789024330638527  0.35092076762839497  1.0000
  H   H5        1.0  0.07825073339850522  0.35347468500805956  0.6340427239988385  1.0000
  H   H6        1.0  0.9217539218229903  0.646523095499454  0.365955837754214  1.0000
  H   H7        1.0  0.33515279101607126  0.1674277762330051  0.42680878741862216  1.0000
  H   H8        1.0  0.6648488807378496  0.8325700161166197  0.5731891880652427  1.0000
  H   H9        1.0  0.7006382992588129  0.014344541680962705  0.293455377040992  1.0000
  H   H10       1.0  0.299355355246405  0.9856546682762755  0.7065436515849155  1.0000
  H   H11       1.0  0.9649985540072021  0.9476415990781818  0.19700574654159203  1.0000
  H   H12       1.0  0.035000959896727586  0.052361816028629014  0.8029923880104162  1.0000
  H   H13       1.0  0.328132308438775  0.45046424611202707  0.1621013988819158  1.0000
  H   H14       1.0  0.671863659594365  0.5495405653018467  0.8378991640255008  1.0000
  H   H15       1.0  0.14237582268982152  0.57263401044181  0.08791205579986887  1.0000
  H   H16       1.0  0.8576236759203014  0.42736939051544465  0.9120880619905094  1.0000
  H   H17       1.0  0.39069770604910287  0.39157571223064747  0.8065591931955678  1.0000
  H   H18       1.0  0.6093038428745743  0.608426294803202  0.1934386989143988  1.0000
  H   H19       1.0  0.5162320182740744  0.1710260219395181  0.776026895863609  1.0000
  H   H20       1.0  0.4837695230026852  0.8289759780195496  0.22397198786554637  1.0000
  C   C1        1.0  0.8883431530823814  0.15559666297709637  0.35428621841739266  1.0000
  C   C2        1.0  0.11165496515383935  0.8444025186048164  0.6457151770410618  1.0000
  C   C3        1.0  0.7413749210613859  0.2631077914950026  0.4639459593427375  1.0000
  C   C4        1.0  0.25862468508516656  0.7368913806284639  0.5360562250599017  1.0000
  C   C5        1.0  0.8044587594270637  0.33654411639230375  0.5650159694910499  1.0000
  C   C6        1.0  0.19554341355482305  0.6634522348941233  0.43498692432170566  1.0000
  C   C7        1.0  0.021325271764347134  0.30102805045296316  0.5559683222625579  1.0000
  C   C8        1.0  0.9786769394520716  0.6989683362073651  0.44402961345426917  1.0000
  C   C9        1.0  0.16444017180342738  0.19857288978727894  0.4454115091665613  1.0000
  C   C10       1.0  0.8355594496369392  0.8014262964857438  0.5545886919977078  1.0000
  C   C11       1.0  0.829438696244587  0.0669190300925067  0.24760866802963474  1.0000
  C   C12       1.0  0.17055792643439094  0.9330801538730713  0.7523929301038236  1.0000
  N   N1        1.0  0.09934009094570224  0.12934175839830434  0.3462630954618362  1.0000
  N   N2        1.0  0.9006610336988173  0.8706574325658353  0.6537359114082478  1.0000
  O   O1        1.0  0.9174752077051239  0.2527477334897412  0.01660910513095362  1.0000
  O   O2        1.0  0.08252415278093378  0.747259868002182  0.9833929125239038  1.0000
  O   O3        1.0  0.6164301619083047  0.11792988006383352  0.045688550099647805  1.0000
  O   O4        1.0  0.38357030809036974  0.8820749383486091  0.9543094215443944  1.0000
  O   O5        1.0  0.5671766052382665  0.4083596154220288  0.18510719322905084  1.0000
  O   O6        1.0  0.43282290101876003  0.5916437926100074  0.8148919329421459  1.0000
  O   O7        1.0  0.24336690086520457  0.034203298265538314  0.2414396604226141  1.0000
  O   O8        1.0  0.7566327358689763  0.9657959021570479  0.7585585575032852  1.0000
  O   O9        1.0  0.18227805511307343  0.46266375327777354  0.14791313899708308  1.0000
  O   O10       1.0  0.8177199555867103  0.5373396571379204  0.8520861898491104  1.0000
  O   O11       1.0  0.3719043110570084  0.26556191671233625  0.8026230416202648  1.0000
  O   O12       1.0  0.6280966984041639  0.7344414960108098  0.1973748902567465  1.0000
