data_image0
_chemical_formula_structural       Cu4H24C36N12
_chemical_formula_sum              "Cu4 H24 C36 N12"
_cell_length_a       7.862791094437979
_cell_length_b       7.897766446174645
_cell_length_c       15.906611323065045
_cell_angle_alpha    85.00750184024942
_cell_angle_beta     79.87180089674561
_cell_angle_gamma    60.09350469951395

_space_group_name_H-M_alt    "P 1"
_space_group_IT_number       1

loop_
  _space_group_symop_operation_xyz
  'x, y, z'

loop_
  _atom_site_type_symbol
  _atom_site_label
  _atom_site_symmetry_multiplicity
  _atom_site_fract_x
  _atom_site_fract_y
  _atom_site_fract_z
  _atom_site_occupancy
  Cu  Cu1       1.0  0.9295274596297387  0.8194295154138019  0.8299736401550248  1.0000
  Cu  Cu2       1.0  0.25068803165705567  0.8194739861238389  0.670081458566564  1.0000
  Cu  Cu3       1.0  0.07048614490068413  0.18055246250228413  0.17002326856781744  1.0000
  Cu  Cu4       1.0  0.7492988553798837  0.18053283259299494  0.3299177352687792  1.0000
  H   H1        1.0  0.38506414346381485  0.3547155385347125  0.4968622020747446  1.0000
  H   H2        1.0  0.26010804808427673  0.3548047477020616  0.003193953101757109  1.0000
  H   H3        1.0  0.6149191178342829  0.6453000493789388  0.5031451153592174  1.0000
  H   H4        1.0  0.7399131021779367  0.6451772279576318  0.9968055602717529  1.0000
  H   H5        1.0  0.6633751104435953  0.7938944685883628  0.6198775839958302  1.0000
  H   H6        1.0  0.543013622379199  0.7937970309669707  0.8800494463150701  1.0000
  H   H7        1.0  0.3366117669471434  0.20612695741924375  0.3801280083001331  1.0000
  H   H8        1.0  0.4570050914989208  0.20620247051417104  0.11995150334669802  1.0000
  H   H9        1.0  0.1593690386816674  0.656904246489411  0.9664625586816558  1.0000
  H   H10       1.0  0.18375128483738445  0.656976880860178  0.5334841309793745  1.0000
  H   H11       1.0  0.8406309199073687  0.34309234068506095  0.03353291916644711  1.0000
  H   H12       1.0  0.8162353344955804  0.34302555595407114  0.46651335137881483  1.0000
  H   H13       1.0  0.8397390704317045  0.2665881967181036  0.8226880729881432  1.0000
  H   H14       1.0  0.8934147919854852  0.2668644695143599  0.6773812314501839  1.0000
  H   H15       1.0  0.1602565176813042  0.7334244579900399  0.17731028962091952  1.0000
  H   H16       1.0  0.10657354146831456  0.733132124410588  0.3226150786084788  1.0000
  H   H17       1.0  0.6815802307782803  0.42361425716023143  0.9104889557487257  1.0000
  H   H18       1.0  0.89445900155237  0.4236331030718503  0.5896076115571134  1.0000
  H   H19       1.0  0.3184185403463429  0.5763867144620107  0.08951085361054112  1.0000
  H   H20       1.0  0.10552831478491224  0.5763649546800309  0.4103931219884203  1.0000
  H   H21       1.0  0.6351195974580078  0.24308505923465876  0.8759283020251944  1.0000
  H   H22       1.0  0.12170039936293607  0.24302314981402162  0.6240912994668762  1.0000
  H   H23       1.0  0.3648840180953455  0.7569173655849825  0.1240648187933644  1.0000
  H   H24       1.0  0.8782895003377289  0.7569749064377476  0.37590924914297125  1.0000
  C   C1        1.0  0.4335631653151279  0.1989333053947888  0.4993659562114132  1.0000
  C   C2        1.0  0.3674652970239406  0.1989907030670182  0.0006639378205690974  1.0000
  C   C3        1.0  0.5664373599073399  0.8010866524268393  0.500638711160086  1.0000
  C   C4        1.0  0.632546048331484  0.801002961223972  0.9993371187080982  1.0000
  C   C5        1.0  0.5918862717905424  0.8851713390399996  0.5672958376848456  1.0000
  C   C6        1.0  0.5231381039103551  0.8851160474413222  0.9326481131499876  1.0000
  C   C7        1.0  0.4080988009844758  0.1148457085077723  0.4327119269510575  1.0000
  C   C8        1.0  0.47687483295088373  0.11487177530671741  0.0673536667537888  1.0000
  C   C9        1.0  0.5519674460556273  0.17636035273586256  0.6384594303331923  1.0000
  C   C10       1.0  0.2718355874649632  0.17637107665405696  0.8615279164152342  1.0000
  C   C11       1.0  0.44803432997685605  0.8236596047845027  0.361545776462009  1.0000
  C   C12       1.0  0.7281789409020829  0.823610904551032  0.13847458686364433  1.0000
  C   C13       1.0  0.08811281190035165  0.8116475625320164  0.9818116486748637  1.0000
  C   C14       1.0  0.10027046426062443  0.811698674914922  0.5181615751743323  1.0000
  C   C15       1.0  0.9118905019385363  0.1883475620081185  0.0181830120999535  1.0000
  C   C16       1.0  0.8997239460341717  0.1883037569502264  0.48183472048527426  1.0000
  C   C17       1.0  0.6699049620163109  0.063653243069119  0.698954514575121  1.0000
  C   C18       1.0  0.2665244926148772  0.0636390633404034  0.8010580119820789  1.0000
  C   C19       1.0  0.3301049418931255  0.9363345861156489  0.3010544010712907  1.0000
  C   C20       1.0  0.7335044944517007  0.9363268470232883  0.19894465814237353  1.0000
  C   C21       1.0  0.5254505896532958  0.086918998536845  0.5683544512895724  1.0000
  C   C22       1.0  0.3877060836723201  0.08693408033201419  0.931634278258713  1.0000
  C   C23       1.0  0.47454653944764374  0.9131024223679063  0.43165166504675784  1.0000
  C   C24       1.0  0.6123111594246708  0.9130581202733196  0.0683664081525279  1.0000
  C   C25       1.0  0.46233003976261955  0.3774603604198886  0.6473670285919013  1.0000
  C   C26       1.0  0.16022780176405846  0.3774809689567534  0.8526307735311676  1.0000
  C   C27       1.0  0.5376762839549867  0.6225376901202538  0.3526380049599141  1.0000
  C   C28       1.0  0.8397652691161707  0.6225243829329372  0.14736362694595334  1.0000
  C   C29       1.0  0.8801605077371377  0.1296793747200908  0.9449638218639151  1.0000
  C   C30       1.0  0.9900111531486853  0.1297108057680063  0.5550705638081084  1.0000
  C   C31       1.0  0.11984947572978642  0.8703128250001553  0.05502983665586211  1.0000
  C   C32       1.0  0.00997438572215242  0.8702887107266691  0.4449264711020789  1.0000
  C   C33       1.0  0.7512677930025614  0.2747502786229887  0.8855348137789891  1.0000
  C   C34       1.0  0.9737714069186647  0.27481376358156956  0.6145195116772798  1.0000
  C   C35       1.0  0.24872433564330246  0.7252594550217708  0.11446012686003833  1.0000
  C   C36       1.0  0.026218656268696093  0.7251842908750703  0.3854785093664007  1.0000
  N   N1        1.0  0.9704177790052525  0.936449001857092  0.9271761874084775  1.0000
  N   N2        1.0  0.09302698066755229  0.9365159458075781  0.5728372912751356  1.0000
  N   N3        1.0  0.02958256990278578  0.0635519658736143  0.0728191062421644  1.0000
  N   N4        1.0  0.9069601175889584  0.0634879518396332  0.42716136264436244  1.0000
  N   N5        1.0  0.7749864080384438  0.9663042240550938  0.7486829621916087  1.0000
  N   N6        1.0  0.25859896791526166  0.9663735308739232  0.7513394508244816  1.0000
  N   N7        1.0  0.22501592955561014  0.0336923638631887  0.2513154901785271  1.0000
  N   N8        1.0  0.7413964460691672  0.033615762310248  0.2486635314072743  1.0000
  N   N9        1.0  0.38739457476499634  0.5483042542755785  0.6545380067198608  1.0000
  N   N10       1.0  0.06438652320905172  0.5482912304007215  0.8454282704564308  1.0000
  N   N11       1.0  0.6125969018244246  0.45171862762212805  0.34546468838464517  1.0000
  N   N12       1.0  0.93563687936696  0.45168197770977503  0.15456447556938002  1.0000
