data_image0
_chemical_formula_structural       Cd4H32C40N12O20
_chemical_formula_sum              "Cd4 H32 C40 N12 O20"
_cell_length_a       7.712664379
_cell_length_b       11.692214334932272
_cell_length_c       12.699
_cell_angle_alpha    90.0
_cell_angle_beta     90.0
_cell_angle_gamma    93.63745510282705

_space_group_name_H-M_alt    "P 1"
_space_group_IT_number       1

loop_
  _space_group_symop_operation_xyz
  'x, y, z'

loop_
  _atom_site_type_symbol
  _atom_site_label
  _atom_site_symmetry_multiplicity
  _atom_site_fract_x
  _atom_site_fract_y
  _atom_site_fract_z
  _atom_site_occupancy
  Cd  Cd1       1.0  0.39510986435526246  0.1591690905928047  0.7280321285140587  1.0000
  Cd  Cd2       1.0  0.1048903929004723  0.3408309095785924  0.22803291597763586  1.0000
  Cd  Cd3       1.0  0.6048906501562072  0.8408309097499895  0.2719670840223642  1.0000
  Cd  Cd4       1.0  0.8951101216109976  0.6591690907642089  0.7719678714859413  1.0000
  H   H1        1.0  0.3439610131396549  0.577652447008532  0.5659453500275617  1.0000
  H   H2        1.0  0.1560391122503972  0.9223484105020958  0.0659445625639847  1.0000
  H   H3        1.0  0.656038287227183  0.4223484103306987  0.43405543743601543  1.0000
  H   H4        1.0  0.8439614022610726  0.07765158984070548  0.9340554374360153  1.0000
  H   H5        1.0  0.39457325867285675  0.088759977611403  0.9528301441058318  1.0000
  H   H6        1.0  0.1054270810070435  0.41124087955643057  0.4528301441058318  1.0000
  H   H7        1.0  0.6054272558386131  0.9112400227313984  0.047169855894168215  1.0000
  H   H8        1.0  0.8945722193597943  0.5887599777828001  0.5471698558941682  1.0000
  H   H9        1.0  0.5741195908657986  0.0546000997731042  0.9081848964485388  1.0000
  H   H10       1.0  0.9258800986224571  0.4453999003983  0.4081848964485388  1.0000
  H   H11       1.0  0.42588092364566416  0.9453999005696969  0.09181510355146123  1.0000
  H   H12       1.0  0.07411911932021548  0.5546000999445013  0.5918151035514612  1.0000
  H   H13       1.0  0.7528320623963508  0.3525143419561516  0.842528545554771  1.0000
  H   H14       1.0  0.7471689236607091  0.1474856582152455  0.3425277580911867  1.0000
  H   H15       1.0  0.24716845211511895  0.6474856583866496  0.1574722419088133  1.0000
  H   H16       1.0  0.25283159085076073  0.8525143421275486  0.6574722419088133  1.0000
  H   H17       1.0  0.5442298487850862  0.9191869506590109  0.6426411528466787  1.0000
  H   H18       1.0  0.955769626413314  0.5808130498551876  0.1426411528466787  1.0000
  H   H19       1.0  0.4557706657263764  0.0808130496837904  0.3573588471533213  1.0000
  H   H20       1.0  0.044230888098155695  0.4191869504876067  0.8573588471533213  1.0000
  H   H21       1.0  0.7900895777110577  0.8493066044770572  0.5476635955587028  1.0000
  H   H22       1.0  0.7099111940561471  0.6506933960371413  0.0476635955587028  1.0000
  H   H23       1.0  0.2099109368004122  0.1506933958657442  0.4523364044412973  1.0000
  H   H24       1.0  0.2900893204553228  0.349306604305653  0.9523364044412972  1.0000
  H   H25       1.0  0.001807603426321693  0.20216203067092658  0.5281778092763219  1.0000
  H   H26       1.0  0.4981926538294132  0.2978379695004705  0.0281778092763219  1.0000
  H   H27       1.0  0.9981916145163438  0.7978379696718676  0.4718221907236781  1.0000
  H   H28       1.0  0.5018092396750261  0.7021628878387602  0.9718221907236783  1.0000
  H   H29       1.0  0.7387124929572195  0.2575822760308668  0.6186432002519879  1.0000
  H   H30       1.0  0.7612871965310362  0.2424177241405303  0.1186432002519879  1.0000
  H   H31       1.0  0.2612880215542503  0.7424177243119345  0.3813567997480121  1.0000
  H   H32       1.0  0.23871202141162937  0.7575822762022638  0.8813567997480121  1.0000
  C   C1        1.0  0.4611897495835393  0.4203378966977667  0.677336010709503  1.0000
  C   C2        1.0  0.038810590096368  0.0796629604700669  0.177336010709503  1.0000
  C   C3        1.0  0.5388108473521029  0.579662960641464  0.322663989290497  1.0000
  C   C4        1.0  0.961188710270477  0.9203378968691638  0.8226639892904971  1.0000
  C   C5        1.0  0.5582107614492954  0.5248023339525858  0.69168989684227  1.0000
  C   C6        1.0  0.9417874996044802  0.975198523558042  0.191689109378693  1.0000
  C   C7        1.0  0.44178845649337717  0.4751976663902084  0.30831010315773  1.0000
  C   C8        1.0  0.0582130149069897  0.024801476784752197  0.8083108906213071  1.0000
  C   C9        1.0  0.6698011931267018  0.39488595962000517  0.7877202929364487  1.0000
  C   C10       1.0  0.8302010070749829  0.1051131835549626  0.2877218678636098  1.0000
  C   C11       1.0  0.3302018320981972  0.6051131837263596  0.2122781321363902  1.0000
  C   C12       1.0  0.16979821086768956  0.8948868167878388  0.7122781321363905  1.0000
  C   C13       1.0  0.3151815270131948  0.38548642273765665  0.6065587841562348  1.0000
  C   C14       1.0  0.18481873024254006  0.1145135774337476  0.10655799669265063  1.0000
  C   C15       1.0  0.6848189874982751  0.6145135776051446  0.3934420033073494  1.0000
  C   C16       1.0  0.8151817842689297  0.8854864229090538  0.8934420033073495  1.0000
  C   C17       1.0  0.5418207693251631  0.6398883850038928  0.6478147885660306  1.0000
  C   C18       1.0  0.9581800024420416  0.8601116155103057  0.1478140011024465  1.0000
  C   C19       1.0  0.45817982761047904  0.3601124723353378  0.35218599889755353  1.0000
  C   C20       1.0  0.0418204296452558  0.1398875278360592  0.8521859988975536  1.0000
  C   C21       1.0  0.6464127951789036  0.9802727994406482  0.6147035199622053  1.0000
  C   C22       1.0  0.853587976588301  0.5197272010735503  0.1147035199622053  1.0000
  C   C23       1.0  0.3535876369083937  0.0197263439057167  0.3852964800377947  1.0000
  C   C24       1.0  0.1464125379231689  0.4802727992692439  0.8852964800378018  1.0000
  C   C25       1.0  0.7884457899753414  0.9409392341334595  0.5615316166627267  1.0000
  C   C26       1.0  0.7115549817918633  0.559060766380739  0.0615316166627267  1.0000
  C   C27       1.0  0.21155593868076034  0.05905990921290539  0.4384675958736892  1.0000
  C   C28       1.0  0.2884456151437718  0.4409400909584988  0.9384675958736892  1.0000
  C   C29       1.0  0.9228041509417437  0.0191007365092801  0.5281281990707924  1.0000
  C   C30       1.0  0.5771969175394887  0.4809001206585535  0.028128199070792406  1.0000
  C   C31       1.0  0.07719636356972609  0.9808992638335139  0.4718710134656305  1.0000
  C   C32       1.0  0.4228036793961536  0.5191007366806843  0.9718718009292076  1.0000
  C   C33       1.0  0.9039005454690778  0.1354045794925582  0.5502047405307522  1.0000
  C   C34       1.0  0.5961004405879818  0.364595420678846  0.0502047405307522  1.0000
  C   C35       1.0  0.0960999690423918  0.8645954208502431  0.4497944720056709  1.0000
  C   C36       1.0  0.40390007392348787  0.6354045796639554  0.9497960469328319  1.0000
  C   C37       1.0  0.7565877659451061  0.16773991192398796  0.6021804866524931  1.0000
  C   C38       1.0  0.7434132201119468  0.3322600882474092  0.1021804866524931  1.0000
  C   C39       1.0  0.2434114519975593  0.8322600884188134  0.39781951334750704  1.0000
  C   C40       1.0  0.2565872943995231  0.6677399120953851  0.8978195133475069  1.0000
  N   N1        1.0  0.533306959161095  0.3399859110951837  0.7392519095991831  1.0000
  N   N2        1.0  0.9666941093201302  0.16001494607264988  0.239251909599183  1.0000
  N   N3        1.0  0.4666936377745472  0.660014946244047  0.260748090400817  1.0000
  N   N4        1.0  0.03330510862253529  0.8399850542701515  0.760748090400817  1.0000
  N   N5        1.0  0.6903516281995009  0.5066005867020209  0.7614544452319053  1.0000
  N   N6        1.0  0.8096478469989066  0.9933994138121776  0.2614544452319052  1.0000
  N   N7        1.0  0.3096488863119689  0.4933994136407804  0.23854555476809483  1.0000
  N   N8        1.0  0.1903512885195937  0.006599729534187299  0.7385455547680948  1.0000
  N   N9        1.0  0.6288243787395018  0.09198228420126497  0.6350177179305447  1.0000
  N   N10       1.0  0.8711766073175582  0.4080177159701321  0.1350177179305447  1.0000
  N   N11       1.0  0.371176135771968  0.9080177161415364  0.3649822820694553  1.0000
  N   N12       1.0  0.12882390719391168  0.5919822843726621  0.8649822820694554  1.0000
  O   O1        1.0  0.26385501486669943  0.2815293273714445  0.6002260020474068  1.0000
  O   O2        1.0  0.23614402824441066  0.21847152979638199  0.1002260020474068  1.0000
  O   O3        1.0  0.7361442855001454  0.7184715299677862  0.3997739979525932  1.0000
  O   O4        1.0  0.7638551896982619  0.7815284705464122  0.8997739979525934  1.0000
  O   O5        1.0  0.2481498587984774  0.4653842002304954  0.5510851248129782  1.0000
  O   O6        1.0  0.2518504808814299  0.0346166569373381  0.0510851248129782  1.0000
  O   O7        1.0  0.7518493591441953  0.5346158001123058  0.4489148751870219  1.0000
  O   O8        1.0  0.74815003363004  0.965383343405456  0.9489148751870218  1.0000
  O   O9        1.0  0.644788317157257  0.7215884259963303  0.6730529962989209  1.0000
  O   O10       1.0  0.8552125370341132  0.7784124315142975  0.1730522088353439  1.0000
  O   O11       1.0  0.35521090078540846  0.2784115743464639  0.3269477911646561  1.0000
  O   O12       1.0  0.1447880599015221  0.2215884258249332  0.8269477911646561  1.0000
  O   O13       1.0  0.4139178041335256  0.6556305524903934  0.580963067958109  1.0000
  O   O14       1.0  0.08608223883235408  0.8443694480238051  0.08096228049452492  1.0000
  O   O15       1.0  0.5860827103779445  0.344369447852408  0.4190377195054751  1.0000
  O   O16       1.0  0.9139169791103112  0.1556305523189891  0.9190377195054751  1.0000
  O   O17       1.0  0.4871438445903634  0.1121842611275596  0.9010134656272157  1.0000
  O   O18       1.0  0.012856495089536697  0.387816596040274  0.4010134656272157  1.0000
  O   O19       1.0  0.512855373352302  0.8878157392152345  0.0989865343727843  1.0000
  O   O20       1.0  0.9871441018460985  0.6121842612989639  0.5989865343727843  1.0000
