data_image0
_chemical_formula_structural       Ho4H24C28S4O32
_chemical_formula_sum              "Ho4 H24 C28 S4 O32"
_cell_length_a       5.859703703146319
_cell_length_b       10.153910269484324
_cell_length_c       18.648571703517074
_cell_angle_alpha    81.00070474631558
_cell_angle_beta     80.97925414853992
_cell_angle_gamma    73.23621383653102

_space_group_name_H-M_alt    "P 1"
_space_group_IT_number       1

loop_
  _space_group_symop_operation_xyz
  'x, y, z'

loop_
  _atom_site_type_symbol
  _atom_site_label
  _atom_site_symmetry_multiplicity
  _atom_site_fract_x
  _atom_site_fract_y
  _atom_site_fract_z
  _atom_site_occupancy
  Ho  Ho1       1.0  0.95057382890198  0.1966158647264251  0.5291008199228457  1.0000
  Ho  Ho2       1.0  0.6762251562959984  0.30339083895636787  0.9709022234671565  1.0000
  Ho  Ho3       1.0  0.04943045748585442  0.8033666310310396  0.47090126338093086  1.0000
  Ho  Ho4       1.0  0.32377422170495845  0.696618537705362  0.02909562760416409  1.0000
  H   H1        1.0  0.5909840013950782  0.24694716518438742  0.6574958001737699  1.0000
  H   H2        1.0  0.4952105010941064  0.25301920760784924  0.8424807958804408  1.0000
  H   H3        1.0  0.40902185147228176  0.7530342410479562  0.34250358982846757  1.0000
  H   H4        1.0  0.5047754365579633  0.7470026441984743  0.15751863404662458  1.0000
  H   H5        1.0  0.43983136227248537  0.31586279770125  0.5898139891316064  1.0000
  H   H6        1.0  0.3452534645564421  0.18426532059380923  0.9101852151981547  1.0000
  H   H7        1.0  0.5601714447475811  0.6841311166311571  0.41018865647632197  1.0000
  H   H8        1.0  0.6547477460567276  0.8157471665848988  0.08981259957758429  1.0000
  H   H9        1.0  0.4831904461769408  0.25154176053222704  0.47301669720275197  1.0000
  H   H10       1.0  0.2077571363093398  0.24845230467593635  0.0269570189543984  1.0000
  H   H11       1.0  0.5168216292472461  0.7484520096241738  0.5269785406938112  1.0000
  H   H12       1.0  0.7922454110615929  0.7515550909107772  0.9730456005897422  1.0000
  H   H13       1.0  0.6423610701972037  0.10636305604781879  0.45100917374476523  1.0000
  H   H14       1.0  0.19985208067905075  0.39358625828909777  0.04902310907541359  1.0000
  H   H15       1.0  0.35764456594137045  0.8936235859121167  0.5489928034377272  1.0000
  H   H16       1.0  0.8001468885792202  0.6064252453134884  0.950977452062503  1.0000
  H   H17       1.0  0.9279287084837545  0.8073641869830652  0.7512935418436584  1.0000
  H   H18       1.0  0.48640241992104166  0.6926646589952979  0.7488029801241468  1.0000
  H   H19       1.0  0.07209780983824013  0.1926328829335091  0.2487113503539859  1.0000
  H   H20       1.0  0.5135768192372223  0.3073550693710629  0.25119392868055707  1.0000
  H   H21       1.0  0.6078867748201796  0.8861896467688338  0.8641523957526758  1.0000
  H   H22       1.0  0.358044221601673  0.6135949070206125  0.6359731639127162  1.0000
  H   H23       1.0  0.39212066921572114  0.11380845022240747  0.13585200942814876  1.0000
  H   H24       1.0  0.6419027569173179  0.3864424576153668  0.3640241087115683  1.0000
  C   C1        1.0  0.7830673499331192  0.8903423661376028  0.6074282050019376  1.0000
  C   C2        1.0  0.28068682437363135  0.6097134426143923  0.892704712291895  1.0000
  C   C3        1.0  0.21693835384068183  0.109627685781291  0.3925739211306762  1.0000
  C   C4        1.0  0.7193120829028384  0.3902970357245721  0.10729645397902486  1.0000
  C   C5        1.0  0.6472939165369733  0.9236984255093293  0.6801176439379617  1.0000
  C   C6        1.0  0.2510759901879139  0.5762370787825262  0.8200201514229519  1.0000
  C   C7        1.0  0.35272960495242234  0.07627681517811877  0.3198846368480304  1.0000
  C   C8        1.0  0.7489257713370208  0.42377543097017434  0.17997882055814068  1.0000
  C   C9        1.0  0.7453244960760083  0.87164198320329  0.747110326827837  1.0000
  C   C10       1.0  0.36399162128046175  0.6282940172227001  0.7530409053942435  1.0000
  C   C11       1.0  0.25469713123444376  0.12834677000409297  0.2528935338162484  1.0000
  C   C12       1.0  0.6360072738590288  0.3717163951245226  0.24695687585137446  1.0000
  C   C13       1.0  0.5827233263067694  0.9133532670691267  0.8067304099179324  1.0000
  C   C14       1.0  0.30268501045490814  0.5865373607608432  0.6934099543591472  1.0000
  C   C15       1.0  0.41729430807984585  0.0866416880991068  0.1932724098738774  1.0000
  C   C16       1.0  0.6972882852721862  0.413483441518018  0.3065888526675024  1.0000
  C   C17       1.0  0.4109412767913053  0.004616624248576799  0.6906669684686193  1.0000
  C   C18       1.0  0.10634451024001358  0.49522289369465267  0.8094570854923191  1.0000
  C   C19       1.0  0.5890906336350309  0.9953617008809559  0.3093339298722029  1.0000
  C   C20       1.0  0.8936481137688896  0.5048010155598918  0.19054148053180595  1.0000
  C   C21       1.0  0.2483269095868293  0.0716440665416798  0.6357823778847518  1.0000
  C   C22       1.0  0.9555910692423022  0.4283925737772591  0.8642921059891862  1.0000
  C   C23       1.0  0.7517050996731739  0.9283270053288958  0.36421883605446226  1.0000
  C   C24       1.0  0.04439728271710649  0.5716240996015856  0.135707673066392  1.0000
  C   C25       1.0  0.883361816358643  0.520805273606541  0.4817145589982488  1.0000
  C   C26       1.0  0.8859036267251381  0.9791764047099109  0.01828496077727237  1.0000
  C   C27       1.0  0.11662415773021438  0.47919065137666184  0.5182848532306821  1.0000
  C   C28       1.0  0.11409281077160889  0.0208297832909778  0.9817089196662678  1.0000
  S   S1        1.0  0.3126376234493547  0.014311818121996096  0.7824922339657332  1.0000
  S   S2        1.0  0.10937350248327925  0.48554900829518743  0.7176268875100008  1.0000
  S   S3        1.0  0.687383348047191  0.9856841327744803  0.21750846136196597  1.0000
  S   S4        1.0  0.8905937449105034  0.5144800881592746  0.28237180962755554  1.0000
  O   O1        1.0  0.8770445849434481  0.978647098141586  0.5658740849759099  1.0000
  O   O2        1.0  0.42126781113179823  0.5214963472068207  0.9343489544961443  1.0000
  O   O3        1.0  0.12297102440198411  0.021323989422406  0.43412795556830025  1.0000
  O   O4        1.0  0.5787331766841033  0.47852134270361546  0.06564975494720215  1.0000
  O   O5        1.0  0.811479478187358  0.7719578984231248  0.5881330245715262  1.0000
  O   O6        1.0  0.17127994428047028  0.7281334811437289  0.9119097893457637  1.0000
  O   O7        1.0  0.1885024895696147  0.22801734242593594  0.4118693192652856  1.0000
  O   O8        1.0  0.8287106429653542  0.2718841428153596  0.08808555083498952  1.0000
  O   O9        1.0  0.3200574379529611  0.05125092286412071  0.5679483547971175  1.0000
  O   O10       1.0  0.9389835936826068  0.44884191905519094  0.9321169618215561  1.0000
  O   O11       1.0  0.6799558190669396  0.9487263683909718  0.4320527314855766  1.0000
  O   O12       1.0  0.06100958689147953  0.5511643974686891  0.0678835154910473  1.0000
  O   O13       1.0  0.040436923915308336  0.14967106761923787  0.6534363547934916  1.0000
  O   O14       1.0  0.8432205748583134  0.35046940960481276  0.846588134805785  1.0000
  O   O15       1.0  0.9595824373512295  0.8502989217280045  0.3465625437326522  1.0000
  O   O16       1.0  0.1567604470673272  0.649552470006647  0.15341272786163526  1.0000
  O   O17       1.0  0.7840866203355358  0.42821494981036085  0.4787269499563819  1.0000
  O   O18       1.0  0.6911048633468648  0.0717618881884761  0.02124464749029896  1.0000
  O   O19       1.0  0.21589761997477536  0.5717706113969002  0.5212728141665153  1.0000
  O   O20       1.0  0.30889102282304737  0.9282266289378853  0.9787471373183649  1.0000
  O   O21       1.0  0.8098280232345728  0.6489283123290761  0.45710624933540334  1.0000
  O   O22       1.0  0.915851745548579  0.8510362705705318  0.042871738989091975  1.0000
  O   O23       1.0  0.19017695709008808  0.3510655273199674  0.5428925625306888  1.0000
  O   O24       1.0  0.0841363892669803  0.14896799023537  0.9571296888172114  1.0000
  O   O25       1.0  0.6022953761841657  0.28786756547767567  0.6067913796101224  1.0000
  O   O26       1.0  0.4968048032432007  0.21213246860987311  0.8931925946481911  1.0000
  O   O27       1.0  0.3977074867492117  0.712127341122482  0.39320896835215546  1.0000
  O   O28       1.0  0.5031896841612774  0.7878862396431928  0.10680516329910006  1.0000
  O   O29       1.0  0.6496773833923581  0.1995297858156775  0.46033168235686617  1.0000
  O   O30       1.0  0.30961505135051215  0.300431226756629  0.03966760689991838  1.0000
  O   O31       1.0  0.3503330445090353  0.8004547778118863  0.5396700723512706  1.0000
  O   O32       1.0  0.6903817944479933  0.6995813108012072  0.960332797821529  1.0000
