data_image0
_chemical_formula_structural       Er2H36C38N6O22
_chemical_formula_sum              "Er2 H36 C38 N6 O22"
_cell_length_a       6.988222366836458
_cell_length_b       11.160751672036907
_cell_length_c       13.381
_cell_angle_alpha    102.55430960812897
_cell_angle_beta     101.6101425609311
_cell_angle_gamma    90.6385088092953

_space_group_name_H-M_alt    "P 1"
_space_group_IT_number       1

loop_
  _space_group_symop_operation_xyz
  'x, y, z'

loop_
  _atom_site_type_symbol
  _atom_site_label
  _atom_site_symmetry_multiplicity
  _atom_site_fract_x
  _atom_site_fract_y
  _atom_site_fract_z
  _atom_site_occupancy
  Er  Er1       1.0  0.903695495039905  0.11258984460329909  0.8527221741744382  1.0000
  Er  Er2       1.0  0.09630431499279268  0.8874150748811046  0.14727757676232756  1.0000
  H   H1        1.0  0.6574650454149661  0.5230547274795327  0.8784335522168334  1.0000
  H   H2        1.0  0.34252524336774565  0.4769419168554165  0.121565192387834  1.0000
  H   H3        1.0  0.3115067775039861  0.6466440846346018  0.6216964204686375  1.0000
  H   H4        1.0  0.688490815623652  0.3533525597003475  0.37830533383263537  1.0000
  H   H5        1.0  0.42716616016176084  0.2628656392993349  0.5884173278286937  1.0000
  H   H6        1.0  0.5728196620099907  0.737130085574563  0.4115822752794783  1.0000
  H   H7        1.0  0.6543739068848993  0.4752776923533091  0.041185788353679705  1.0000
  H   H8        1.0  0.34563045376276585  0.5247290660531974  0.9588177635754533  1.0000
  H   H9        1.0  0.8515888873171988  0.3609086906165402  0.04648709716003912  1.0000
  H   H10       1.0  0.14841659818340958  0.6390943899457682  0.9535144115505432  1.0000
  H   H11       1.0  0.16219034461644805  0.2680890975294261  0.3267188604185662  1.0000
  H   H12       1.0  0.837808625376155  0.7319066273444719  0.6732843665555776  1.0000
  H   H13       1.0  0.0297090961059681  0.6452961547340053  0.3304186999713963  1.0000
  H   H14       1.0  0.9702990591205916  0.3547041674451492  0.6695840839022578  1.0000
  H   H15       1.0  0.49253991143781656  0.0732884014441595  0.8906118489440971  1.0000
  H   H16       1.0  0.5074566408408713  0.9267128401960463  0.10938465081878944  1.0000
  H   H17       1.0  0.5460343592530847  0.9424209127894088  0.8314354969271774  1.0000
  H   H18       1.0  0.4539595232996589  0.05758308723394379  0.1685634643141469  1.0000
  H   H19       1.0  0.23502960844022164  0.0080976934751646  0.9625056202120061  1.0000
  H   H20       1.0  0.764979050810389  0.9919081454702904  0.03749298551996815  1.0000
  H   H21       1.0  0.30248128406355324  0.1506040422911994  0.997080571753493  1.0000
  H   H22       1.0  0.6975258303140635  0.8494008771932045  0.002919946894977005  1.0000
  H   H23       1.0  0.3175181913617918  0.0717280760407988  0.7208394924199053  1.0000
  H   H24       1.0  0.6824839523808137  0.9282704072162531  0.2791600842473372  1.0000
  H   H25       1.0  0.0708698766022309  0.751797328258327  0.5416865596111649  1.0000
  H   H26       1.0  0.9291320151283458  0.248198396615571  0.4583102484929568  1.0000
  H   H27       1.0  0.030575566226289708  0.8487370263144669  0.45065090960459747  1.0000
  H   H28       1.0  0.9694326730042775  0.1512642153257389  0.5493490604819229  1.0000
  H   H29       1.0  0.9080743450594823  0.8738898028225464  0.5592492325364374  1.0000
  H   H30       1.0  0.09193364215905579  0.1261086804344984  0.44074946364357  1.0000
  H   H31       1.0  0.5005647659617551  0.9834343924253091  0.6187898771053497  1.0000
  H   H32       1.0  0.4994401315107949  0.0165622519096402  0.3812141395642357  1.0000
  H   H33       1.0  0.3864562130159541  0.9003822340817749  0.4887859988066196  1.0000
  H   H34       1.0  0.6135503133335972  0.09961624917527702  0.511217775129154  1.0000
  H   H35       1.0  0.44704951636254  0.8215614354944307  0.5935152392253115  1.0000
  H   H36       1.0  0.5529540042450377  0.1784361283015699  0.4064895467563047  1.0000
  C   C1        1.0  0.6565663232454992  0.281460819592489  0.7825438471592747  1.0000
  C   C2        1.0  0.3434329827631402  0.7185385831256141  0.2174548506210527  1.0000
  C   C3        1.0  0.548489738571476  0.3803736810638298  0.7402563148313774  1.0000
  C   C4        1.0  0.4514989213342274  0.6196211243490168  0.2597404305222  1.0000
  C   C5        1.0  0.5683136913491609  0.5010327158497248  0.7997005789757735  1.0000
  C   C6        1.0  0.4316778902945159  0.4989620895631219  0.20029871544739558  1.0000
  C   C7        1.0  0.48283799860953275  0.5973848782943492  0.757824338975702  1.0000
  C   C8        1.0  0.5171567567841393  0.40261268550165147  0.24217728376696357  1.0000
  C   C9        1.0  0.3766631765359918  0.5724371416006093  0.6551559873308506  1.0000
  C   C10       1.0  0.6233284891116994  0.4275585832732888  0.344847219259897  1.0000
  C   C11       1.0  0.35564967555752247  0.4511501149169633  0.5950012794067091  1.0000
  C   C12       1.0  0.6443406972291966  0.5488474488790374  0.405000630037236  1.0000
  C   C13       1.0  0.4411846791308918  0.3555270850856971  0.6373963339753672  1.0000
  C   C14       1.0  0.5588054416437983  0.6444677203271496  0.36260131224885583  1.0000
  C   C15       1.0  0.516857750974232  0.7277396298618442  0.8233949164513917  1.0000
  C   C16       1.0  0.48312556947958996  0.2722606923173032  0.17660450987415996  1.0000
  C   C17       1.0  0.8348255908141127  0.6059551747496741  0.127413505698712  1.0000
  C   C18       1.0  0.1651866110033637  0.39404146958527514  0.8725808160863622  1.0000
  C   C19       1.0  0.9280919492410219  0.5140145864272085  0.18305097365157508  1.0000
  C   C20       1.0  0.0719162899895451  0.4859866552129972  0.8169489964349452  1.0000
  C   C21       1.0  0.9196603167150099  0.39088220141442775  0.1294531929586  1.0000
  C   C22       1.0  0.0803536819874893  0.6091181207647267  0.8705487104278189  1.0000
  C   C23       1.0  0.005173511595479903  0.302678302802768  0.1811254924559762  1.0000
  C   C24       1.0  0.9948408231230488  0.6973256972205846  0.8188756183781222  1.0000
  C   C25       1.0  0.09400193414723648  0.3365319392354067  0.2866187103611963  1.0000
  C   C26       1.0  0.9059975398694248  0.6634693024047991  0.7133878117542878  1.0000
  C   C27       1.0  0.09989308671204358  0.4597599481974797  0.340850903760348  1.0000
  C   C28       1.0  0.9000990829596914  0.5402412934427261  0.6591511140019222  1.0000
  C   C29       1.0  0.020502347407855805  0.549353152457023  0.28867953457817913  1.0000
  C   C30       1.0  0.9794956657398188  0.4506480891831758  0.7113223500251563  1.0000
  C   C31       1.0  0.0018203577594988044  0.1723879135088353  0.12190685481154158  1.0000
  C   C32       1.0  0.9981723159362873  0.8276188448976782  0.8780879954958463  1.0000
  C   C33       1.0  0.18110164796258488  0.0188590656147554  0.6770473528853599  1.0000
  C   C34       1.0  0.8188974900380399  0.9811384981812452  0.3229547304843337  1.0000
  C   C35       1.0  0.043003642588026005  0.8462636760875739  0.5333209993634611  1.0000
  C   C36       1.0  0.9570014228925458  0.1537348071694709  0.4666781370601639  1.0000
  C   C37       1.0  0.39664578411150586  0.907625748240669  0.5728830728174117  1.0000
  C   C38       1.0  0.6033606582340382  0.09237181555533168  0.4271212729205942  1.0000
  N   N1        1.0  0.25764052177753877  0.4150989665727067  0.4898008089330403  1.0000
  N   N2        1.0  0.742348474144201  0.5848995166843451  0.5102026171512364  1.0000
  N   N3        1.0  0.1905354568719417  0.5013637218280422  0.4476760555867115  1.0000
  N   N4        1.0  0.8094578376527436  0.4986338419679583  0.5523298975834265  1.0000
  N   N5        1.0  0.2042108092477193  0.9302454095535566  0.5967046011946806  1.0000
  N   N6        1.0  0.7957927953638657  0.0697530737034953  0.40329662367150826  1.0000
  O   O1        1.0  0.6885545181776679  0.18417356525910827  0.7184449940921525  1.0000
  O   O2        1.0  0.31144195009701287  0.8158267569200389  0.2815498354880575  1.0000
  O   O3        1.0  0.7237451994314341  0.2967560541740042  0.8809292592065532  1.0000
  O   O4        1.0  0.27624980797425985  0.7032442680051503  0.1190691534728217  1.0000
  O   O5        1.0  0.6140375164803586  0.7392825438946885  0.9162060034243993  1.0000
  O   O6        1.0  0.385958951794322  0.2607177782844587  0.0837925627973206  1.0000
  O   O7        1.0  0.4493919793993867  0.8132062929250098  0.7798836127400576  1.0000
  O   O8        1.0  0.550602691990278  0.1867903514099396  0.22011185585012777  1.0000
  O   O9        1.0  0.8872458047618466  0.7160597161324205  0.14928944808481498  1.0000
  O   O10       1.0  0.11279061099946829  0.2839461228130347  0.850707590981834  1.0000
  O   O11       1.0  0.6821702754760537  0.5637381205981598  0.04858012462823066  1.0000
  O   O12       1.0  0.31784268237750257  0.4362667988862441  0.951414282234893  1.0000
  O   O13       1.0  0.9123255056678515  0.1458559454244153  0.026135166394794913  1.0000
  O   O14       1.0  0.0876713826268727  0.8541489740599886  0.9738627828006797  1.0000
  O   O15       1.0  0.0837029008903656  0.0951660576889779  0.17040112904321347  1.0000
  O   O16       1.0  0.9162957002853602  0.9048416201785799  0.8296012369143213  1.0000
  O   O17       1.0  0.5992996173546101  0.0324597334794916  0.8610286432063886  1.0000
  O   O18       1.0  0.4006923843091101  0.9675396692386116  0.13896779220562647  1.0000
  O   O19       1.0  0.24130721458788426  0.0812380616901294  0.9331635733803622  1.0000
  O   O20       1.0  0.7586972300637881  0.9187696161774282  0.06683791208994448  1.0000
  O   O21       1.0  0.0188695330003412  0.0431190454424311  0.7017437269749749  1.0000
  O   O22       1.0  0.981129689004298  0.9568794378146208  0.29825554260758474  1.0000
