data_image0
_chemical_formula_structural       Cd2H24C26N6O14
_chemical_formula_sum              "Cd2 H24 C26 N6 O14"
_cell_length_a       8.390592398031721
_cell_length_b       10.008722747584406
_cell_length_c       10.594929115924458
_cell_angle_alpha    92.05003449124028
_cell_angle_beta     103.47113600722881
_cell_angle_gamma    112.77721697653051

_space_group_name_H-M_alt    "P 1"
_space_group_IT_number       1

loop_
  _space_group_symop_operation_xyz
  'x, y, z'

loop_
  _atom_site_type_symbol
  _atom_site_label
  _atom_site_symmetry_multiplicity
  _atom_site_fract_x
  _atom_site_fract_y
  _atom_site_fract_z
  _atom_site_occupancy
  Cd  Cd1       1.0  0.7425406600052753  0.08212748517868107  0.4413829399022262  1.0000
  Cd  Cd2       1.0  0.2574591735325029  0.917872987544008  0.5586173185504535  1.0000
  H   H1        1.0  0.12982385145541278  0.780008570857461  0.0007403661233666945  1.0000
  H   H2        1.0  0.8701778669284437  0.2199907884084523  0.9992602154314557  1.0000
  H   H3        1.0  0.1574770503203667  0.9082232491973627  0.8872471893643237  1.0000
  H   H4        1.0  0.8425234473375767  0.09177611958308768  0.1127531634592742  1.0000
  H   H5        1.0  0.8692956278492899  0.8398298485982706  0.9472199299493912  1.0000
  H   H6        1.0  0.1307043150425713  0.16016841955773486  0.05277934481888741  1.0000
  H   H7        1.0  0.9850486588369378  0.9079421853127624  0.11358845139648119  1.0000
  H   H8        1.0  0.01495128221525731  0.09205608903997127  0.8864117670667896  1.0000
  H   H9        1.0  0.2420941563526782  0.28953053349708563  0.2827328826577613  1.0000
  H   H10       1.0  0.7579086770823266  0.7104710084275253  0.7172670239227159  1.0000
  H   H11       1.0  0.7755096896373104  0.42427370213930254  0.5391630290945031  1.0000
  H   H12       1.0  0.2244907041855342  0.5757278526176461  0.46083547632851213  1.0000
  H   H13       1.0  0.7006882824451067  0.2768274383804437  0.18519941916125762  1.0000
  H   H14       1.0  0.2993115492530051  0.7231730405389737  0.8148017829864146  1.0000
  H   H15       1.0  0.33382369601043393  0.8668132696201949  0.2386692742268225  1.0000
  H   H16       1.0  0.6661768016475095  0.13318609916025537  0.7613310785967686  1.0000
  H   H17       1.0  0.6675016421141039  0.689526530474211  0.24829941920053505  1.0000
  H   H18       1.0  0.3324981932633335  0.310473936051757  0.7516998955571524  1.0000
  H   H19       1.0  0.40826830888791216  0.16772460431192826  0.9642483002235808  1.0000
  H   H20       1.0  0.5917320794159407  0.8322769690351987  0.035753036284411614  1.0000
  H   H21       1.0  0.04680337233411079  0.08034506154623237  0.36375556127134706  1.0000
  H   H22       1.0  0.9531959045979196  0.9196543167487405  0.6362445628210127  1.0000
  H   H23       1.0  0.9218642449482106  0.9169140892351209  0.34173492091800034  1.0000
  H   H24       1.0  0.07813503014416061  0.08308529525658766  0.6582661468693516  1.0000
  C   C1        1.0  0.14828834152118714  0.892709588393472  0.9877033747651326  1.0000
  C   C2        1.0  0.8517103769654354  0.10728870167051945  0.012297558661899128  1.0000
  C   C3        1.0  0.99311811020835  0.9235881148892059  0.012496466915386849  1.0000
  C   C4        1.0  0.006881166723680101  0.07641126340577387  0.9875036571769799  1.0000
  C   C5        1.0  0.4461259243621712  0.20206469959378376  0.4775749500541907  1.0000
  C   C6        1.0  0.5538739110152664  0.7979357669321769  0.5224243647034967  1.0000
  C   C7        1.0  0.38257804384461747  0.3650961091282952  0.31512255320418353  1.0000
  C   C8        1.0  0.6174242311449805  0.6349043445653348  0.6848781627109589  1.0000
  C   C9        1.0  0.5038002633899125  0.3392485647237037  0.41561789733398774  1.0000
  C   C10       1.0  0.49620079271343814  0.6607518922877347  0.584381646154931  1.0000
  C   C11       1.0  0.6818501904731064  0.4420213010031657  0.4586570012028801  1.0000
  C   C12       1.0  0.318151422235985  0.5579802504359745  0.5413426766463658  1.0000
  C   C13       1.0  0.44502619317615444  0.49114386054660725  0.25690218686006727  1.0000
  C   C14       1.0  0.5549754213725961  0.5088576846958189  0.7430965472941795  1.0000
  C   C15       1.0  0.9309003132442227  0.6808873014891997  0.45360902617314736  1.0000
  C   C16       1.0  0.06909952213321444  0.3191131650367679  0.54639028858454  1.0000
  C   C17       1.0  0.5803361079806919  0.17617340990007338  0.16386874614048008  1.0000
  C   C18       1.0  0.4196630595972549  0.8238281729615903  0.836132361636281  1.0000
  C   C19       1.0  0.3949237129179152  0.964113392791162  0.19549290099134714  1.0000
  C   C20       1.0  0.6050780036262748  0.035885972671479686  0.8045086242584745  1.0000
  C   C21       1.0  0.6233123185667964  0.592507519045263  0.29613191475255013  1.0000
  C   C22       1.0  0.3766875168106409  0.4074929474807049  0.7038674000051373  1.0000
  C   C23       1.0  0.7421133785085416  0.5686647346591157  0.39981464978681214  1.0000
  C   C24       1.0  0.2578864568688957  0.43133573186685215  0.6001846649708825  1.0000
  C   C25       1.0  0.4362367735128601  0.12410325618782272  0.054751500060326905  1.0000
  C   C26       1.0  0.5637607242478494  0.8758950433906986  0.9452492046354735  1.0000
  N   N1        1.0  0.320923110216228  0.990125354473825  0.0764511338337002  1.0000
  N   N2        1.0  0.6790743857048226  0.009872951301424796  0.9235505145570926  1.0000
  N   N3        1.0  0.31736483287187406  0.5191101578854286  0.1518391712350464  1.0000
  N   N4        1.0  0.682634445899815  0.48088921421282993  0.8481600091623278  1.0000
  N   N5        1.0  0.5528118638697495  0.07502275348843307  0.2507730084458615  1.0000
  N   N6        1.0  0.44718919039394217  0.9249777097197264  0.7492274787380566  1.0000
  O   O1        1.0  0.9194621147773747  0.013898552353232691  0.3260972510272495  1.0000
  O   O2        1.0  0.08053716031498928  0.9861008321384754  0.6739038167601025  1.0000
  O   O3        1.0  0.37495011517963667  0.6327298110804448  0.10151638717668021  1.0000
  O   O4        1.0  0.6250491635920525  0.36726956101780667  0.8984827932206871  1.0000
  O   O5        1.0  0.5652756187110697  0.16810305093563466  0.5486997422287558  1.0000
  O   O6        1.0  0.4347242148267013  0.8318974217870544  0.451300516223924  1.0000
  O   O7        1.0  0.7220194644170661  0.8766151624924984  0.5440084184265643  1.0000
  O   O8        1.0  0.2779803709603713  0.12338530403346935  0.4559908963311231  1.0000
  O   O9        1.0  0.9927549031813359  0.7836436190613225  0.38557785306434783  1.0000
  O   O10       1.0  0.007246152922007793  0.21635683795011565  0.614421690424571  1.0000
  O   O11       1.0  0.020947335476620227  0.6733586841864674  0.5645800214873447  1.0000
  O   O12       1.0  0.979052499900817  0.32664178233949304  0.43541929327034995  1.0000
  O   O13       1.0  0.15917706218234434  0.4285085245975465  0.11939435562736381  1.0000
  O   O14       1.0  0.8408227695157676  0.571491954321871  0.8806068465203083  1.0000
