data_image0
_chemical_formula_structural       Al4H22C44O20
_chemical_formula_sum              "Al4 H22 C44 O20"
_cell_length_a       6.712919840760805
_cell_length_b       19.27570517249293
_cell_length_c       21.549125081868834
_cell_angle_alpha    86.83538992100988
_cell_angle_beta     87.78134949547474
_cell_angle_gamma    87.89482427599691

_space_group_name_H-M_alt    "P 1"
_space_group_IT_number       1

loop_
  _space_group_symop_operation_xyz
  'x, y, z'

loop_
  _atom_site_type_symbol
  _atom_site_label
  _atom_site_symmetry_multiplicity
  _atom_site_fract_x
  _atom_site_fract_y
  _atom_site_fract_z
  _atom_site_occupancy
  Al  Al1       1.0  0.7724635102027406  0.26549180519326393  0.2592853233334296  1.0000
  Al  Al2       1.0  0.22788339655927814  0.7363164653230072  0.7390694070734511  1.0000
  Al  Al3       1.0  0.27101617317931936  0.2652325901573675  0.2602040825902137  1.0000
  Al  Al4       1.0  0.7291506676222428  0.7363024374365778  0.7384256084279883  1.0000
  H   H1        1.0  0.18773392606574646  0.10572997669024888  0.9463474419812813  1.0000
  H   H2        1.0  0.8143760154501578  0.9100788106418135  0.0411259052323203  1.0000
  H   H3        1.0  0.8090686177820248  0.06509590628233747  0.9094414236916964  1.0000
  H   H4        1.0  0.19522096715999745  0.9497521265537042  0.07703307400839071  1.0000
  H   H5        1.0  0.6719209665615582  0.9668935498406195  0.8353486953576024  1.0000
  H   H6        1.0  0.5030181956598271  0.9017116969382638  0.8219148697159397  1.0000
  H   H7        1.0  0.5019824612222692  0.9804754219504371  0.7744648630722962  1.0000
  H   H8        1.0  0.21586816395027603  0.9862749800403066  0.8482810499479642  1.0000
  H   H9        1.0  0.3891178569632671  0.04709609469965408  0.8679412232886464  1.0000
  H   H10       1.0  0.5013478109219349  0.9711822554286866  0.9566622787707147  1.0000
  H   H11       1.0  0.3643590849589913  0.9013576835064893  0.932770009261759  1.0000
  H   H12       1.0  0.3340454849742329  0.17949897487304867  0.0470330585936338  1.0000
  H   H13       1.0  0.5167176387356561  0.1911442198477502  0.1021258113203203  1.0000
  H   H14       1.0  0.5035965500787043  0.2477651511791663  0.0343261734421176  1.0000
  H   H15       1.0  0.7857491652553961  0.1653286076322544  0.019594885911907105  1.0000
  H   H16       1.0  0.6006291317305353  0.14703331506060377  0.967800734196274  1.0000
  H   H17       1.0  0.501837219702729  0.043592143135384696  0.0314701251473934  1.0000
  H   H18       1.0  0.6428677223006005  0.06706769316772918  0.0941836962519744  1.0000
  H   H19       1.0  0.5296517710861862  0.17581334945764124  0.27740487584009804  1.0000
  H   H20       1.0  0.47036304384798927  0.82740670224598  0.7290018248898988  1.0000
  H   H21       1.0  0.010142282844284999  0.35213833890948365  0.2790656927006339  1.0000
  H   H22       1.0  0.9902860528456828  0.6486114249627943  0.7213166593390598  1.0000
  C   C1        1.0  0.5229827673244145  0.34778026026516773  0.1719906091045971  1.0000
  C   C2        1.0  0.47670338126431483  0.6521783111095516  0.8254696607711907  1.0000
  C   C3        1.0  0.5037314522843419  0.3479956323053343  0.3412524313064793  1.0000
  C   C4        1.0  0.4969930569600152  0.6546027041258426  0.6567315887184932  1.0000
  C   C5        1.0  0.019488426755003698  0.177886080787701  0.34566759414344267  1.0000
  C   C6        1.0  0.980547048225084  0.8245628420928238  0.6535906061692955  1.0000
  C   C7        1.0  0.040934995441297396  0.1836795910550819  0.1792460244238683  1.0000
  C   C8        1.0  0.9588897518604684  0.8165000482837923  0.8204559824582985  1.0000
  C   C9        1.0  0.8951327763753839  0.04013850125369339  0.9470958427492917  1.0000
  C   C10       1.0  0.10945412169806452  0.9747001536295128  0.039281738285929194  1.0000
  C   C11       1.0  0.10445808100204351  0.061861276052844985  0.9667777660185949  1.0000
  C   C12       1.0  0.8974189729455021  0.9540029664310412  0.02063653074413448  1.0000
  C   C13       1.0  0.0504894101504334  0.1363772524986331  0.130041393253606  1.0000
  C   C14       1.0  0.9497857067313192  0.8647125886427458  0.8688983700983572  1.0000
  C   C15       1.0  0.8220538598139343  0.032344083627876295  0.017114452325763804  1.0000
  C   C16       1.0  0.18112811058782802  0.9838956291286463  0.9689515441259929  1.0000
  C   C17       1.0  0.03557277143129061  0.05359050414309509  0.0376818435825967  1.0000
  C   C18       1.0  0.9676072745710729  0.9611274815842418  0.949782202605249  1.0000
  C   C19       1.0  0.0551187529927546  0.09864901157336449  0.08638713698513811  1.0000
  C   C20       1.0  0.9468423177817588  0.9100896687952227  0.9061868763898318  1.0000
  C   C21       1.0  0.9829952891847142  0.8774657611593496  0.603672045575216  1.0000
  C   C22       1.0  0.016274228734893398  0.1244871035737063  0.3951170874848274  1.0000
  C   C23       1.0  0.9887391389047907  0.9245322964814378  0.5630045937723906  1.0000
  C   C24       1.0  0.0100785285960043  0.0768485159896031  0.43523261482226877  1.0000
  C   C25       1.0  0.995699431465262  0.9763915361955994  0.5189470110015791  1.0000
  C   C26       1.0  0.002916371275226499  0.0246045512322652  0.4789065019275114  1.0000
  C   C27       1.0  0.5207226487935727  0.394276446991327  0.1173905022249642  1.0000
  C   C28       1.0  0.4784698316142908  0.6053697954617832  0.8798895169045055  1.0000
  C   C29       1.0  0.5125086482299963  0.4349040875422573  0.07164114565011201  1.0000
  C   C30       1.0  0.4854279116530834  0.5649707601958125  0.9258239116765169  1.0000
  C   C31       1.0  0.503178698731233  0.4794572859483137  0.021724430238904805  1.0000
  C   C32       1.0  0.493961595324791  0.520551449227568  0.9758736944395139  1.0000
  C   C33       1.0  0.49676005726409767  0.39456844734274904  0.3913885353769119  1.0000
  C   C34       1.0  0.5040483469460996  0.60730744461695  0.6071567808679248  1.0000
  C   C35       1.0  0.4976239404871024  0.4351448248625117  0.4332617517256026  1.0000
  C   C36       1.0  0.5035374851642089  0.5662261436253502  0.5656787485293648  1.0000
  C   C37       1.0  0.4993453362768535  0.47981987936307746  0.47878596705047033  1.0000
  C   C38       1.0  0.50205756694227  0.5212512909325822  0.5203854282634596  1.0000
  C   C39       1.0  0.3645887100641545  0.9585347621348034  0.9336715065584826  1.0000
  C   C40       1.0  0.3652363385579421  0.9909317906392373  0.8667019668211182  1.0000
  C   C41       1.0  0.5189773108515681  0.958268945598348  0.8221366262338564  1.0000
  C   C42       1.0  0.638705970815188  0.0691542571487958  0.0429663051433451  1.0000
  C   C43       1.0  0.634578378070934  0.14543909867260396  0.0175454313610075  1.0000
  C   C44       1.0  0.4891015757764095  0.19358428871144884  0.05208747741601629  1.0000
  O   O1        1.0  0.3370676153442318  0.32993830562423193  0.3221439186775257  1.0000
  O   O2        1.0  0.663614281574418  0.6731833309053383  0.6754263894192434  1.0000
  O   O3        1.0  0.6929420752988806  0.32996075567550776  0.19297448200181577  1.0000
  O   O4        1.0  0.3067620551333264  0.6706492527502089  0.804841385698417  1.0000
  O   O5        1.0  0.8666492155121831  0.2027913426099488  0.1987746660387799  1.0000
  O   O6        1.0  0.13304647560489263  0.7982331448881155  0.8001719534352747  1.0000
  O   O7        1.0  0.6776762872576114  0.3302770079191717  0.3206715234106241  1.0000
  O   O8        1.0  0.3231913516479707  0.672376458882354  0.6773279063945594  1.0000
  O   O9        1.0  0.8500060355024175  0.19827043897398508  0.3255423976322191  1.0000
  O   O10       1.0  0.15034086514319972  0.8039930279132574  0.6732774901307437  1.0000
  O   O11       1.0  0.3531734613838112  0.3299015392737629  0.1943600082700598  1.0000
  O   O12       1.0  0.6467431911480475  0.6696795173457701  0.8029696713436536  1.0000
  O   O13       1.0  0.525721554911705  0.22429007423959035  0.26280123110078796  1.0000
  O   O14       1.0  0.47453602394971744  0.7773711451374865  0.7366843208259014  1.0000
  O   O15       1.0  0.19077205553995213  0.1982105268480723  0.32653231073805244  1.0000
  O   O16       1.0  0.8094833691575333  0.8048021378224702  0.6734755628660524  1.0000
  O   O17       1.0  0.2054848165327741  0.2021871475781864  0.19965906171267994  1.0000
  O   O18       1.0  0.794079411848877  0.7972756578435563  0.8007793306646249  1.0000
  O   O19       1.0  0.01739313488094041  0.3073263437153031  0.2605657406973307  1.0000
  O   O20       1.0  0.9830203066685146  0.6945336131625622  0.7376624393057085  1.0000
