data_image0
_chemical_formula_structural       Cu2H10C10N2Cl2
_chemical_formula_sum              "Cu2 H10 C10 N2 Cl2"
_cell_length_a       3.7533319040846767
_cell_length_b       8.596883773547486
_cell_length_c       8.900084076500734
_cell_angle_alpha    106.9454941987365
_cell_angle_beta     89.99793149682803
_cell_angle_gamma    89.99957535569976

_space_group_name_H-M_alt    "P 1"
_space_group_IT_number       1

loop_
  _space_group_symop_operation_xyz
  'x, y, z'

loop_
  _atom_site_type_symbol
  _atom_site_label
  _atom_site_symmetry_multiplicity
  _atom_site_fract_x
  _atom_site_fract_y
  _atom_site_fract_z
  _atom_site_occupancy
  Cu  Cu1       1.0  0.3452736203290386  0.5137764672274159  0.39201051800601044  1.0000
  Cu  Cu2       1.0  0.8452654488717289  0.48622877168559603  0.6079856344002578  1.0000
  H   H1        1.0  0.47724000781898485  0.8626018857091821  0.46335473809256184  1.0000
  H   H2        1.0  0.9772538687738149  0.1374157011457058  0.536640074650208  1.0000
  H   H3        1.0  0.3780043325346157  0.08111411180153279  0.33207953173286586  1.0000
  H   H4        1.0  0.8780605175470912  0.9188785917391301  0.667890054965305  1.0000
  H   H5        1.0  0.043873000562612716  0.0114698180082371  0.07843028442972867  1.0000
  H   H6        1.0  0.5438869759419234  0.988514642584505  0.9215669732942047  1.0000
  H   H7        1.0  0.9633709367647968  0.5191721338214705  0.10547496066961062  1.0000
  H   H8        1.0  0.4633556098964179  0.4808530654691197  0.8945604260796642  1.0000
  H   H9        1.0  0.8489490831816796  0.7207344578082485  0.9568223356802503  1.0000
  H   H10       1.0  0.34897009603435697  0.2792427848766578  0.04316599583771818  1.0000
  C   C1        1.0  0.33848458389376657  0.8372609879290352  0.35127946456206166  1.0000
  C   C2        1.0  0.8385864518948554  0.16275881456289204  0.6487062410608144  1.0000
  C   C3        1.0  0.2800092438735078  0.9579616703274284  0.27874027151340636  1.0000
  C   C4        1.0  0.780021782335375  0.04209500063284109  0.7212455184381382  1.0000
  C   C5        1.0  0.09967862301376582  0.9180646938234104  0.1356759387286175  1.0000
  C   C6        1.0  0.5996382336855889  0.0819339972560016  0.8643365570380934  1.0000
  C   C7        1.0  0.054593924322851706  0.6445823502427644  0.14998627532086317  1.0000
  C   C8        1.0  0.5545950119722961  0.35539362076536923  0.8500275294221992  1.0000
  C   C9        1.0  0.9876512927865093  0.7579174982790916  0.06939737701748776  1.0000
  C   C10       1.0  0.48762145413174823  0.2420516957034167  0.9306433913838956  1.0000
  N   N1        1.0  0.22885543831453964  0.6821179013779215  0.2888530791031769  1.0000
  N   N2        1.0  0.7288371842959692  0.3178698887739415  0.7111213565018487  1.0000
  Cl  Cl1       1.0  0.30797569872170544  0.6640202333168901  0.6718961660947115  1.0000
  Cl  Cl2       1.0  0.8079656510717613  0.33597439185998473  0.32810562275810895  1.0000
