data_image0
_chemical_formula_structural       Al2H12C20N2Cl2O10
_chemical_formula_sum              "Al2 H12 C20 N2 Cl2 O10"
_cell_length_a       6.690094208832279
_cell_length_b       11.163412438589676
_cell_length_c       11.084996442996895
_cell_angle_alpha    82.63744096631443
_cell_angle_beta     73.50355927451487
_cell_angle_gamma    72.50981545417108

_space_group_name_H-M_alt    "P 1"
_space_group_IT_number       1

loop_
  _space_group_symop_operation_xyz
  'x, y, z'

loop_
  _atom_site_type_symbol
  _atom_site_label
  _atom_site_symmetry_multiplicity
  _atom_site_fract_x
  _atom_site_fract_y
  _atom_site_fract_z
  _atom_site_occupancy
  Al  Al1       1.0  0.4921045077008231  0.49807128509159065  0.503699730200175  1.0000
  Al  Al2       1.0  0.9906373665919903  0.500218785773818  0.5041621923356913  1.0000
  H   H1        1.0  0.27597013925881003  0.35273413761181155  0.5821127575420064  1.0000
  H   H2        1.0  0.7007028195111715  0.6478378067721664  0.4361311491935353  1.0000
  H   H3        1.0  0.754854028907687  0.43636961016002124  0.13316076662375306  1.0000
  H   H4        1.0  0.23017719993379873  0.5648386794331159  0.8728513962306292  1.0000
  H   H5        1.0  0.2630150687471656  0.23767479054714613  0.34171969749662856  1.0000
  H   H6        1.0  0.48136487614073814  0.7721898223190137  0.3330038196492778  1.0000
  H   H7        1.0  0.7415440668914073  0.8795729326859457  0.5815516651471596  1.0000
  H   H8        1.0  0.6265206146972488  0.1142100665009522  0.5789658253232588  1.0000
  H   H9        1.0  0.9989396183570494  0.4538291601203142  0.799959854497814  1.0000
  H   H10       1.0  0.03751615124848933  0.4176944942519186  0.9502305261963141  1.0000
  H   H11       1.0  0.990543333753799  0.5509125480916309  0.21092129017112868  1.0000
  H   H12       1.0  0.9422101491306594  0.6080463614607509  0.06668303704575605  1.0000
  C   C1        1.0  0.861339702888806  0.27205655473188267  0.4918334406173768  1.0000
  C   C2        1.0  0.6285843786279556  0.5080285336187914  0.7318261819087581  1.0000
  C   C3        1.0  0.12962480578099184  0.7273789609858811  0.49469861859106584  1.0000
  C   C4        1.0  0.35611142303611126  0.49103034555413677  0.2746623272664479  1.0000
  C   C5        1.0  0.5653712501837874  0.5049656758546989  0.8709955816970517  1.0000
  C   C6        1.0  0.4190959400625475  0.49271274049661423  0.13546655893139095  1.0000
  C   C7        1.0  0.7217887431457087  0.4660919595319016  0.9433490075960335  1.0000
  C   C8        1.0  0.2629210547030638  0.5276188094272455  0.06307044854084147  1.0000
  C   C9        1.0  0.640671057560724  0.4631926489068546  0.07474708652363651  1.0000
  C   C10       1.0  0.3435457313424736  0.5354673500766864  0.9319068571518652  1.0000
  C   C11       1.0  0.9392271822100612  0.1331564250736861  0.47710993650686356  1.0000
  C   C12       1.0  0.15719694187612285  0.07007490862905291  0.41187992979193655  1.0000
  C   C13       1.0  0.792446595093395  0.06431691954215071  0.5324905869855525  1.0000
  C   C14       1.0  0.30936846029567283  0.13568866511795363  0.3437060478259681  1.0000
  C   C15       1.0  0.5163169660093702  0.0730378490916337  0.2789436738630258  1.0000
  C   C16       1.0  0.06886068880933766  0.8674209067045807  0.4780370825236345  1.0000
  C   C17       1.0  0.8567143431738413  0.9325709921170928  0.5335989353542416  1.0000
  C   C18       1.0  0.22195528962497948  0.9347705322575455  0.4112022434205682  1.0000
  C   C19       1.0  0.43318808115219554  0.8735418304360607  0.3400511103494068  1.0000
  C   C20       1.0  0.5788315482263543  0.9397721345125659  0.276797882199645  1.0000
  N   N1        1.0  0.9422271507262965  0.42657512133034464  0.891180890642786  1.0000
  N   N2        1.0  0.04239840475792536  0.548910306069679  0.1154219244824262  1.0000
  Cl  Cl1       1.0  0.6946879832795433  0.15723521547818825  0.19891762742456356  1.0000
  Cl  Cl2       1.0  0.834927560636828  0.8595661385767741  0.1945053294934809  1.0000
  O   O1        1.0  0.6608627567035441  0.3251948693687083  0.5007324791862188  1.0000
  O   O2        1.0  0.82566846991552  0.5066461576887208  0.6756413137088442  1.0000
  O   O3        1.0  0.9821212977872307  0.6737752712862247  0.5039102590388325  1.0000
  O   O4        1.0  0.4996207386507196  0.48973451927181355  0.3303456492976266  1.0000
  O   O5        1.0  0.3224165899058848  0.6706240163811897  0.501264469217986  1.0000
  O   O6        1.0  0.15845693587864676  0.4935708130376142  0.33170046181373164  1.0000
  O   O7        1.0  0.9980627015014254  0.3279814218569185  0.49832938478156297  1.0000
  O   O8        1.0  0.48530622618042674  0.5093737947720882  0.6757476573720068  1.0000
  O   O9        1.0  0.24215744022605187  0.4424491027483695  0.5612889390737051  1.0000
  O   O10       1.0  0.7400734848725393  0.5566637740437557  0.4460033708616605  1.0000
