data_image0
_chemical_formula_structural       Cu4H18C28S2N10
_chemical_formula_sum              "Cu4 H18 C28 S2 N10"
_cell_length_a       5.5420108910719925
_cell_length_b       7.8675908412718245
_cell_length_c       15.587282397118797
_cell_angle_alpha    90.00003043658164
_cell_angle_beta     89.99958976371688
_cell_angle_gamma    95.7946590503892

_space_group_name_H-M_alt    "P 1"
_space_group_IT_number       1

loop_
  _space_group_symop_operation_xyz
  'x, y, z'

loop_
  _atom_site_type_symbol
  _atom_site_label
  _atom_site_symmetry_multiplicity
  _atom_site_fract_x
  _atom_site_fract_y
  _atom_site_fract_z
  _atom_site_occupancy
  Cu  Cu1       1.0  0.014974924181785792  0.7234645791432257  0.19551130523282007  1.0000
  Cu  Cu2       1.0  0.014979985456641002  0.22345860394696615  0.8044898059196299  1.0000
  Cu  Cu3       1.0  0.1709921526361597  0.7452815853018037  0.37623922931337717  1.0000
  Cu  Cu4       1.0  0.1709975694126342  0.2452755821270145  0.6237615212456189  1.0000
  H   H1        1.0  0.5905053992274817  0.25494755814331427  0.0644178622391536  1.0000
  H   H2        1.0  0.5905213780707754  0.7549392776206714  0.9355825585509905  1.0000
  H   H3        1.0  0.4656570450909854  0.3006192990242552  0.9138014769614031  1.0000
  H   H4        1.0  0.46567109062966244  0.8006173339261123  0.0861992345886833  1.0000
  H   H5        1.0  0.7900618592962018  0.0377626801854944  0.9535527342293761  1.0000
  H   H6        1.0  0.7900683436596624  0.5377748884329492  0.0464497829904218  1.0000
  H   H7        1.0  0.88436528939328  0.9816613905159952  0.10701444041683318  1.0000
  H   H8        1.0  0.8843744625558474  0.4816592143590981  0.8929923647143809  1.0000
  H   H9        1.0  0.6458329917826618  0.25389524693603954  0.21663740510521015  1.0000
  H   H10       1.0  0.6458365279208352  0.7538896667382458  0.7833609628714341  1.0000
  H   H11       1.0  0.9672459435826256  0.210576530671446  0.31283019536868295  1.0000
  H   H12       1.0  0.9672491378394741  0.7105671020226083  0.6871693513117805  1.0000
  H   H13       1.0  0.21959208819757953  0.2835980835893111  0.4388883154255652  1.0000
  H   H14       1.0  0.2195968889770157  0.7835924583584768  0.5611110408108785  1.0000
  H   H15       1.0  0.6926987376387929  0.05578779257535159  0.6043155741556561  1.0000
  H   H16       1.0  0.6927003888257416  0.5557847466145418  0.395683319911221  1.0000
  H   H17       1.0  0.4133578501049655  0.977389799075233  0.4830458968124276  1.0000
  H   H18       1.0  0.4133667589968937  0.4773798968373342  0.5169536589466545  1.0000
  C   C1        1.0  0.4099111184208654  0.20539861040875  0.04290822733099019  1.0000
  C   C2        1.0  0.40992143962574806  0.7053916854561066  0.9570977424035048  1.0000
  C   C3        1.0  0.34181165474545583  0.23049705238712184  0.9586817966118986  1.0000
  C   C4        1.0  0.3418052143904902  0.7305068656984728  0.0413211240014419  1.0000
  C   C5        1.0  0.9662637082672917  0.08296440103624289  0.9808619739565855  1.0000
  C   C6        1.0  0.966259844959474  0.5829652174923438  0.0191356459075536  1.0000
  C   C7        1.0  0.0192048772631921  0.052356336107685295  0.06609488692986788  1.0000
  C   C8        1.0  0.0192097975380463  0.5523571582705101  0.9339049253567637  1.0000
  C   C9        1.0  0.24981073185713853  0.110111262057039  0.09894383647745997  1.0000
  C   C10       1.0  0.2498193256532915  0.6101081924086244  0.9010605760991408  1.0000
  C   C11       1.0  0.3261873143076173  0.06824318000869307  0.18476178574330498  1.0000
  C   C12       1.0  0.3261878454039858  0.5682453232916982  0.8152385991923551  1.0000
  C   C13       1.0  0.5209973891069526  0.1438022390788163  0.2333941569757201  1.0000
  C   C14       1.0  0.5209988440769281  0.6437928430571773  0.7666070624896975  1.0000
  C   C15       1.0  0.5078610586452967  0.055731813145094095  0.31176190460848824  1.0000
  C   C16       1.0  0.5078513334594705  0.5557315114349352  0.6882348513811039  1.0000
  C   C17       1.0  0.6628166561402651  0.08885444328198837  0.3860723060245022  1.0000
  C   C18       1.0  0.6628079107172127  0.5888502789829743  0.613927941516188  1.0000
  C   C19       1.0  0.8958159365878873  0.17549029010276476  0.3761113533484348  1.0000
  C   C20       1.0  0.8958139605173161  0.6754847600340028  0.6238851498107039  1.0000
  C   C21       1.0  0.0399720554343261  0.215532395522068  0.4469559965392093  1.0000
  C   C22       1.0  0.03997523211307911  0.715526790102814  0.5530392825044004  1.0000
  C   C23       1.0  0.7469441662403896  0.08778431301745829  0.5385920603070602  1.0000
  C   C24       1.0  0.7469383288195248  0.5877775313610201  0.461404143051638  1.0000
  C   C25       1.0  0.5921804421131753  0.04360660568529079  0.4705027557480647  1.0000
  C   C26       1.0  0.5921821177682034  0.5435997363656497  0.5294970122545664  1.0000
  C   C27       1.0  0.49837698754473797  0.5845535934412638  0.2424381022007367  1.0000
  C   C28       1.0  0.49836211409208186  0.08455170855098257  0.7575606014128695  1.0000
  S   S1        1.0  0.23192495216463982  0.5154908111480551  0.2813534676564444  1.0000
  S   S2        1.0  0.23193772682339642  0.015487286027685296  0.7186484168440189  1.0000
  N   N1        1.0  0.20786274501739407  0.9372520769347119  0.23116643498392617  1.0000
  N   N2        1.0  0.20786743342531375  0.4372499422877354  0.7688342368791296  1.0000
  N   N3        1.0  0.3160160519890383  0.9321482294943308  0.30872697540045374  1.0000
  N   N4        1.0  0.3160199905743042  0.4321422540488554  0.6912734457893492  1.0000
  N   N5        1.0  0.12385808400357942  0.1693204410383657  0.9265462344528074  1.0000
  N   N6        1.0  0.12384719755255703  0.669318794470378  0.0734539810935431  1.0000
  N   N7        1.0  0.9696891283628163  0.1744840009718729  0.5283225346059126  1.0000
  N   N8        1.0  0.969681912560013  0.674481078727119  0.4716718727791616  1.0000
  N   N9        1.0  0.6915549046652174  0.637163015442411  0.21581104418164895  1.0000
  N   N10       1.0  0.6915689079978692  0.1371646035409597  0.7841942708467896  1.0000
