data_image0
_chemical_formula_structural       Mn4H48C52S4N16O24
_chemical_formula_sum              "Mn4 H48 C52 S4 N16 O24"
_cell_length_a       6.958125927165949
_cell_length_b       10.791222218688201
_cell_length_c       19.524828094678675
_cell_angle_alpha    99.2292158878602
_cell_angle_beta     90.00178744377273
_cell_angle_gamma    89.9986619814249

_space_group_name_H-M_alt    "P 1"
_space_group_IT_number       1

loop_
  _space_group_symop_operation_xyz
  'x, y, z'

loop_
  _atom_site_type_symbol
  _atom_site_label
  _atom_site_symmetry_multiplicity
  _atom_site_fract_x
  _atom_site_fract_y
  _atom_site_fract_z
  _atom_site_occupancy
  Mn  Mn1       1.0  0.831166846878112  0.6568840955783203  0.8271528201849423  1.0000
  Mn  Mn2       1.0  0.33116739525927835  0.3431132362138456  0.6728408785055822  1.0000
  Mn  Mn3       1.0  0.168850246588697  0.343063778424721  0.17288687309978465  1.0000
  Mn  Mn4       1.0  0.668861190485494  0.6569579238668766  0.3271325477458549  1.0000
  H   H1        1.0  0.15409868106076632  0.7338964534645953  0.7742737452436046  1.0000
  H   H2        1.0  0.6540784179416973  0.2661078020580235  0.7257242493993205  1.0000
  H   H3        1.0  0.8458997267874936  0.26605913549296645  0.22571388724100677  1.0000
  H   H4        1.0  0.34591424140826627  0.7339115362213706  0.2742926672388038  1.0000
  H   H5        1.0  0.1008571316911997  0.4584771960853188  0.8236515059379671  1.0000
  H   H6        1.0  0.6008458957536574  0.5415145768079981  0.6763488760356327  1.0000
  H   H7        1.0  0.8990780435005093  0.5414659604964386  0.17639390932598792  1.0000
  H   H8        1.0  0.39911514206603016  0.45857730141234754  0.32361002080718043  1.0000
  H   H9        1.0  0.5706875551721993  0.7899187837784183  0.7241792206655904  1.0000
  H   H10       1.0  0.07070038078264669  0.210084646435611  0.7758198256649822  1.0000
  H   H11       1.0  0.42935971725478334  0.21004423225044627  0.2758305901259632  1.0000
  H   H12       1.0  0.9293368297138612  0.7899244714762617  0.224168516323843  1.0000
  H   H13       1.0  0.4364897172002813  0.006393142467274499  0.7220062161763325  1.0000
  H   H14       1.0  0.936484575785819  0.9936150610260697  0.7779880877512043  1.0000
  H   H15       1.0  0.5635173141744615  0.9935577126339017  0.2779912346690524  1.0000
  H   H16       1.0  0.06349083658297158  0.006403423777328501  0.22200672886302195  1.0000
  H   H17       1.0  0.46906638686935054  0.16853152927594553  0.8273461685741952  1.0000
  H   H18       1.0  0.9690720041715294  0.8314715717623998  0.6726465012360168  1.0000
  H   H19       1.0  0.5308874688331358  0.8314231151869581  0.1726429153614007  1.0000
  H   H20       1.0  0.030883287741154695  0.1685506724559929  0.3273476285054002  1.0000
  H   H21       1.0  0.8676858557119546  0.9714672169515239  0.11586361102521894  1.0000
  H   H22       1.0  0.36767432015105317  0.028527603392504396  0.3841412554813958  1.0000
  H   H23       1.0  0.1323226119592391  0.028561545216810202  0.8841449328690558  1.0000
  H   H24       1.0  0.6323341477365289  0.9714467521999385  0.6158506230612774  1.0000
  H   H25       1.0  0.9610951408630727  0.7421534350935987  0.10183987731647196  1.0000
  H   H26       1.0  0.46109695116786037  0.25784301999492243  0.39816463325658463  1.0000
  H   H27       1.0  0.038933447299484704  0.2578706268467529  0.898169781139622  1.0000
  H   H28       1.0  0.5389359481004092  0.7421388797881008  0.60181921597151  1.0000
  H   H29       1.0  0.9272551108464738  0.6095119590368939  0.9854114673799901  1.0000
  H   H30       1.0  0.4272515661346078  0.3904916439134424  0.5145884672897054  1.0000
  H   H31       1.0  0.07273179986009382  0.39050175026061157  0.014603919431401421  1.0000
  H   H32       1.0  0.5727425293068363  0.609500595146976  0.48539323712441984  1.0000
  H   H33       1.0  0.6309090286293044  0.37601068902357343  0.06580469421453473  1.0000
  H   H34       1.0  0.13090840911586096  0.6239909187708225  0.43419252769002287  1.0000
  H   H35       1.0  0.3691310564230434  0.623995596518846  0.9341874908132155  1.0000
  H   H36       1.0  0.8691417369486559  0.3759871621422803  0.5658073681425223  1.0000
  H   H37       1.0  0.5398077279148268  0.31298830966015595  0.9406531307073891  1.0000
  H   H38       1.0  0.039802079161333395  0.6870145764306487  0.559345012761753  1.0000
  H   H39       1.0  0.4602553518156327  0.6870461089336075  0.05934977537468463  1.0000
  H   H40       1.0  0.9602581272481742  0.3129512996213323  0.4406537871878983  1.0000
  H   H41       1.0  0.879320637023582  0.4207080372529434  0.8318424269818723  1.0000
  H   H42       1.0  0.37930390043678835  0.5792877435891981  0.668151665236451  1.0000
  H   H43       1.0  0.12061166269651122  0.5792389698264132  0.16817874988447568  1.0000
  H   H44       1.0  0.6206413292646076  0.4207796894533757  0.33181425550981913  1.0000
  H   H45       1.0  0.17501514974853902  0.7870748178331798  0.8587656541465806  1.0000
  H   H46       1.0  0.6750122985162362  0.21293292102075867  0.6412344213589308  1.0000
  H   H47       1.0  0.8249703240776112  0.2128741637088182  0.14123060400371662  1.0000
  H   H48       1.0  0.32497029935886695  0.7871221642514145  0.3587672670301175  1.0000
  C   C1        1.0  0.5779057398286229  0.8631152294347828  0.7696558401364444  1.0000
  C   C2        1.0  0.0779128059549521  0.13689279328410464  0.7303462592747609  1.0000
  C   C3        1.0  0.42210560326649477  0.13684310852923437  0.23034945303195548  1.0000
  C   C4        1.0  0.9221042840659236  0.8631332137934038  0.2696461600173024  1.0000
  C   C5        1.0  0.5042443874643681  0.983638002226016  0.768610324611693  1.0000
  C   C6        1.0  0.004245694799443801  0.016361596511707405  0.7313830327910582  1.0000
  C   C7        1.0  0.4957497090673684  0.0163269473103114  0.23138531875818563  1.0000
  C   C8        1.0  0.9957555862992392  0.9836644166136141  0.26860785044796404  1.0000
  C   C9        1.0  0.5223079466468546  0.0738063596029832  0.8272381246838734  1.0000
  C   C10       1.0  0.0223168654692358  0.9262023798890483  0.6727608629826423  1.0000
  C   C11       1.0  0.47767177806075967  0.9261604775980102  0.17275512726209297  1.0000
  C   C12       1.0  0.9776686071940689  0.0738226588223014  0.32723915172294943  1.0000
  C   C13       1.0  0.6130438825495544  0.0420584619680824  0.886678388401059  1.0000
  C   C14       1.0  0.1130536441435837  0.9579435008269146  0.6133184340316407  1.0000
  C   C15       1.0  0.38694159078625034  0.9579318221708848  0.11332311503490196  1.0000
  C   C16       1.0  0.8869361401832664  0.042066520533076406  0.3866792078718931  1.0000
  C   C17       1.0  0.6786208720011757  0.9163211017844759  0.8840229493042033  1.0000
  C   C18       1.0  0.17862547421295014  0.0836847036054706  0.6159795533769171  1.0000
  C   C19       1.0  0.3213689129829547  0.083671982959217  0.1159829029929611  1.0000
  C   C20       1.0  0.8213729327134517  0.9163291047409533  0.3840102339150279  1.0000
  C   C21       1.0  0.7609007562241957  0.8739421285363419  0.9448855249881164  1.0000
  C   C22       1.0  0.260899955996571  0.12605794257253683  0.555115836789284  1.0000
  C   C23       1.0  0.2390775314820175  0.12606407810132236  0.055127139394173214  1.0000
  C   C24       1.0  0.7390754564143336  0.8739474104977776  0.4448747276404178  1.0000
  C   C25       1.0  0.7772331960771979  0.9570842736450514  0.008983741750235197  1.0000
  C   C26       1.0  0.2772348811300773  0.04291452303777991  0.49101792004856293  1.0000
  C   C27       1.0  0.2227407799370553  0.0429257002368715  0.9910261878715761  1.0000
  C   C28       1.0  0.7227577772107595  0.9570927135313241  0.5089712770971887  1.0000
  C   C29       1.0  0.8521144876313685  0.9089473611238648  0.06645443324885755  1.0000
  C   C30       1.0  0.35211374231319326  0.0910504696533891  0.4335515556594275  1.0000
  C   C31       1.0  0.14787386001243163  0.0910701193462344  0.9335571948475235  1.0000
  C   C32       1.0  0.6478918508199101  0.908946427802775  0.5664397861719125  1.0000
  C   C33       1.0  0.9041030383418017  0.7836883487891272  0.05882194918034143  1.0000
  C   C34       1.0  0.4041057759485582  0.21630413872321  0.4411810622586999  1.0000
  C   C35       1.0  0.09589968093713709  0.21633288691181457  0.941190016197453  1.0000
  C   C36       1.0  0.5959041290654951  0.7836833485931862  0.5588150684756246  1.0000
  C   C37       1.0  0.8852323734785442  0.7081617464445317  0.9935360904301691  1.0000
  C   C38       1.0  0.3852329963163754  0.2918348662366981  0.5064663367140199  1.0000
  C   C39       1.0  0.11476459746876341  0.2918491443149236  0.006479555515099408  1.0000
  C   C40       1.0  0.6147740339259611  0.70815641012166  0.4935214273601289  1.0000
  C   C41       1.0  0.7166100390841591  0.0840989680819675  0.010154913491462003  1.0000
  C   C42       1.0  0.2166199332707848  0.9159006032789705  0.4898451226931116  1.0000
  C   C43       1.0  0.28335243930337134  0.9159082171355524  0.9898475952842959  1.0000
  C   C44       1.0  0.7833669770050447  0.0840915763539201  0.5101519414312605  1.0000
  C   C45       1.0  0.6403486033922333  0.12402566486949952  0.9508061407021774  1.0000
  C   C46       1.0  0.14035270675118744  0.875970309895003  0.5491924948469562  1.0000
  C   C47       1.0  0.3596268093938519  0.8759702780884526  0.049189212609121645  1.0000
  C   C48       1.0  0.8596413893295176  0.12402468618386558  0.450804822220647  1.0000
  C   C49       1.0  0.6496285795008204  0.2811733896886111  0.037955482822361816  1.0000
  C   C50       1.0  0.14963859735321713  0.7188223470536813  0.46204141910737934  1.0000
  C   C51       1.0  0.3503612047215157  0.7188310145475897  0.9620375573337872  1.0000
  C   C52       1.0  0.850374182302673  0.2811576117580615  0.5379586451447838  1.0000
  S   S1        1.0  0.0021478855307889995  0.5685543549630198  0.6670100968755152  1.0000
  S   S2        1.0  0.5021571622049947  0.43144429784702965  0.8329918593129336  1.0000
  S   S3        1.0  0.9978648925025977  0.4315223311497507  0.33299148265523837  1.0000
  S   S4        1.0  0.49787717653396857  0.5684923893773545  0.16702634276587966  1.0000
  N   N1        1.0  0.6622662448191791  0.830794563575978  0.8254379387843188  1.0000
  N   N2        1.0  0.16227589289575656  0.16920677340451826  0.674559372169263  1.0000
  N   N3        1.0  0.33772785227166935  0.1691890912035419  0.17457782233113053  1.0000
  N   N4        1.0  0.8377397596262453  0.830813636382736  0.3254233254529809  1.0000
  N   N5        1.0  0.816946420741992  0.7520121988515881  0.9382756947437447  1.0000
  N   N6        1.0  0.31694338086679613  0.24798999007328604  0.5617228922306696  1.0000
  N   N7        1.0  0.1830261183999653  0.2479958735890833  0.06174021016424551  1.0000
  N   N8        1.0  0.68304209171432  0.752014426084962  0.4382670759549044  1.0000
  N   N9        1.0  0.720005267496397  0.18371581777623905  0.06411668210792952  1.0000
  N   N10       1.0  0.22001245213878212  0.8162837064699603  0.43588441174317444  1.0000
  N   N11       1.0  0.2799572107711441  0.8162885648267064  0.9358819898195493  1.0000
  N   N12       1.0  0.7799816439447155  0.18370941393024515  0.5641122247278504  1.0000
  N   N13       1.0  0.5995561106243911  0.24932756131399  0.9701445872442638  1.0000
  N   N14       1.0  0.09956288748439589  0.7506736242413368  0.5298545769654981  1.0000
  N   N15       1.0  0.40043654821720753  0.7506693163999998  0.029851874438193732  1.0000
  N   N16       1.0  0.9004455804782693  0.24931854137743414  0.47014607120656404  1.0000
  O   O1        1.0  0.08493766901356281  0.7686508329187164  0.8173346582888146  1.0000
  O   O2        1.0  0.5849291995020137  0.23135711833664627  0.6826629029119218  1.0000
  O   O3        1.0  0.9150506806948967  0.23121549385007265  0.18266390909267474  1.0000
  O   O4        1.0  0.4150577085551746  0.7687759136332061  0.317339638709683  1.0000
  O   O5        1.0  0.9786486396121391  0.4862685721319124  0.8472379166377098  1.0000
  O   O6        1.0  0.4786227772088409  0.5137259340131309  0.6527602332937406  1.0000
  O   O7        1.0  0.021277911864103802  0.5136849612017401  0.15279562612296627  1.0000
  O   O8        1.0  0.5213195781807514  0.48633962138660564  0.34720551883322065  1.0000
  O   O9        1.0  0.8329878405529102  0.6108668134792908  0.7132724949056881  1.0000
  O   O10       1.0  0.33299393592459847  0.38912764096739494  0.7867306968168395  1.0000
  O   O11       1.0  0.16688121089890734  0.3894254644404143  0.2865937677478884  1.0000
  O   O12       1.0  0.6668765754563779  0.6105765653850028  0.21341925520139438  1.0000
  O   O13       1.0  0.05549250483321801  0.4386642745991767  0.6761332806881556  1.0000
  O   O14       1.0  0.5555007526331223  0.5613412284780211  0.8238652714255823  1.0000
  O   O15       1.0  0.9444397991717536  0.561498031108755  0.3240706110569037  1.0000
  O   O16       1.0  0.44446315749861026  0.43848826683220216  0.17594355881673354  1.0000
  O   O17       1.0  0.9449300928132374  0.5720340976725495  0.5943569343024537  1.0000
  O   O18       1.0  0.4449510518374922  0.42796364741823123  0.9056426700941246  1.0000
  O   O19       1.0  0.05538161867706041  0.4277404317851676  0.4055791019341086  1.0000
  O   O20       1.0  0.5554123958008786  0.5722752202228919  0.09443391051406283  1.0000
  O   O21       1.0  0.16846789039060886  0.6556719313609919  0.6869993249153838  1.0000
  O   O22       1.0  0.6684583293914913  0.34431804308504615  0.8130016437863647  1.0000
  O   O23       1.0  0.8315535091827186  0.3444151987969947  0.31297297448566047  1.0000
  O   O24       1.0  0.3315702621512955  0.655581005708875  0.18703520179874294  1.0000
