data_image0
_chemical_formula_structural       Cu9H54C30N18O15
_chemical_formula_sum              "Cu9 H54 C30 N18 O15"
_cell_length_a       11.160397793617916
_cell_length_b       14.134459196160064
_cell_length_c       14.13465504706958
_cell_angle_alpha    113.31726473569088
_cell_angle_beta     105.23158763652867
_cell_angle_gamma    105.23130927778745

_space_group_name_H-M_alt    "P 1"
_space_group_IT_number       1

loop_
  _space_group_symop_operation_xyz
  'x, y, z'

loop_
  _atom_site_type_symbol
  _atom_site_label
  _atom_site_symmetry_multiplicity
  _atom_site_fract_x
  _atom_site_fract_y
  _atom_site_fract_z
  _atom_site_occupancy
  Cu  Cu1       1.0  0.5884828204778074  0.37999305976072867  0.49380378788524115  1.0000
  Cu  Cu2       1.0  0.20828336599652172  0.1137296584756839  0.6201386008893974  1.0000
  Cu  Cu3       1.0  0.09435655584066885  0.5062475354156816  0.8862537197209971  1.0000
  Cu  Cu4       1.0  0.09434740947871488  0.886242413025343  0.5062381012907549  1.0000
  Cu  Cu5       1.0  0.5884814148079442  0.49379978975186833  0.3799859375676105  1.0000
  Cu  Cu6       1.0  0.20828093258091931  0.6201455755689905  0.11373515300094526  1.0000
  Cu  Cu7       1.0  0.29174172599184084  0.38166312562598387  0.38166456077838956  1.0000
  Cu  Cu8       1.0  0.9093350878792991  1.7561002537000052e-06  0.6175247617233025  1.0000
  Cu  Cu9       1.0  0.9093290209187116  0.617505915413588  1.288752592560492e-06  1.0000
  H   H1        1.0  0.1288176844079345  0.1501259549335927  0.21571441509911435  1.0000
  H   H2        1.0  0.0435561518875431  0.24836845893267423  0.395352982144061  1.0000
  H   H3        1.0  0.052210589513954624  0.26370089838986394  0.5279930146050444  1.0000
  H   H4        1.0  0.006267865291022211  0.12838590090717622  0.4166287088951747  1.0000
  H   H5        1.0  0.5701770026578855  0.27620907807130385  0.7188079230616465  1.0000
  H   H6        1.0  0.5990815470619211  0.21679484078178754  0.5947944661865419  1.0000
  H   H7        1.0  0.47265911608865707  0.1294233915961698  0.6163835628157839  1.0000
  H   H8        1.0  0.24311575787803708  0.6242157729821683  0.6990075143280589  1.0000
  H   H9        1.0  0.9813592762848627  0.065321298169458  0.8452884776238317  1.0000
  H   H10       1.0  0.7951935266771527  0.14687497631790342  0.7523649887379448  1.0000
  H   H11       1.0  0.7880623669134365  0.2637953442747758  0.7363276796264129  1.0000
  H   H12       1.0  0.8773238983889301  0.28824285698580354  0.8719443613149662  1.0000
  H   H13       1.0  0.2935372271438581  0.44221228549946556  0.7235035911008437  1.0000
  H   H14       1.0  0.3815095025459527  0.3773939686047284  0.7828492515947755  1.0000
  H   H15       1.0  0.34241211069914357  0.4863624979755912  0.870261080532941  1.0000
  H   H16       1.0  0.6184092206632528  0.0746162640288475  0.375233715376602  1.0000
  H   H17       1.0  0.9147926117922722  0.780724513282209  0.9343820558405509  1.0000
  H   H18       1.0  0.6481816073243322  0.6054081138866323  0.853140579310988  1.0000
  H   H19       1.0  0.5244134876950709  0.4724762459614311  0.7364391229745165  1.0000
  H   H20       1.0  0.5889766687102025  0.5834945531021845  0.7116514355708644  1.0000
  H   H21       1.0  0.8516019062711917  0.28133377027518236  0.5579036729726707  1.0000
  H   H22       1.0  0.004234883524674208  0.4053629713298648  0.6224210848306767  1.0000
  H   H23       1.0  0.8562666469519371  0.383850573623242  0.5135402189382957  1.0000
  H   H24       1.0  0.5440167542868579  0.30075713462230874  0.9250862652637434  1.0000
  H   H25       1.0  0.9147695355487145  0.9343855350678183  0.7808521766743225  1.0000
  H   H26       1.0  0.648183064804698  0.8531350497870492  0.6053974508005593  1.0000
  H   H27       1.0  0.5244063850367765  0.7364311621886371  0.4724737838352481  1.0000
  H   H28       1.0  0.588979870594713  0.7116542562239873  0.5834928883957033  1.0000
  H   H29       1.0  0.8515821408686505  0.5578928620716894  0.2813175670471749  1.0000
  H   H30       1.0  0.0042097415988707095  0.6223980299254066  0.405334943682007  1.0000
  H   H31       1.0  0.8562466341412289  0.5135245261977275  0.38382936375754884  1.0000
  H   H32       1.0  0.5440139369885557  0.9250973180859319  0.30077760128580877  1.0000
  H   H33       1.0  0.128852428934394  0.2157382138409574  0.15014703782848923  1.0000
  H   H34       1.0  0.0435455838504026  0.3953560758565757  0.24837381374308612  1.0000
  H   H35       1.0  0.0522297887151594  0.5280064016559861  0.26371339755516476  1.0000
  H   H36       1.0  0.006263242003619504  0.416642122624971  0.12839604304229368  1.0000
  H   H37       1.0  0.5701712450283125  0.7187971011871426  0.27620455996714083  1.0000
  H   H38       1.0  0.5990805139643384  0.5947842943076437  0.21678741661695247  1.0000
  H   H39       1.0  0.4726535055924827  0.6163796295871363  0.1294238523573695  1.0000
  H   H40       1.0  0.24311941730687886  0.6990353702253032  0.624202692986884  1.0000
  H   H41       1.0  0.98134465540646  0.8452102847870793  0.0653139681890097  1.0000
  H   H42       1.0  0.7951775357113532  0.752368634950109  0.14686679975586955  1.0000
  H   H43       1.0  0.7880510595109483  0.7363223897563105  0.2637858243315634  1.0000
  H   H44       1.0  0.8773197116269386  0.8719445079399576  0.28823964843400746  1.0000
  H   H45       1.0  0.2935165681585232  0.7234885181999787  0.4421995478430603  1.0000
  H   H46       1.0  0.3814942267986368  0.7828410779489587  0.3773904821888505  1.0000
  H   H47       1.0  0.34239267404047513  0.8702505006825518  0.48635773862098813  1.0000
  H   H48       1.0  0.6184106590174065  0.3752065139432687  0.07460275685959765  1.0000
  H   H49       1.0  0.4387916318327001  0.2836386770196242  0.2836477685539264  1.0000
  H   H50       1.0  0.0953702184986938  0.5731399991548045  0.5731202449155858  1.0000
  H   H51       1.0  0.15450812276454678  0.9996036759236092  0.7162441281663944  1.0000
  H   H52       1.0  0.521558152152373  0.9999233207111472  0.42645134507507254  1.0000
  H   H53       1.0  0.15451289051188158  0.7162593604965862  0.9996160942009095  1.0000
  H   H54       1.0  0.521557082960605  0.42642832201671876  0.999913552084976  1.0000
  C   C1        1.0  0.07209356036271689  0.21841071772607276  0.4547213670865559  1.0000
  C   C2        1.0  0.2183592308265574  0.23971406756940897  0.49116365229676245  1.0000
  C   C3        1.0  0.4136611165801014  0.23819868124259358  0.5660404297878825  1.0000
  C   C4        1.0  0.520424384509127  0.2140139838016708  0.6276603019149503  1.0000
  C   C5        1.0  0.8533604198425522  0.2361589850771182  0.7819970661547442  1.0000
  C   C6        1.0  0.9782818116958223  0.25132694383322013  0.7606080424815712  1.0000
  C   C7        1.0  0.17484976716082198  0.3274717834330403  0.7616118944893838  1.0000
  C   C8        1.0  0.30573793976963504  0.41312284439649716  0.7856632692333673  1.0000
  C   C9        1.0  0.6171719176633629  0.5457362100944109  0.76389510407823  1.0000
  C   C10       1.0  0.7269978924059473  0.5092460326718325  0.7487258170971812  1.0000
  C   C11       1.0  0.8475440609935274  0.4341330776804  0.6725488714805292  1.0000
  C   C12       1.0  0.8928140112238052  0.3724957967672323  0.5868268243805586  1.0000
  C   C13       1.0  0.6171637824398103  0.7638882876743549  0.5457318919043457  1.0000
  C   C14       1.0  0.7269880201572221  0.7487158619488525  0.5092352040735904  1.0000
  C   C15       1.0  0.8475410113937656  0.6725409120023471  0.4341217350931642  1.0000
  C   C16       1.0  0.8928064139736944  0.5868148854795194  0.372480413216202  1.0000
  C   C17       1.0  0.07209417250169266  0.45472843299693  0.21841269350004905  1.0000
  C   C18       1.0  0.21835937270292047  0.4911613579698724  0.2397139417471123  1.0000
  C   C19       1.0  0.4136535916172831  0.5660331637439879  0.23819066671823194  1.0000
  C   C20       1.0  0.520415436296595  0.6276563808061794  0.21400629494259238  1.0000
  C   C21       1.0  0.8533494829197961  0.7819939458654871  0.23615149735275737  1.0000
  C   C22       1.0  0.978269903004694  0.7606044925253738  0.25131616919330896  1.0000
  C   C23       1.0  0.1748347426273895  0.7616087590216197  0.32746633249409024  1.0000
  C   C24       1.0  0.30572107608178795  0.7856490617768512  0.4131133971935622  1.0000
  C   C25       1.0  0.2070671775293889  0.6138065412146007  0.6137831297611667  1.0000
  C   C26       1.0  0.2698394067221416  0.5457154199590947  0.5457019009892079  1.0000
  C   C27       1.0  0.5928109146734712  0.9999413239147542  0.3859083073339276  1.0000
  C   C28       1.0  0.7235462776688307  0.00012225022044280013  0.4542464787980121  1.0000
  C   C29       1.0  0.5928020754373832  0.3858746936064676  0.9999238969279528  1.0000
  C   C30       1.0  0.7235419534099704  0.45423550989031014  0.00011318217805470893  1.0000
  N   N1        1.0  0.30617750388289977  0.2958855205538952  0.4633277987537807  1.0000
  N   N2        1.0  0.43002062918784395  0.2952501953640976  0.5110681564172878  1.0000
  N   N3        1.0  0.283032832609706  0.20303922216597667  0.5558658202198004  1.0000
  N   N4        1.0  0.009880610136519892  0.16726925818111482  0.704376226188593  1.0000
  N   N5        1.0  0.13421259240456607  0.2155314420257994  0.7046950830172206  1.0000
  N   N6        1.0  0.07950377643828693  0.35257192643547347  0.797048757461006  1.0000
  N   N7        1.0  0.8426273646864786  0.5371500979443765  0.832765016199488  1.0000
  N   N8        1.0  0.9187704920482813  0.4891994893236601  0.7844822540145272  1.0000
  N   N9        1.0  0.7270963132585351  0.444402240278933  0.6475199220881647  1.0000
  N   N10       1.0  0.8426246716766173  0.8327615120186992  0.537143612805984  1.0000
  N   N11       1.0  0.9187631010597312  0.7844738474236194  0.48919276484362206  1.0000
  N   N12       1.0  0.7270876120946284  0.6475170572589163  0.4443939687003178  1.0000
  N   N13       1.0  0.30617543872268976  0.46332452410742053  0.29588547535235665  1.0000
  N   N14       1.0  0.4300195398559268  0.5110614841563504  0.29524685282639496  1.0000
  N   N15       1.0  0.2830293479753081  0.5558593011336869  0.20303494268118524  1.0000
  N   N16       1.0  0.009875753487122746  0.7043838556135359  0.16726008162203246  1.0000
  N   N17       1.0  0.13420956653602903  0.7047014302585666  0.21552703759726194  1.0000
  N   N18       1.0  0.07948612155773573  0.7970374960888125  0.352563734878977  1.0000
  O   O1        1.0  0.44603894394752075  0.3487971876150696  0.34879635755312677  1.0000
  O   O2        1.0  0.7095974800495737  0.44602242053357327  0.44602250427119805  1.0000
  O   O3        1.0  0.1830278614012997  0.45260950291392293  0.4526145013838628  1.0000
  O   O4        1.0  0.3967104910065018  0.579767832611097  0.5797508280794188  1.0000
  O   O5        1.0  0.0955833133902431  0.2031025843403853  0.20309849558029208  1.0000
  O   O6        1.0  0.09665972292742708  2.0098139686000886e-06  0.6513494010250084  1.0000
  O   O7        1.0  0.2633324646636622  0.9998528792178263  0.5543071834248463  1.0000
  O   O8        1.0  0.729613786870523  0.00012851161844199994  0.5473866858303893  1.0000
  O   O9        1.0  0.8166244006238939  0.0002088589496978002  0.420381277924207  1.0000
  O   O10       1.0  0.8934445675140239  0.00030533248703789993  0.8024703573431465  1.0000
  O   O11       1.0  0.09665827279436463  0.6513569330314724  1.434413348919868e-06  1.0000
  O   O12       1.0  0.2633383440835928  0.5543253176858443  0.9998687884665498  1.0000
  O   O13       1.0  0.7296016171019203  0.5473735348290347  0.00012762865265597597  1.0000
  O   O14       1.0  0.8166290267718495  0.42037817930233234  0.00020399276126429675  1.0000
  O   O15       1.0  0.8934457696621577  0.802552828539241  0.0002919618251624317  1.0000
