data_image0
_chemical_formula_structural       Cs2H20C32S2O12F2
_chemical_formula_sum              "Cs2 H20 C32 S2 O12 F2"
_cell_length_a       6.258598750384565
_cell_length_b       7.847768193989576
_cell_length_c       16.22517039274521
_cell_angle_alpha    86.89998873939861
_cell_angle_beta     90.66773800693088
_cell_angle_gamma    95.75042178833367

_space_group_name_H-M_alt    "P 1"
_space_group_IT_number       1

loop_
  _space_group_symop_operation_xyz
  'x, y, z'

loop_
  _atom_site_type_symbol
  _atom_site_label
  _atom_site_symmetry_multiplicity
  _atom_site_fract_x
  _atom_site_fract_y
  _atom_site_fract_z
  _atom_site_occupancy
  Cs  Cs1       1.0  0.7487658029744395  0.25342580262253017  0.021377616931609094  1.0000
  Cs  Cs2       1.0  0.25127764766507  0.746619180590045  0.9786152604625753  1.0000
  H   H1        1.0  0.8173057643267896  0.9252975658959668  0.9056769449881727  1.0000
  H   H2        1.0  0.18271147191545364  0.07473552853097941  0.09432622555406307  1.0000
  H   H3        1.0  0.8934710689275531  0.01535869605810806  0.8047183396356202  1.0000
  H   H4        1.0  0.10654403740240068  0.9846619358216484  0.19528222742511755  1.0000
  H   H5        1.0  0.6908812584433759  0.8356106670529542  0.8164413203153698  1.0000
  H   H6        1.0  0.3091352645568931  0.16440663404249986  0.1835647813850159  1.0000
  H   H7        1.0  0.6526753482894775  0.9848310613751677  0.694293476161583  1.0000
  H   H8        1.0  0.3473124547490016  0.015151837819807694  0.3057109434808964  1.0000
  H   H9        1.0  0.4222198928498599  0.05324640900822429  0.5787406463662279  1.0000
  H   H10       1.0  0.5777509581476536  0.9467151446084185  0.4212641177980955  1.0000
  H   H11       1.0  0.05089938381895819  0.3302854718990531  0.7397306200598875  1.0000
  H   H12       1.0  0.9491122367536134  0.6697280064693201  0.2602655370094736  1.0000
  H   H13       1.0  0.1321395339868587  0.1757986537105225  0.32752539841703043  1.0000
  H   H14       1.0  0.86785546636154  0.8242017428016196  0.6724755126255884  1.0000
  H   H15       1.0  0.5464847941903769  0.40031180335080296  0.2644906107085774  1.0000
  H   H16       1.0  0.4535085842492919  0.599688318743375  0.7355115277823217  1.0000
  H   H17       1.0  0.4875725171595703  0.4430606601962309  0.41555497711665607  1.0000
  H   H18       1.0  0.5124034535659021  0.5569078107389132  0.5844480201677129  1.0000
  H   H19       1.0  0.8302607164630372  0.33644980278891273  0.652511802192464  1.0000
  H   H20       1.0  0.1697035471668329  0.6635075900756103  0.3474928966419383  1.0000
  C   C1        1.0  0.760278080510318  0.955038404652541  0.8430276985719727  1.0000
  C   C2        1.0  0.23973715953193417  0.04498567311941311  0.15697537532528116  1.0000
  C   C3        1.0  0.48128892610755963  0.11194914991687453  0.784243716433046  1.0000
  C   C4        1.0  0.5187193218631804  0.888061035740179  0.21575610397614745  1.0000
  C   C5        1.0  0.5195537713775876  0.05927016494048591  0.7053797960523482  1.0000
  C   C6        1.0  0.48043761935699075  0.9407210362016867  0.2946216287219414  1.0000
  C   C7        1.0  0.3874408907345596  0.09846390395892266  0.6386860365921831  1.0000
  C   C8        1.0  0.6125369728912062  0.9015111268647684  0.361316414565536  1.0000
  C   C9        1.0  0.21103431206984163  0.19308525992924067  0.6479163593898889  1.0000
  C   C10       1.0  0.7889504997919872  0.8069018761638064  0.35208438298285216  1.0000
  C   C11       1.0  0.17814086935043594  0.2503276886571939  0.7273933616787784  1.0000
  C   C12       1.0  0.8218640180803404  0.7496786936777013  0.27260517264718936  1.0000
  C   C13       1.0  0.30911373238192397  0.21277946980337967  0.7943174262701901  1.0000
  C   C14       1.0  0.6909046432501567  0.7872419980212584  0.20567883467909095  1.0000
  C   C15       1.0  0.0681742294461927  0.23431274994192106  0.5778103268812913  1.0000
  C   C16       1.0  0.931803522384989  0.7656597284123448  0.4221920985764242  1.0000
  C   C17       1.0  0.11400820242478459  0.19863231302071682  0.4920207295603375  1.0000
  C   C18       1.0  0.885968206984131  0.8013462720891554  0.5079829875956676  1.0000
  C   C19       1.0  0.9598016293201893  0.25708191736069336  0.4300168588089264  1.0000
  C   C20       1.0  0.040181281146459503  0.7428985631408198  0.569985046762099  1.0000
  C   C21       1.0  0.9917657142981823  0.23525151949059614  0.3458230235176386  1.0000
  C   C22       1.0  0.008224239209326394  0.764743427343731  0.6541784331116742  1.0000
  C   C23       1.0  0.8405440298559695  0.28476378031730587  0.2896641247253909  1.0000
  C   C24       1.0  0.1594509704924292  0.7152366161948365  0.7103367863172207  1.0000
  C   C25       1.0  0.6578595575818937  0.36003959493768883  0.3121100404851019  1.0000
  C   C26       1.0  0.3421301808313473  0.6399503426607609  0.6878907476725826  1.0000
  C   C27       1.0  0.6258011782467036  0.3836714428279535  0.39497835549605737  1.0000
  C   C28       1.0  0.37417675826613817  0.6163050556364168  0.6050228743684016  1.0000
  C   C29       1.0  0.7766940628901934  0.3312378570355037  0.45281601643867475  1.0000
  C   C30       1.0  0.22328202812474973  0.6687332620720525  0.5471863894740635  1.0000
  C   C31       1.0  0.8836532200604948  0.30834784634608065  0.5916613311828414  1.0000
  C   C32       1.0  0.116320857764677  0.6916140647005165  0.4083422122281775  1.0000
  S   S1        1.0  0.2653314136332199  0.30577399319142273  0.8904358852112964  1.0000
  S   S2        1.0  0.7347089000554944  0.6942722916378515  0.10955575749967038  1.0000
  O   O1        1.0  0.06451824521958122  0.38705219509343186  0.8803401199587453  1.0000
  O   O2        1.0  0.93552696953585  0.6129966041322915  0.11965341975204778  1.0000
  O   O3        1.0  0.2500752152392494  0.1643222415785884  0.954631582095125  1.0000
  O   O4        1.0  0.7499720480465014  0.8357374568506587  0.045366399462054084  1.0000
  O   O5        1.0  0.45454077905122137  0.43049092488118385  0.9009165468873944  1.0000
  O   O6        1.0  0.5455091408724327  0.569553656266649  0.09906460722572767  1.0000
  O   O7        1.0  0.5983710672924188  0.07001130153431492  0.8523794017534525  1.0000
  O   O8        1.0  0.4016458286381378  0.9300134334675365  0.14761997640900396  1.0000
  O   O9        1.0  0.2690482221897383  0.12448721028095384  0.4696838776475899  1.0000
  O   O10       1.0  0.7309311734678872  0.8754864359140413  0.5303198014983648  1.0000
  O   O11       1.0  0.7405475686247485  0.3562926603002126  0.534291003260897  1.0000
  O   O12       1.0  0.25941996923518923  0.6436662705259977  0.4657131047418375  1.0000
  F   F1        1.0  0.866803898676288  0.2554078977304143  0.2082358098011028  1.0000
  F   F2        1.0  0.1331982260949474  0.7446085284582082  0.7917628139349089  1.0000
