data_image0
_chemical_formula_structural       K2Ag2H48C24Cl4O12
_chemical_formula_sum              "K2 Ag2 H48 C24 Cl4 O12"
_cell_length_a       7.885299961008134
_cell_length_b       8.670820853422972
_cell_length_c       13.744592834386637
_cell_angle_alpha    102.81958596991855
_cell_angle_beta     89.99989127780108
_cell_angle_gamma    90.00014103754556

_space_group_name_H-M_alt    "P 1"
_space_group_IT_number       1

loop_
  _space_group_symop_operation_xyz
  'x, y, z'

loop_
  _atom_site_type_symbol
  _atom_site_label
  _atom_site_symmetry_multiplicity
  _atom_site_fract_x
  _atom_site_fract_y
  _atom_site_fract_z
  _atom_site_occupancy
  K   K1        1.0  0.49999857697445543  0.5000032434557723  0.5000013290743297  1.0000
  K   K2        1.0  1.3248681796000003e-06  0.9999989353699733  4.5532750902974997e-07  1.0000
  Ag  Ag1       1.0  0.999999847629574  0.5000013762620484  0.5000000670265123  1.0000
  Ag  Ag2       1.0  0.500001270657826  1.6822536182001684e-06  0.9999999602740814  1.0000
  H   H1        1.0  0.6963306347980023  0.5407844763890425  0.7520234878080316  1.0000
  H   H2        1.0  0.1963273887724029  0.9592104506080266  0.7479765863584475  1.0000
  H   H3        1.0  0.3036677873293741  0.4592160944042831  0.2479768905651127  1.0000
  H   H4        1.0  0.8036684969833416  0.040784206306767615  0.2520229676717918  1.0000
  H   H5        1.0  0.5418925510226841  0.6014452960912847  0.8486891748675021  1.0000
  H   H6        1.0  0.041888193051463  0.8985516856584114  0.6513098999944944  1.0000
  H   H7        1.0  0.4581084074734178  0.3985552713393403  0.1513090203580205  1.0000
  H   H8        1.0  0.9581076927080686  0.1014453356850424  0.34868925605779566  1.0000
  H   H9        1.0  0.41321360096706167  0.3343401292022037  0.7968178424990668  1.0000
  H   H10       1.0  0.9132135334744402  0.16565866241388252  0.7031826562991839  1.0000
  H   H11       1.0  0.5867873575279459  0.6656616232471038  0.20318197302629673  1.0000
  H   H12       1.0  0.0867886931993667  0.834340725608044  0.29681755720361014  1.0000
  H   H13       1.0  0.5750731037624633  0.28837198779108075  0.7031212754695415  1.0000
  H   H14       1.0  0.07507411407526379  0.2116249454770767  0.7968793351857996  1.0000
  H   H15       1.0  0.4249265865487855  0.7116297657787102  0.29687926777187096  1.0000
  H   H16       1.0  0.9249268444108836  0.7883708953397318  0.20312111142668243  1.0000
  H   H17       1.0  0.30331283663049646  0.1275606809764369  0.6678351765482303  1.0000
  H   H18       1.0  0.8033128941146116  0.372436706049406  0.832163791890359  1.0000
  H   H19       1.0  0.696688121859431  0.8724375242690244  0.3321648720863024  1.0000
  H   H20       1.0  0.19668806437899627  0.6275626797277599  0.16783496618190705  1.0000
  H   H21       1.0  0.19739575431790968  0.3020683239349681  0.651445175065831  1.0000
  H   H22       1.0  0.6973952956587863  0.19793121927160226  0.8485556652216744  1.0000
  H   H23       1.0  0.8026052041759113  0.6979334296360947  0.3485553681750631  1.0000
  H   H24       1.0  0.3026056628337414  0.80206935152426  0.1514447131504255  1.0000
  H   H25       1.0  0.15844489921248336  0.16480993815184058  0.47680914347553477  1.0000
  H   H26       1.0  0.6584446029458776  0.33519125519134013  0.023190998477609505  1.0000
  H   H27       1.0  0.8415547910999589  0.8351918142962022  0.5231906720503473  1.0000
  H   H28       1.0  0.3415538191863661  0.664810495011949  0.9768073616177375  1.0000
  H   H29       1.0  0.27928475081021276  0.9981469209144295  0.4945056617809271  1.0000
  H   H30       1.0  0.7792836293137879  0.5018546319987608  0.005495001476866427  1.0000
  H   H31       1.0  0.720716207684795  0.0018548315348852  0.5054941537444435  1.0000
  H   H32       1.0  0.22071859736022498  0.49814712381705567  0.9945069971945556  1.0000
  H   H33       1.0  0.5039041969994358  0.06234977478482051  0.3795189272444972  1.0000
  H   H34       1.0  0.0039038482657928995  0.437652291453567  0.12048077833444638  1.0000
  H   H35       1.0  0.496096761495572  0.9376519776644942  0.6204808882808663  1.0000
  H   H36       1.0  0.9960958420352952  0.5623423677085241  0.8795202311252979  1.0000
  H   H37       1.0  0.3025954600173931  0.010918450691569602  0.3206212200496664  1.0000
  H   H38       1.0  0.8025950593792002  0.48908184899769946  0.1793793667807932  1.0000
  H   H39       1.0  0.6974042302937489  0.9890821189812801  0.6793784306074288  1.0000
  H   H40       1.0  0.19740336274438866  0.5109163573669732  0.8206214095703075  1.0000
  H   H41       1.0  0.6480639107330431  0.8367156096097119  0.8053170802722818  1.0000
  H   H42       1.0  0.14805498258905908  0.6632804026026378  0.6946824705501484  1.0000
  H   H43       1.0  0.3519357795804864  0.1632849578196485  0.19468111495375948  1.0000
  H   H44       1.0  0.8519358304376821  0.3367154370822902  0.3053172483509599  1.0000
  H   H45       1.0  0.4383953276600606  0.806215332457448  0.7551385440958782  1.0000
  H   H46       1.0  0.9383875889262964  0.6937812609334699  0.7448614968411035  1.0000
  H   H47       1.0  0.5616056308335472  0.1937840533197175  0.24486021397638066  1.0000
  H   H48       1.0  0.061604492285617596  0.3062169443031238  0.255138551797053  1.0000
  C   C1        1.0  0.5694096976194273  0.594236811130749  0.7689944692371568  1.0000
  C   C2        1.0  0.0694063656078612  0.905759045065011  0.7310058736672927  1.0000
  C   C3        1.0  0.4305912608755874  0.40576494131856583  0.2310053462882067  1.0000
  C   C4        1.0  0.9305907883292689  0.09423561297280261  0.2689944080779583  1.0000
  C   C5        1.0  0.44691949070914205  0.339142474113693  0.719396849598759  1.0000
  C   C6        1.0  0.9469178884421935  0.16085520318870292  0.7806041844627456  1.0000
  C   C7        1.0  0.553082735968445  0.6608592783368864  0.2806029659260858  1.0000
  C   C8        1.0  0.05308180186527519  0.839144185952442  0.21939675675662326  1.0000
  C   C9        1.0  0.3224017066128653  0.242787428910475  0.6475726742840989  1.0000
  C   C10       1.0  0.8224013923364523  0.2572123629249604  0.8524273359858583  1.0000
  C   C11       1.0  0.6775992518821494  0.7572143235388396  0.3524271412412645  1.0000
  C   C12       1.0  0.17759956615607558  0.7427882078709017  0.14757304238624874  1.0000
  C   C13       1.0  0.28818752109741996  0.1161967282133389  0.476874771355483  1.0000
  C   C14       1.0  0.7881873538601241  0.38380472322213427  0.023124536703733194  1.0000
  C   C15       1.0  0.7118134373975947  0.8838050242359757  0.5231250441698805  1.0000
  C   C16       1.0  0.21181360463478424  0.6161958453302391  0.9768743862373198  1.0000
  C   C17       1.0  0.3706626508892795  0.1006950862873808  0.3763428371524853  1.0000
  C   C18       1.0  0.8706621950821327  0.39930652992556753  0.12365640341111828  1.0000
  C   C19       1.0  0.6293383076044419  0.8993054833867334  0.6236568135040912  1.0000
  C   C20       1.0  0.12933495885997098  0.6006904914191438  0.8763427526406531  1.0000
  C   C21       1.0  0.5686769379348461  0.7580347745220666  0.7489689102220112  1.0000
  C   C22       1.0  0.06866803350798278  0.7419610790823868  0.7510307055688655  1.0000
  C   C23       1.0  0.4313240205587689  0.2419646112550993  0.2510298478502548  1.0000
  C   C24       1.0  0.9313240476989576  0.258034762847295  0.24897046876277776  1.0000
  Cl  Cl1       1.0  0.8312018821202256  0.30783777002665147  0.5451203172896868  1.0000
  Cl  Cl2       1.0  0.33120359095784124  0.19216558771834263  0.954880180383938  1.0000
  Cl  Cl3       1.0  0.1687990763748957  0.6921651663196045  0.4548803908199872  1.0000
  Cl  Cl4       1.0  0.6687973675371734  0.8078361647309649  0.04511963514142539  1.0000
  O   O1        1.0  0.4459254678073278  0.4988248663160705  0.7067847596836359  1.0000
  O   O2        1.0  0.9459208646993033  0.0011704445687002005  0.7932166731705265  1.0000
  O   O3        1.0  0.554078027049158  0.5011757056040623  0.2932163464029571  1.0000
  O   O4        1.0  0.054077557422992584  0.9988265790207722  0.20678393831178002  1.0000
  O   O5        1.0  0.390333304718247  0.21961001614041464  0.5493343170102847  1.0000
  O   O6        1.0  0.8903314615488255  0.28038991141461633  0.9506656376666527  1.0000
  O   O7        1.0  0.609670190143106  0.7803917351896886  0.450664770798518  1.0000
  O   O8        1.0  0.10966949694369527  0.7196106593812387  0.049334740705447216  1.0000
  O   O9        1.0  0.364791208788276  0.25027712454838996  0.3488717327534445  1.0000
  O   O10       1.0  0.8647915347294841  0.24972329828128897  0.151128075461628  1.0000
  O   O11       1.0  0.6352097497054385  0.7497234451257313  0.6511279179031318  1.0000
  O   O12       1.0  0.13520308284747526  0.7502737230608928  0.8488710805911808  1.0000
