data_image0
_chemical_formula_structural       Cd2H48C74N4O18
_chemical_formula_sum              "Cd2 H48 C74 N4 O18"
_cell_length_a       8.984129878762413
_cell_length_b       10.128633771249826
_cell_length_c       19.933681873372613
_cell_angle_alpha    93.05370168735246
_cell_angle_beta     89.54317826928687
_cell_angle_gamma    104.47786271555944

_space_group_name_H-M_alt    "P 1"
_space_group_IT_number       1

loop_
  _space_group_symop_operation_xyz
  'x, y, z'

loop_
  _atom_site_type_symbol
  _atom_site_label
  _atom_site_symmetry_multiplicity
  _atom_site_fract_x
  _atom_site_fract_y
  _atom_site_fract_z
  _atom_site_occupancy
  Cd  Cd1       1.0  0.931950178126222  0.12154273955135152  0.4426279263682106  1.0000
  Cd  Cd2       1.0  0.06804755944527585  0.8784566511607036  0.557370939239263  1.0000
  H   H1        1.0  0.9187810924562925  0.0577346898120439  0.2670482193396282  1.0000
  H   H2        1.0  0.0812087667679222  0.9422606243292151  0.7329515017838304  1.0000
  H   H3        1.0  0.2954396168127644  0.5990401660114485  0.5347026952469633  1.0000
  H   H4        1.0  0.7045684984798514  0.4009570350357521  0.4653001447536411  1.0000
  H   H5        1.0  0.08587734336691  0.3864774360361807  0.5337459752384817  1.0000
  H   H6        1.0  0.9141282750370578  0.6135187663529037  0.4662563252159089  1.0000
  H   H7        1.0  0.8779549149167069  0.3686016043764724  0.6462624157381569  1.0000
  H   H8        1.0  0.12204737963764963  0.6313937832809985  0.353731822411909  1.0000
  H   H9        1.0  0.41239885096459267  0.4695222246846101  0.3343104474877947  1.0000
  H   H10       1.0  0.5876158925777518  0.5304708675434711  0.6656917814075456  1.0000
  H   H11       1.0  0.05742516652463799  0.726457860406889  0.7833942158076468  1.0000
  H   H12       1.0  0.9425718146544213  0.27353938102540104  0.2166090967834791  1.0000
  H   H13       1.0  0.4879851868576779  0.7423684225908715  0.6841834706724583  1.0000
  H   H14       1.0  0.5120153462243381  0.25764109503813154  0.3158192289500406  1.0000
  H   H15       1.0  0.41829262952301605  0.7834192531379784  0.5183052450432795  1.0000
  H   H16       1.0  0.5816966984662743  0.2165813195746367  0.4816886167932566  1.0000
  H   H17       1.0  0.897652096322453  0.39516272336828706  0.9023191719083457  1.0000
  H   H18       1.0  0.10234538635928907  0.604835670139117  0.09767865857429568  1.0000
  H   H19       1.0  0.633750867352724  0.9879216187314485  0.5152483641797616  1.0000
  H   H20       1.0  0.3662351640340162  0.012078993496849894  0.48474448638495465  1.0000
  H   H21       1.0  0.8246428307799009  0.8341004844293632  0.3481243790981239  1.0000
  H   H22       1.0  0.1753573059332965  0.16589579176127237  0.6518759016861465  1.0000
  H   H23       1.0  0.16154590681230024  0.8661535881370173  0.9732461005513641  1.0000
  H   H24       1.0  0.8384594220679347  0.13385696534292182  0.026755139061819505  1.0000
  H   H25       1.0  0.7851794096305511  0.4291055578349585  0.7591443306563049  1.0000
  H   H26       1.0  0.21482665088024086  0.5708990257836605  0.24084970130362393  1.0000
  H   H27       1.0  0.15892074410255932  0.6501145710611667  0.886656972075144  1.0000
  H   H28       1.0  0.8410821093444271  0.34988773077999713  0.1133475170290836  1.0000
  H   H29       1.0  0.6991860223247955  0.7337362263759032  0.9570098830361572  1.0000
  H   H30       1.0  0.30081729468442836  0.2662672037141434  0.0429901266108672  1.0000
  H   H31       1.0  0.4298941954392745  0.377507742204891  0.8462410568915217  1.0000
  H   H32       1.0  0.5701010291691732  0.6224946915499106  0.1537594014929979  1.0000
  H   H33       1.0  0.7291319325784543  0.9426437588242679  0.6843209561694579  1.0000
  H   H34       1.0  0.2708718344037849  0.057357576321756205  0.3156809967065257  1.0000
  H   H35       1.0  0.7750730883460619  0.6038230936509874  0.068261876282989  1.0000
  H   H36       1.0  0.2249305726123936  0.3961732859813125  0.9317333998654149  1.0000
  H   H37       1.0  0.19636210693566622  0.2624123838109327  0.3430970982641738  1.0000
  H   H38       1.0  0.8036410335498729  0.7375828318331371  0.6569041613183586  1.0000
  H   H39       1.0  0.6262667193781084  0.0007893809457399991  0.7958514377482686  1.0000
  H   H40       1.0  0.37372967655117867  0.9992171369325575  0.20414915053046911  1.0000
  H   H41       1.0  0.6208903788451322  0.617355479574769  0.3453814640651913  1.0000
  H   H42       1.0  0.3791234292959091  0.3826345138213513  0.6546221713864071  1.0000
  H   H43       1.0  0.8064947714611534  0.7715789095941403  0.1674692181846069  1.0000
  H   H44       1.0  0.1934953966676645  0.22841338387711824  0.8325284030891423  1.0000
  H   H45       1.0  0.19305806371147582  0.032491490919582616  0.0738178856267453  1.0000
  H   H46       1.0  0.8069427807603305  0.9675077411456598  0.9261870045089466  1.0000
  H   H47       1.0  0.5948067360080246  0.6750484843256075  0.7893181825054185  1.0000
  H   H48       1.0  0.40519467266879167  0.3249600427820383  0.21068298354011722  1.0000
  C   C1        1.0  0.8648823745387376  0.11443927699554732  0.5910656369007086  1.0000
  C   C2        1.0  0.1351208389318685  0.8855519326869938  0.4089319863816455  1.0000
  C   C3        1.0  0.26676018790496403  0.737898210857196  0.726964135471782  1.0000
  C   C4        1.0  0.733244224544194  0.2621092557038907  0.2730380093720228  1.0000
  C   C5        1.0  0.3753997234572708  0.5533725228386784  0.43420666715194756  1.0000
  C   C6        1.0  0.6246116694676757  0.4466246267797231  0.5657976854461211  1.0000
  C   C7        1.0  0.2806624299941234  0.5280236603826937  0.49078721005587067  1.0000
  C   C8        1.0  0.7193423099192132  0.4719694789137704  0.5092149929778529  1.0000
  C   C9        1.0  0.16273681170199691  0.4095798299387355  0.49100200582971343  1.0000
  C   C10       1.0  0.8372630132107658  0.5904154133079089  0.5089987438066359  1.0000
  C   C11       1.0  0.824111177267298  0.2885368230248559  0.6795231080545889  1.0000
  C   C12       1.0  0.17588807847009486  0.7114636549669269  0.3204727849461122  1.0000
  C   C13       1.0  0.49990127036009807  0.6796439270811873  0.43201837409860383  1.0000
  C   C14       1.0  0.5001016750421884  0.32035438071155653  0.5679819773797944  1.0000
  C   C15       1.0  0.34526296862704  0.45535872330261645  0.3802337826501585  1.0000
  C   C16       1.0  0.6547387106032901  0.5446354408010735  0.6197689455622282  1.0000
  C   C17       1.0  0.5541019543058496  0.561741558821339  0.9020256306505203  1.0000
  C   C18       1.0  0.4458979522794736  0.4382618393057173  0.0979763756785204  1.0000
  C   C19       1.0  0.17409012094292117  0.712879483110136  0.7842695341096899  1.0000
  C   C20       1.0  0.8259115207576003  0.28712597567507453  0.2157315373886988  1.0000
  C   C21       1.0  0.4167240639312411  0.7208238155513981  0.7287687445397779  1.0000
  C   C22       1.0  0.5832803324435147  0.2791876927105577  0.2712355326272871  1.0000
  C   C23       1.0  0.8095793817579137  0.1518232480851083  0.6582326505294205  1.0000
  C   C24       1.0  0.1904182366112296  0.8481792824280636  0.3417633016713708  1.0000
  C   C25       1.0  0.5056402630180232  0.7878084854337217  0.4797428940375497  1.0000
  C   C26       1.0  0.49435528656943023  0.21218688595021717  0.5202533321739935  1.0000
  C   C27       1.0  0.8011262719712277  0.4419838495084535  0.9021954277728097  1.0000
  C   C28       1.0  0.1988745860897936  0.5580186057496945  0.0978030396767195  1.0000
  C   C29       1.0  0.6260806766902292  0.9037405057694342  0.4781399609194353  1.0000
  C   C30       1.0  0.37391304044572143  0.09626001028456699  0.521855416388064  1.0000
  C   C31       1.0  0.7328650139950881  0.817775708610462  0.3852928515155298  1.0000
  C   C32       1.0  0.2671364103454721  0.18221745828857652  0.6147088415720177  1.0000
  C   C33       1.0  0.08465710583805482  0.8469536054413925  0.01611620757380192  1.0000
  C   C34       1.0  0.9153439093657667  0.1530457338418643  0.9838841706311284  1.0000
  C   C35       1.0  0.7712468118637901  0.3225980479313932  0.7423494278898985  1.0000
  C   C36       1.0  0.22875583822310128  0.6774065037242494  0.2576466007520466  1.0000
  C   C37       1.0  0.2300101089410802  0.6709208829966755  0.8420869606957168  1.0000
  C   C38       1.0  0.7699920615091855  0.32908658211094627  0.157915679726699  1.0000
  C   C39       1.0  0.6899537671719216  0.6324931774931244  0.9336933077202331  1.0000
  C   C40       1.0  0.3100396814850583  0.3675031181633202  0.06630745714860349  1.0000
  C   C41       1.0  0.5370418759205081  0.432214986223144  0.8707000254146422  1.0000
  C   C42       1.0  0.46295668033511833  0.5677833782282137  0.1292988105927861  1.0000
  C   C43       1.0  0.38061782551910284  0.6563949928037474  0.8432624143207548  1.0000
  C   C44       1.0  0.6193893766489184  0.3436144934463385  0.1567403025428149  1.0000
  C   C45       1.0  0.2073761249848048  0.7845822336384816  0.6654409566076039  1.0000
  C   C46       1.0  0.7926225913094599  0.21541706845196276  0.3345614211528556  1.0000
  C   C47       1.0  0.9646444267583333  0.7285642668085116  0.014967934713496306  1.0000
  C   C48       1.0  0.035355005092092995  0.2714331071214957  0.9850293677169759  1.0000
  C   C49       1.0  0.7389762127262287  0.0486742381682745  0.7008356465930204  1.0000
  C   C50       1.0  0.261025813759801  0.951328247599392  0.2991613197530966  1.0000
  C   C51       1.0  0.8131493277446394  0.5710147491099917  0.9332350050513654  1.0000
  C   C52       1.0  0.18685182563176989  0.42898146228525746  0.0667677852346173  1.0000
  C   C53       1.0  0.8648760768518641  0.698850798758137  0.069480158494784  1.0000
  C   C54       1.0  0.1351227722339701  0.3011485867240964  0.9305187099862025  1.0000
  C   C55       1.0  0.22513449931346943  0.33930356362304787  0.3845266240072148  1.0000
  C   C56       1.0  0.7748724256880948  0.6606895413875477  0.6154765874248156  1.0000
  C   C57       1.0  0.6821409640367619  0.0804478889580125  0.7627984356810629  1.0000
  C   C58       1.0  0.3178547051636967  0.9195556611325625  0.2371980445718975  1.0000
  C   C59       1.0  0.6169375530260127  0.6972305619266024  0.3836983270720111  1.0000
  C   C60       1.0  0.38306997371035584  0.3027605434448759  0.6163028169838682  1.0000
  C   C61       1.0  0.6617435701075323  0.37407778092855176  0.8718487056784242  1.0000
  C   C62       1.0  0.3382532918691652  0.6259226003048609  0.1281516935060125  1.0000
  C   C63       1.0  0.8831505929845918  0.7917695371734226  0.1245866996179075  1.0000
  C   C64       1.0  0.11684903684491844  0.20822879822188875  0.8754131419143149  1.0000
  C   C65       1.0  0.10175280892972431  0.9385150962617316  0.0717298489167035  1.0000
  C   C66       1.0  0.8982491416754073  0.061487341853478504  0.9282691227319758  1.0000
  C   C67       1.0  0.47572172180888844  0.6817717410166182  0.7868563387028117  1.0000
  C   C68       1.0  0.5242848567582641  0.3182356793454915  0.21314731586492996  1.0000
  C   C69       1.0  0.6996814684041156  0.21770953600797327  0.7836479895162256  1.0000
  C   C70       1.0  0.3003145695074565  0.7822950827659199  0.21634651790773063  1.0000
  C   C71       1.0  0.00023084207825969916  0.9132148760245684  0.1259702819204875  1.0000
  C   C72       1.0  0.999768749810805  0.08678343554452539  0.874030562263016  1.0000
  C   C73       1.0  0.015866004350179704  0.0178192042019134  0.1827287693062303  1.0000
  C   C74       1.0  0.984124969284196  0.9821801583235019  0.8172725856883645  1.0000
  N   N1        1.0  0.1350759916809068  0.3165091303911893  0.4390632504069245  1.0000
  N   N2        1.0  0.8649252594424582  0.6834911941836027  0.5609386642484822  1.0000
  N   N3        1.0  0.7386326623115026  0.9193323001567393  0.4322570275594657  1.0000
  N   N4        1.0  0.261362345347635  0.0806691602196352  0.5677413930489408  1.0000
  O   O1        1.0  0.26383709150011475  0.7661610321470819  0.6083759714175656  1.0000
  O   O2        1.0  0.7361641435488481  0.23384333412857933  0.3916280755611083  1.0000
  O   O3        1.0  0.8868029723970636  0.20440804509357238  0.5467412033890611  1.0000
  O   O4        1.0  0.11320440009232868  0.7955902298667681  0.45325966090903347  1.0000
  O   O5        1.0  0.9554426425764293  0.6377377874138476  0.9598219865541964  1.0000
  O   O6        1.0  0.0445594597904986  0.362264746006268  0.0401729744893657  1.0000
  O   O7        1.0  0.8821392250024688  0.9941853557935403  0.5801665652648467  1.0000
  O   O8        1.0  0.1178516071528506  0.005801762498151695  0.4198334060163589  1.0000
  O   O9        1.0  0.4303338503003502  0.6212714154415124  0.9037254609605085  1.0000
  O   O10       1.0  0.569668279313639  0.37873197222589977  0.0962765511155652  1.0000
  O   O11       1.0  0.09550769520818382  0.84395356724562  0.6724377166211679  1.0000
  O   O12       1.0  0.904496207461456  0.15605190490617096  0.3275623579729654  1.0000
  O   O13       1.0  0.6408132787036181  0.24050440197817843  0.8458971783723115  1.0000
  O   O14       1.0  0.35918810562196063  0.7595073244961554  0.1540985676383357  1.0000
  O   O15       1.0  0.11242051249026731  0.12874994119959376  0.1838798090165028  1.0000
  O   O16       1.0  0.8875644915398696  0.8712515662451639  0.8161185857302939  1.0000
  O   O17       1.0  0.9124261159852483  0.9797917943607362  0.231111181473274  1.0000
  O   O18       1.0  0.08755674338230791  0.020202506302346997  0.7688894925868366  1.0000
