data_image0
_chemical_formula_structural       Cu4H32C20N12Cl4O24
_chemical_formula_sum              "Cu4 H32 C20 N12 Cl4 O24"
_cell_length_a       7.136447929217489
_cell_length_b       8.566324248489238
_cell_length_c       16.811271479743848
_cell_angle_alpha    90.00728246761302
_cell_angle_beta     89.99611603964983
_cell_angle_gamma    104.16077846665853

_space_group_name_H-M_alt    "P 1"
_space_group_IT_number       1

loop_
  _space_group_symop_operation_xyz
  'x, y, z'

loop_
  _atom_site_type_symbol
  _atom_site_label
  _atom_site_symmetry_multiplicity
  _atom_site_fract_x
  _atom_site_fract_y
  _atom_site_fract_z
  _atom_site_occupancy
  Cu  Cu1       1.0  0.23528682892752067  0.878178697915466  0.20295090053742365  1.0000
  Cu  Cu2       1.0  0.26479919613137776  0.6212945173144958  0.7027746395909416  1.0000
  Cu  Cu3       1.0  0.7648140742715341  0.12129993970859228  0.797225310216497  1.0000
  Cu  Cu4       1.0  0.735299561405462  0.3781720396377466  0.2970625125677983  1.0000
  H   H1        1.0  0.6586354226235471  0.987465090505957  0.16321727275094125  1.0000
  H   H2        1.0  0.8412667071588301  0.5121395912343586  0.6630227872811715  1.0000
  H   H3        1.0  0.3412725666284332  0.012157198856101602  0.836977980296396  1.0000
  H   H4        1.0  0.1586561399898159  0.4875091264744214  0.3367626223354634  1.0000
  H   H5        1.0  0.9648543621433279  0.8707709295819798  0.3052381863644981  1.0000
  H   H6        1.0  0.5354379885538023  0.6278707925065349  0.8048643641259972  1.0000
  H   H7        1.0  0.0354390047269035  0.1278473902553543  0.6951134711739895  1.0000
  H   H8        1.0  0.46483641746085175  0.370730615715523  0.19479965924481485  1.0000
  H   H9        1.0  0.14307855534296732  0.7931595114159367  0.337338468757622  1.0000
  H   H10       1.0  0.3586032943854107  0.7073091760874136  0.8367326377756327  1.0000
  H   H11       1.0  0.8585894084190073  0.207258577263346  0.6632642495182708  1.0000
  H   H12       1.0  0.6430201414024382  0.293085960183923  0.16266434173002148  1.0000
  H   H13       1.0  0.2201656592055912  0.026374250794944498  0.4135345221754888  1.0000
  H   H14       1.0  0.27819388619286667  0.4753189550705414  0.9135723202240269  1.0000
  H   H15       1.0  0.7781892572299893  0.9752403869560592  0.5864216926858887  1.0000
  H   H16       1.0  0.7201403246163096  0.5262872961166354  0.08648501729413029  1.0000
  H   H17       1.0  0.1106012273463577  0.12580981458782506  0.3408964014127207  1.0000
  H   H18       1.0  0.38846185173117936  0.3741396087727935  0.8419529925861369  1.0000
  H   H19       1.0  0.8884794521238318  0.8740991368087165  0.6580282967444475  1.0000
  H   H20       1.0  0.610584329318236  0.6257527832428167  0.15913216080077316  1.0000
  H   H21       1.0  0.8349843407972274  0.9285263296759255  0.039792052252224194  1.0000
  H   H22       1.0  0.6651289055290519  0.5715736326458868  0.539672515832933  1.0000
  H   H23       1.0  0.16511090303059464  0.07163888632210562  0.9603241021496272  1.0000
  H   H24       1.0  0.3350224467390603  0.4286059160395724  0.4601747709956995  1.0000
  H   H25       1.0  0.558749675443785  0.732371584671398  0.9466026877438976  1.0000
  H   H26       1.0  0.9414970779243106  0.7683287462571967  0.4467467992765819  1.0000
  H   H27       1.0  0.44142698341995157  0.2683860952948365  0.05326900590231529  1.0000
  H   H28       1.0  0.0587988799283821  0.23241069999252056  0.5533586637886998  1.0000
  H   H29       1.0  0.21997164244556439  0.699477923506599  0.034113944683106495  1.0000
  H   H30       1.0  0.28010194820096507  0.8008756201542583  0.5343266057049121  1.0000
  H   H31       1.0  0.7800778667645218  0.30092100881548595  0.9657030139503462  1.0000
  H   H32       1.0  0.7200295816179079  0.19947383552917597  0.46584903806073186  1.0000
  C   C1        1.0  0.6811431219965202  0.8833824742117073  0.04916567926492379  1.0000
  C   C2        1.0  0.8189548237974975  0.6167040153889045  0.5491160257285514  1.0000
  C   C3        1.0  0.3189229958476858  0.11676953244040789  0.9508921809045956  1.0000
  C   C4        1.0  0.18119355469272594  0.3834418203687164  0.4508079942794296  1.0000
  C   C5        1.0  0.5378356102522518  0.7834819326950964  0.0037092798779312  1.0000
  C   C6        1.0  0.9623223261807966  0.7169011849553398  0.5037869150673017  1.0000
  C   C7        1.0  0.46226066241956704  0.21695668673444152  0.9962254574947096  1.0000
  C   C8        1.0  0.03789959025017002  0.28352640293307024  0.49625370148067544  1.0000
  C   C9        1.0  0.36664435290725805  0.7651850958189214  0.0476406062058459  1.0000
  C   C10       1.0  0.13344583717906747  0.735028177582173  0.5477407928208107  1.0000
  C   C11       1.0  0.6334187891138612  0.23507048840190242  0.9522786598831627  1.0000
  C   C12       1.0  0.8666896763342822  0.2652068288496068  0.45231766388491207  1.0000
  C   C13       1.0  0.3967847466388791  0.11715813395762349  0.311950107168613  1.0000
  C   C14       1.0  0.1029762938052556  0.38289420607945596  0.8119459758849885  1.0000
  C   C15       1.0  0.6029889945971902  0.8828534094585123  0.6880476739082866  1.0000
  C   C16       1.0  0.8967945969054937  0.6171077083828677  0.18807440880237886  1.0000
  C   C17       1.0  0.20240181620336983  0.041352108505478186  0.3494068610105927  1.0000
  C   C18       1.0  0.29694872751372264  0.4590949678856903  0.8495971827500525  1.0000
  C   C19       1.0  0.7969533814859985  0.9590539660921493  0.6503904781664218  1.0000
  C   C20       1.0  0.7023906401122203  0.5413003392365496  0.1506147590925053  1.0000
  N   N1        1.0  0.40393850429448724  0.848728744041658  0.115965396789008  1.0000
  N   N2        1.0  0.09604908740815421  0.6511462482265101  0.6159476053266671  1.0000
  N   N3        1.0  0.5960332557030271  0.1511800994054937  0.8840686632790378  1.0000
  N   N4        1.0  0.9039470538588786  0.348736046965101  0.38400436574487157  1.0000
  N   N5        1.0  0.5953913646733043  0.9195004617213769  0.1157787543639657  1.0000
  N   N6        1.0  0.9046457568048824  0.5803075189940613  0.6156719301561822  1.0000
  N   N7        1.0  0.40462772203375863  0.0803504971272702  0.8843320373737453  1.0000
  N   N8        1.0  0.095417067030958  0.4195349102144945  0.3842009250720294  1.0000
  N   N9        1.0  0.11265235770158454  0.8895211913260967  0.3088212917570202  1.0000
  N   N10       1.0  0.38774357485619504  0.6100384696187504  0.8085687845280276  1.0000
  N   N11       1.0  0.8877513356818271  0.1100099633279399  0.6914197537943422  1.0000
  N   N12       1.0  0.6126204468713183  0.38946739977746603  0.19119817408513026  1.0000
  Cl  Cl1       1.0  0.04254865952322011  0.2281454524480324  0.1565678310398937  1.0000
  Cl  Cl2       1.0  0.45759761281181005  0.2715477815441504  0.6567520825013559  1.0000
  Cl  Cl3       1.0  0.9575651009974849  0.7715896862705024  0.8432532689755021  1.0000
  Cl  Cl4       1.0  0.5424978082360284  0.7282344058402754  0.3434413885246456  1.0000
  O   O1        1.0  0.5053041928527406  0.2361186334165097  0.34726562171258013  1.0000
  O   O2        1.0  0.9944990054063042  0.26396521435748355  0.8472853141301044  1.0000
  O   O3        1.0  0.4945187148863966  0.763921736697519  0.6527119350666055  1.0000
  O   O4        1.0  0.00531038855667993  0.7360342311033252  0.1527546996097726  1.0000
  O   O5        1.0  0.4377119005728076  0.06132354048413903  0.2454554099803019  1.0000
  O   O6        1.0  0.06224858887487269  0.4383723101610286  0.7453371032107013  1.0000
  O   O7        1.0  0.5622576035186099  0.9383456169244937  0.7546631094720267  1.0000
  O   O8        1.0  0.9376616713650563  0.5612812603126328  0.25457322293618734  1.0000
  O   O9        1.0  0.8833132240551294  0.1525585376494547  0.21060628802550946  1.0000
  O   O10       1.0  0.6178110733480722  0.3472135047961373  0.7103335467334657  1.0000
  O   O11       1.0  0.11778938062391829  0.8471846914213614  0.7896680653352632  1.0000
  O   O12       1.0  0.38330628143602036  0.6526031119081706  0.2893816601332304  1.0000
  O   O13       1.0  0.19576433867027992  0.3316883290949236  0.2039383979972129  1.0000
  O   O14       1.0  0.3049519865155119  0.16861236404817967  0.7046170364979429  1.0000
  O   O15       1.0  0.8049115100315518  0.668620401344086  0.7953967290907045  1.0000
  O   O16       1.0  0.6957399245965733  0.8317699722432933  0.2960772998794425  1.0000
  O   O17       1.0  0.9717428868407227  0.3237310722613386  0.09724615791253649  1.0000
  O   O18       1.0  0.527091081468349  0.17540436362839526  0.5973062910904119  1.0000
  O   O19       1.0  0.02702504480552651  0.6754762677478469  0.9027069985959385  1.0000
  O   O20       1.0  0.4716265933138786  0.8238367958202986  0.4027485847106362  1.0000
  O   O21       1.0  0.11566486125897062  0.10259139363598987  0.11760490796496008  1.0000
  O   O22       1.0  0.38427556810422914  0.3970860072485252  0.6178922208303843  1.0000
  O   O23       1.0  0.8842624146610021  0.8971717374577253  0.8821037710732326  1.0000
  O   O24       1.0  0.6155930490601094  0.602715831100312  0.3824071354433655  1.0000
