data_image0
_chemical_formula_structural       Al6H30C76N2Cl4O28
_chemical_formula_sum              "Al6 H30 C76 N2 Cl4 O28"
_cell_length_a       12.51666305129367
_cell_length_b       12.484814789698653
_cell_length_c       28.757874744547582
_cell_angle_alpha    90.05563205150081
_cell_angle_beta     90.07112466512619
_cell_angle_gamma    60.84144111786588

_space_group_name_H-M_alt    "P 1"
_space_group_IT_number       1

loop_
  _space_group_symop_operation_xyz
  'x, y, z'

loop_
  _atom_site_type_symbol
  _atom_site_label
  _atom_site_symmetry_multiplicity
  _atom_site_fract_x
  _atom_site_fract_y
  _atom_site_fract_z
  _atom_site_occupancy
  Al  Al1       1.0  0.41816260996361626  0.4068468560481975  0.5002914141865277  1.0000
  Al  Al2       1.0  0.42223514371567467  0.6625412828011791  0.5009332777372961  1.0000
  Al  Al3       1.0  0.6630521612752742  0.4292963597511419  0.49983291422561393  1.0000
  Al  Al4       1.0  0.9231044162809638  0.9252666673504422  0.9996269309997035  1.0000
  Al  Al5       1.0  0.671239968794751  0.9158751659471847  0.9995759801144358  1.0000
  Al  Al6       1.0  0.9061279786553557  0.6764877641198768  0.9999614715652783  1.0000
  H   H1        1.0  0.4669051763099572  0.8204871037023838  0.780757680034796  1.0000
  H   H2        1.0  0.48022095264979464  0.3212663339947924  0.7103675810157952  1.0000
  H   H3        1.0  0.19070850422420457  0.4864569462192065  0.7039521026739592  1.0000
  H   H4        1.0  0.15288247138386885  0.49482617137054064  0.7895276536768563  1.0000
  H   H5        1.0  0.16888787471427236  0.8420501401327772  0.7111940328012311  1.0000
  H   H6        1.0  0.8501362839172231  0.6394214495180749  0.212942302456824  1.0000
  H   H7        1.0  0.47812796174942224  0.7094035055708121  0.19777181721897114  1.0000
  H   H8        1.0  0.4632444151656618  0.6971268621597916  0.2836111631707965  1.0000
  H   H9        1.0  0.5910038502796909  0.36460403774153605  0.2839719384460793  1.0000
  H   H10       1.0  0.5967395098767411  0.8729121736322158  0.7123695303195847  1.0000
  H   H11       1.0  0.5834874658079485  0.3373341448578345  0.198295738266701  1.0000
  H   H12       1.0  0.18989495113616772  0.8338656868644138  0.2876806107730232  1.0000
  H   H13       1.0  0.15325475807769334  0.8339792837877557  0.2022432609833587  1.0000
  H   H14       1.0  0.16191173959404637  0.5040129722758098  0.3017870005418999  1.0000
  H   H15       1.0  0.741845672046118  0.47169953780412044  0.78591686815723  1.0000
  H   H16       1.0  0.8706721844585988  0.5272417197478846  0.7182549782512098  1.0000
  H   H17       1.0  0.8128624657643398  0.7477476812922461  0.7659784956744814  1.0000
  H   H18       1.0  0.86464161315196  0.05802120333559911  0.7038411634474004  1.0000
  H   H19       1.0  0.8658240995166583  0.022092957826267006  0.7891601415511644  1.0000
  H   H20       1.0  0.4807552876577149  0.2837637864556157  0.7956737211263629  1.0000
  H   H21       1.0  0.8486436297431011  0.8677759754350803  0.28855598069796434  1.0000
  H   H22       1.0  0.9505312968134869  0.9573921515436016  0.34758860091406524  1.0000
  H   H23       1.0  0.9132888480278682  0.8414471172721889  0.3636724497617294  1.0000
  H   H24       1.0  0.8122085347872744  0.9968980638584597  0.37793440875343265  1.0000
  H   H25       1.0  0.4495243437291452  0.6265698845328274  0.7062784006766024  1.0000
  H   H26       1.0  0.40045725298814716  0.5208257133238805  0.7630895324068377  1.0000
  H   H27       1.0  0.40756334355198487  0.6419484298823619  0.793597037678076  1.0000
  H   H28       1.0  0.5337995006933909  0.4899708713767554  0.7949279848743132  1.0000
  H   H29       1.0  0.32176718316180336  0.3001706446964576  0.4712153070553029  1.0000
  H   H30       1.0  0.010577322061230602  0.04115911069754221  0.02763770045229561  1.0000
  C   C1        1.0  0.2884873405773831  0.6170243365375683  0.5671106426262469  1.0000
  C   C2        1.0  0.6355138057329056  0.6432268508351912  0.6116333529265674  1.0000
  C   C3        1.0  0.7488445219004659  0.7141835801400237  0.7581325439401213  1.0000
  C   C4        1.0  0.6764247192102317  0.6837240192905301  0.7968044636653744  1.0000
  C   C5        1.0  0.7810159783752438  0.5920324689596727  0.7323345744754307  1.0000
  C   C6        1.0  0.6611088501235187  0.6619471130193945  0.7017062796674337  1.0000
  C   C7        1.0  0.7096048853623744  0.5612230294009068  0.7695484993186169  1.0000
  C   C8        1.0  0.5892132072958989  0.6303063371190802  0.7404434639649509  1.0000
  C   C9        1.0  0.6863040845790779  0.6947281160438481  0.8453281801018946  1.0000
  C   C10       1.0  0.6487646489997656  0.6516930523414219  0.6533257632047196  1.0000
  C   C11       1.0  0.6609750214354692  0.23718091706858507  0.6120210033081435  1.0000
  C   C12       1.0  0.6112876529397654  0.620620910894374  0.5650580955648792  1.0000
  C   C13       1.0  0.7810364520356928  0.10681535592764393  0.7241535427997974  1.0000
  C   C14       1.0  0.7816439913233708  0.08656485104685882  0.7715539380152734  1.0000
  C   C15       1.0  0.5641361582875463  0.23455293645108102  0.7752799219823745  1.0000
  C   C16       1.0  0.5636844626234849  0.2551534622800062  0.727926291379994  1.0000
  C   C17       1.0  0.6720314243099426  0.191288967268008  0.7016363484526096  1.0000
  C   C18       1.0  0.6730412582066876  0.14994962635525874  0.797791509407901  1.0000
  C   C19       1.0  0.6758954713214393  0.12660835041799606  0.8459459818047179  1.0000
  C   C20       1.0  0.6691911692017457  0.21398237541551873  0.6534251475356995  1.0000
  C   C21       1.0  0.6847290192994965  0.1016990905635708  0.8872084305907322  1.0000
  C   C22       1.0  0.23693926295799633  0.6451962459575142  0.6131245506058035  1.0000
  C   C23       1.0  0.6330590318866812  0.28590365696215514  0.5656871152080996  1.0000
  C   C24       1.0  0.17685152965660217  0.5656525809951561  0.724418940318948  1.0000
  C   C25       1.0  0.1560560053920527  0.5703730124387647  0.7718569668823465  1.0000
  C   C26       1.0  0.14460316142359614  0.7700733243715381  0.7758600072042654  1.0000
  C   C27       1.0  0.1647973901841199  0.7663204187420121  0.7282459876224224  1.0000
  C   C28       1.0  0.1819112039357479  0.6637619509477162  0.7020304760563079  1.0000
  C   C29       1.0  0.1399641035055409  0.6718815534958795  0.7988168833778461  1.0000
  C   C30       1.0  0.11899525682860454  0.6755512537672674  0.8470630282587878  1.0000
  C   C31       1.0  0.20890039212221725  0.6566090004746741  0.6540781069382504  1.0000
  C   C32       1.0  0.0978744057943572  0.6817553733902744  0.8885957782718847  1.0000
  C   C33       1.0  0.6280962881657075  0.6463864916307075  0.3877539343228094  1.0000
  C   C34       1.0  0.2822784120363195  0.6253981723034984  0.4353555749551604  1.0000
  C   C35       1.0  0.7547228132199137  0.6495303316913805  0.2762287309134095  1.0000
  C   C36       1.0  0.7649028855967471  0.6533816320570126  0.2282604675487363  1.0000
  C   C37       1.0  0.5556131817225137  0.6920039409938852  0.2199053587632775  1.0000
  C   C38       1.0  0.5471877760685829  0.6858006477980255  0.2678043656313207  1.0000
  C   C39       1.0  0.646028584115193  0.6648640023309442  0.29726102145239963  1.0000
  C   C40       1.0  0.6648487315360255  0.6760584256565779  0.19944459688718302  1.0000
  C   C41       1.0  0.6756741766523149  0.685813770256303  0.1507830690984662  1.0000
  C   C42       1.0  0.6367603878678879  0.6565061003311925  0.34594634575227456  1.0000
  C   C43       1.0  0.6882432133732623  0.6967174519743368  0.1093119931074469  1.0000
  C   C44       1.0  0.6639302098331896  0.23395733684183995  0.38746298329846246  1.0000
  C   C45       1.0  0.6088086305219704  0.6207721794137842  0.4347677903756662  1.0000
  C   C46       1.0  0.6349559316743764  0.27311744530776144  0.26873447526706684  1.0000
  C   C47       1.0  0.6296916427612445  0.25869466575854727  0.2213107648915198  1.0000
  C   C48       1.0  0.7461440584337923  0.0382853275532469  0.2321313924789976  1.0000
  C   C49       1.0  0.7539411466679338  0.04991925841805061  0.28095904913384834  1.0000
  C   C50       1.0  0.6943054085881074  0.1719030101521852  0.2991001421930051  1.0000
  C   C51       1.0  0.6852254352910663  0.13939398419906013  0.2023126744773833  1.0000
  C   C52       1.0  0.6828478379253226  0.12078760670929974  0.15392965193603908  1.0000
  C   C53       1.0  0.6833994325648335  0.1991651270611428  0.34718400794131543  1.0000
  C   C54       1.0  0.684057915719123  0.1020243452854928  0.1123168272010631  1.0000
  C   C55       1.0  0.22876580971983174  0.6548810079723283  0.3896591553738915  1.0000
  C   C56       1.0  0.6300399090613241  0.2874516560926353  0.4329791300204634  1.0000
  C   C57       1.0  0.1762155261333121  0.7621451693468018  0.2718584513414157  1.0000
  C   C58       1.0  0.15631149315488102  0.7619934358894795  0.22450356777935102  1.0000
  C   C59       1.0  0.13946216977638667  0.577191842207867  0.2325547063481821  1.0000
  C   C60       1.0  0.16015956251300156  0.5761548735033275  0.2800639654063276  1.0000
  C   C61       1.0  0.17886132157204315  0.6686162039930823  0.3002532566032272  1.0000
  C   C62       1.0  0.13766390284294522  0.6698150000290967  0.2036475552162784  1.0000
  C   C63       1.0  0.11379473779938101  0.6745604585484771  0.1555701133827156  1.0000
  C   C64       1.0  0.2033049918926509  0.6642266841233921  0.348423381385075  1.0000
  C   C65       1.0  0.08980010452278009  0.6856204041652846  0.11420413482657922  1.0000
  C   C66       1.0  0.7149163360599927  0.0512429818373334  0.9332489677753629  1.0000
  C   C67       1.0  0.6285321597529291  0.7841721924424335  0.7293080810487993  1.0000
  C   C68       1.0  0.714857854175975  0.7300206889003037  0.9339994957793039  1.0000
  C   C69       1.0  0.049486214958854205  0.7074695406177087  0.9351121932318662  1.0000
  C   C70       1.0  0.7065313826668459  0.0548223696417338  0.06560587509246571  1.0000
  C   C71       1.0  0.7160907662481009  0.7209767907935145  0.063326947538151  1.0000
  C   C72       1.0  0.041289290780383715  0.7164457399058648  0.0678128731230032  1.0000
  C   C73       1.0  0.556339946292681  0.7548661337555775  0.7666136916706706  1.0000
  C   C74       1.0  0.6940910019596771  0.7056483369746903  0.8871908965281748  1.0000
  C   C75       1.0  0.8751093674279177  0.9361483933735855  0.3513860966179721  1.0000
  C   C76       1.0  0.4606850707996911  0.5578839842664609  0.7727412565421405  1.0000
  N   N1        1.0  0.8126420005411815  0.9463024496535655  0.3075660860647177  1.0000
  N   N2        1.0  0.5144485152310736  0.5776154616916502  0.7307018377043164  1.0000
  Cl  Cl1       1.0  0.1269726707724104  0.8949262531050409  0.8073460406466353  1.0000
  Cl  Cl2       1.0  0.8765422726752377  0.6269343473053086  0.3108894622995066  1.0000
  Cl  Cl3       1.0  0.816610667523719  0.8926026163862916  0.2081386832007013  1.0000
  Cl  Cl4       1.0  0.11353456197336698  0.4653705641542418  0.20872024379338683  1.0000
  O   O1        1.0  0.532391404623475  0.304684756098638  0.5486808598697337  1.0000
  O   O2        1.0  0.5083602085167983  0.6972229934463458  0.45414112589216427  1.0000
  O   O3        1.0  0.6904936221014213  0.5203104572415144  0.4526604816330462  1.0000
  O   O4        1.0  0.7079698658503376  0.3100761706402936  0.4540980531324266  1.0000
  O   O5        1.0  0.5016822302710295  0.5008573728402724  0.5001291687845253  1.0000
  O   O6        1.0  0.03250965724226513  0.8063225675413295  0.95332788024254  1.0000
  O   O7        1.0  0.8224887362393858  0.018091069894900596  0.9468464794187953  1.0000
  O   O8        1.0  0.6322802415008583  0.03962240166485741  0.9559856503148298  1.0000
  O   O9        1.0  0.6376940860073927  0.8339817116338115  0.9513839897918501  1.0000
  O   O10       1.0  0.8116343113183578  0.6494317176687758  0.9545242440970441  1.0000
  O   O11       1.0  0.02240422818010766  0.628979771527888  0.9530579377401125  1.0000
  O   O12       1.0  0.3169838658592922  0.5122544522047434  0.5513646728475408  1.0000
  O   O13       1.0  0.013733296309389718  0.8225218815292479  0.053708078175141304  1.0000
  O   O14       1.0  0.8037201033050608  0.038777075668385  0.0462798838572382  1.0000
  O   O15       1.0  0.627956785960194  0.027055669859834104  0.04833129132846639  1.0000
  O   O16       1.0  0.6386918398451727  0.8204657836110416  0.043660082602372106  1.0000
  O   O17       1.0  0.8203871999316947  0.6432275378957045  0.0467932509238409  1.0000
  O   O18       1.0  0.025950794504879495  0.6352900217070145  0.0455062998445541  1.0000
  O   O19       1.0  0.8326760287244781  0.838120169104535  8.741884656870074e-05  1.0000
  O   O20       1.0  0.30489064628032037  0.7001992730092895  0.5470467273260624  1.0000
  O   O21       1.0  0.5081096340410127  0.6974236344237569  0.5471018252748578  1.0000
  O   O22       1.0  0.6916023939392418  0.5223651836526528  0.5451742531485806  1.0000
  O   O23       1.0  0.7109521193531736  0.3112364951005588  0.5462138862971955  1.0000
  O   O24       1.0  0.5258471884279105  0.3117508347578237  0.4480175853272499  1.0000
  O   O25       1.0  0.3089522840966483  0.5211978661500324  0.4512724129096597  1.0000
  O   O26       1.0  0.30307831552563147  0.7063148846426232  0.455093163754647  1.0000
  O   O27       1.0  0.3405718030411792  0.3223657023304867  0.5011045377893312  1.0000
  O   O28       1.0  0.0082256189585692  0.0021529084694335994  0.9989082225821877  1.0000
