data_image0
_chemical_formula_structural       Er2H26C32O24
_chemical_formula_sum              "Er2 H26 C32 O24"
_cell_length_a       7.161991578256817
_cell_length_b       10.8472746081619
_cell_length_c       11.079452181788776
_cell_angle_alpha    85.91954637022276
_cell_angle_beta     78.38292595401207
_cell_angle_gamma    78.4841039347496

_space_group_name_H-M_alt    "P 1"
_space_group_IT_number       1

loop_
  _space_group_symop_operation_xyz
  'x, y, z'

loop_
  _atom_site_type_symbol
  _atom_site_label
  _atom_site_symmetry_multiplicity
  _atom_site_fract_x
  _atom_site_fract_y
  _atom_site_fract_z
  _atom_site_occupancy
  Er  Er1       1.0  0.16897957438258973  0.24471637649057942  0.43555905066651224  1.0000
  Er  Er2       1.0  0.8310819435006207  0.7552707640285521  0.5643811645571616  1.0000
  H   H1        1.0  0.6740462218833371  0.23546586134551006  0.705992460287099  1.0000
  H   H2        1.0  0.32593817104913814  0.7645497747825234  0.29397668201507793  1.0000
  H   H3        1.0  0.9520132400301192  0.4232656813051605  0.623679121019691  1.0000
  H   H4        1.0  0.04795814433886382  0.5767179100218982  0.3762694681654393  1.0000
  H   H5        1.0  0.8275880417439365  0.4310787746848917  0.5239515194037381  1.0000
  H   H6        1.0  0.17238479863569  0.5689095232773769  0.475998368801278  1.0000
  H   H7        1.0  0.6163060188402979  0.1656791978446819  0.41025595045039137  1.0000
  H   H8        1.0  0.38387156532290584  0.8343863952698953  0.5895952852725372  1.0000
  H   H9        1.0  0.5220665561083706  0.052406939465164705  0.3882910944910378  1.0000
  H   H10       1.0  0.4779659061303505  0.9471732593090465  0.6129531552276077  1.0000
  H   H11       1.0  0.39003325234159547  0.39076583316403907  0.547936671277796  1.0000
  H   H12       1.0  0.6099403300230435  0.6092207656373532  0.4520601873021164  1.0000
  H   H13       1.0  0.4236215642519667  0.44033062287203256  0.4085407996668237  1.0000
  H   H14       1.0  0.576376886747212  0.5596531205298306  0.5914604927931464  1.0000
  H   H15       1.0  0.22304237019569226  0.8328986489425317  0.07413806696519738  1.0000
  H   H16       1.0  0.7769581726875571  0.16708117460330385  0.9258244343820011  1.0000
  H   H17       1.0  0.3368180372006578  0.036560748370028796  0.05004645163461417  1.0000
  H   H18       1.0  0.663185116728783  0.9634143902729877  0.9499223846039514  1.0000
  H   H19       1.0  0.31291487415379743  0.168517859611562  0.8568073461484501  1.0000
  H   H20       1.0  0.6871004416588349  0.8314638650990107  0.1431676889995543  1.0000
  H   H21       1.0  0.43074986437645885  0.298627720413208  0.01224186476952129  1.0000
  H   H22       1.0  0.5692599056646798  0.7013766676206644  0.987751197711958  1.0000
  H   H23       1.0  0.28350331655540356  0.6108706214670081  0.7596801942988662  1.0000
  H   H24       1.0  0.7164824603963991  0.38913940278427367  0.24029820369468516  1.0000
  H   H25       1.0  0.024605905028529673  0.6329422276466588  0.14421448484026198  1.0000
  H   H26       1.0  0.9753897335863609  0.3670734053012339  0.85575962502665  1.0000
  C   C1        1.0  0.17026899181492888  0.12205963840195011  0.6633459543269637  1.0000
  C   C2        1.0  0.8297409633955721  0.8779521362910359  0.33661136089433796  1.0000
  C   C3        1.0  0.021289065000097144  0.8787741893307554  0.6980553583752921  1.0000
  C   C4        1.0  0.9786772789126416  0.12123108805264594  0.3019022393150479  1.0000
  C   C5        1.0  0.18117617876634984  0.0413497366124247  0.7777042109511353  1.0000
  C   C6        1.0  0.8188315441107005  0.9586403913210405  0.22225038317780835  1.0000
  C   C7        1.0  0.11184710159913176  0.9271753881967797  0.7922705378701026  1.0000
  C   C8        1.0  0.8881468335385845  0.072817617128571  0.20769092680960446  1.0000
  C   C9        1.0  0.12865224653874913  0.8544515024158842  0.9004615197110653  1.0000
  C   C10       1.0  0.8713280656468284  0.1455443551288482  0.0995004786533187  1.0000
  C   C11       1.0  0.2145334121756832  0.8912455482627095  0.9907644116378335  1.0000
  C   C12       1.0  0.7854601056499956  0.10874370616996032  0.00920007535465572  1.0000
  C   C13       1.0  0.279877626253132  0.0048283351645253  0.9761372983910305  1.0000
  C   C14       1.0  0.7201342032336837  0.9951467642336597  0.023825984538589782  1.0000
  C   C15       1.0  0.26340113404046406  0.07935619362355341  0.8698659253504103  1.0000
  C   C16       1.0  0.7366172759607964  0.920630201813516  0.13010209025554786  1.0000
  C   C17       1.0  0.20645321049958199  0.3978349326222956  0.2160158739785558  1.0000
  C   C18       1.0  0.7935504646403898  0.6021967029996916  0.7839642675845795  1.0000
  C   C19       1.0  0.49258656418614044  0.38016610777022924  0.7651541910461859  1.0000
  C   C20       1.0  0.5074035513612639  0.6198447968100568  0.2348109858895882  1.0000
  C   C21       1.0  0.2294298151094694  0.46037484325768935  0.09041380408264389  1.0000
  C   C22       1.0  0.770573453937672  0.5396436103248164  0.9095637036284073  1.0000
  C   C23       1.0  0.3538417203879974  0.39286534413700724  0.9931604581180125  1.0000
  C   C24       1.0  0.6461630739246685  0.6071474759923062  0.006820873684901609  1.0000
  C   C25       1.0  0.37364095896892735  0.44662442803856084  0.8737462345266279  1.0000
  C   C26       1.0  0.6263508968721465  0.5533733952962195  0.12624312422924788  1.0000
  C   C27       1.0  0.27300885641866995  0.5683830861168033  0.8520968122027809  1.0000
  C   C28       1.0  0.7269927685551777  0.43162216020173366  0.1478709906861795  1.0000
  C   C29       1.0  0.15106385131873173  0.6347184934003138  0.9496344241347002  1.0000
  C   C30       1.0  0.848929884271527  0.3652839718403982  0.05033993884254778  1.0000
  C   C31       1.0  0.12592404080189115  0.5816661617293662  0.06904063633763965  1.0000
  C   C32       1.0  0.8740625410720421  0.41834665412800115  0.9309302468478009  1.0000
  O   O1        1.0  0.22355351175105653  0.22841744604495057  0.6527921051422751  1.0000
  O   O2        1.0  0.7762709827125673  0.7716439572354262  0.34724899807617493  1.0000
  O   O3        1.0  0.11145768313122767  0.08034407028369368  0.5750289294680897  1.0000
  O   O4        1.0  0.888728034050878  0.919619171447252  0.42487908575812117  1.0000
  O   O5        1.0  0.8400316666154879  0.9105928596761289  0.7012479066371425  1.0000
  O   O6        1.0  0.15993894294790312  0.08944811234700721  0.2986967356657075  1.0000
  O   O7        1.0  0.12928241506945423  0.7958482723100886  0.6236667479201827  1.0000
  O   O8        1.0  0.8706658768215046  0.20413451712563815  0.37630543483668794  1.0000
  O   O9        1.0  0.06040403419714117  0.4389842735183223  0.30088017636512626  1.0000
  O   O10       1.0  0.9395741061614938  0.561018216322985  0.6990924483351506  1.0000
  O   O11       1.0  0.33291787627759817  0.302380270481855  0.2359025038981528  1.0000
  O   O12       1.0  0.6671286721710457  0.6976795342777321  0.7640849449465676  1.0000
  O   O13       1.0  0.5981536990569294  0.267067861793052  0.7858445002711321  1.0000
  O   O14       1.0  0.40181777757675247  0.7329224446441955  0.21413700458916193  1.0000
  O   O15       1.0  0.4973595616252097  0.4258372498319716  0.6588987938004962  1.0000
  O   O16       1.0  0.502658096165696  0.5741681193768713  0.3411085973993123  1.0000
  O   O17       1.0  0.03926535039425257  0.7497158068751516  0.9224686511309697  1.0000
  O   O18       1.0  0.9607213181146719  0.25028195152238913  0.07750147641073818  1.0000
  O   O19       1.0  0.91806074633714  0.3699835623663149  0.5646657790149092  1.0000
  O   O20       1.0  0.08192136265272143  0.630007520321847  0.4352791884723146  1.0000
  O   O21       1.0  0.49303228148832556  0.1329768270315057  0.4281198494741502  1.0000
  O   O22       1.0  0.506986630890907  0.8672694868110254  0.5719074370994193  1.0000
  O   O23       1.0  0.33490760856039253  0.40024582141841597  0.47196414561649647  1.0000
  O   O24       1.0  0.665024805489956  0.5998095566882924  0.5280355260592344  1.0000
