data_image0
_chemical_formula_structural       Cd2H32C36N4O12
_chemical_formula_sum              "Cd2 H32 C36 N4 O12"
_cell_length_a       7.648095052264337
_cell_length_b       9.996260984202241
_cell_length_c       11.699147416719661
_cell_angle_alpha    89.99878116946589
_cell_angle_beta     89.99964908904563
_cell_angle_gamma    90.73278518796162

_space_group_name_H-M_alt    "P 1"
_space_group_IT_number       1

loop_
  _space_group_symop_operation_xyz
  'x, y, z'

loop_
  _atom_site_type_symbol
  _atom_site_label
  _atom_site_symmetry_multiplicity
  _atom_site_fract_x
  _atom_site_fract_y
  _atom_site_fract_z
  _atom_site_occupancy
  Cd  Cd1       1.0  0.7500055025543804  0.7499970005740477  0.2259542805934061  1.0000
  Cd  Cd2       1.0  0.24999555960853573  0.24999431190443738  0.7740467880228223  1.0000
  H   H1        1.0  0.4790376342693464  0.756288226181617  0.0184328129627431  1.0000
  H   H2        1.0  0.9790203364896402  0.256290258493749  0.9815706315600182  1.0000
  H   H3        1.0  0.5209670824629243  0.2436960349512843  0.9815716747627549  1.0000
  H   H4        1.0  0.020983999379353704  0.7436839994591508  0.0184304372046284  1.0000
  H   H5        1.0  0.032002121564467204  0.74613138345169  0.8048535115695403  1.0000
  H   H6        1.0  0.5319974254473934  0.24614699469280762  0.19514081829296265  1.0000
  H   H7        1.0  0.9680037879835127  0.25384986039743035  0.1951484118915445  1.0000
  H   H8        1.0  0.46800498187488426  0.7538453017696297  0.8048593955484549  1.0000
  H   H9        1.0  0.9305512259137317  0.9172217029560129  0.6453009010338776  1.0000
  H   H10       1.0  0.4305544479436848  0.4172283755484114  0.3546981042320781  1.0000
  H   H11       1.0  0.06944606739522641  0.08277365984786658  0.3547010223163198  1.0000
  H   H12       1.0  0.5694402692939706  0.5827680202116737  0.6453089476927972  1.0000
  H   H13       1.0  0.0742798047284765  0.5402984248021311  0.43019893598729203  1.0000
  H   H14       1.0  0.5742768295522326  0.04030761204164428  0.5697998199251941  1.0000
  H   H15       1.0  0.9257290496079379  0.4597258163954833  0.5698158085240337  1.0000
  H   H16       1.0  0.42573702469055524  0.9597105622534413  0.43018073410549124  1.0000
  H   H17       1.0  0.9190361311733499  0.912674688400223  0.4302870069626152  1.0000
  H   H18       1.0  0.41903038455801334  0.41270109565995455  0.569717256093135  1.0000
  H   H19       1.0  0.08094189890630332  0.08732992250698858  0.5697174806319795  1.0000
  H   H20       1.0  0.5809489144885095  0.5873024985439628  0.43028979579754895  1.0000
  H   H21       1.0  0.052502861635858315  0.9287756534146538  0.18820174573200893  1.0000
  H   H22       1.0  0.5524922428004404  0.4287768599857457  0.8117900348791381  1.0000
  H   H23       1.0  0.9474957006854228  0.0712186928033702  0.8117933395197241  1.0000
  H   H24       1.0  0.44749974605529275  0.5712165675482196  0.18821359802568347  1.0000
  H   H25       1.0  0.8688692209487527  0.997645902547603  0.1584750761645566  1.0000
  H   H26       1.0  0.36884951443585834  0.49764264315082574  0.841505621739664  1.0000
  H   H27       1.0  0.1311293032514982  0.0023474432627353  0.8415268472014789  1.0000
  H   H28       1.0  0.6311437815036529  0.5023507680768516  0.15849459211009534  1.0000
  H   H29       1.0  0.16597756000835773  0.6412906420876467  0.6155711691919166  1.0000
  H   H30       1.0  0.6659841810452677  0.14130336185643694  0.38442537848997216  1.0000
  H   H31       1.0  0.834032056153774  0.3587536057262142  0.3844298989257098  1.0000
  H   H32       1.0  0.33402431854322145  0.8587459040565688  0.6155645776634558  1.0000
  C   C1        1.0  0.8447568987306796  0.8410422335434047  0.48159582115238214  1.0000
  C   C2        1.0  0.3447375109858158  0.34104207713886575  0.5184014982385251  1.0000
  C   C3        1.0  0.1552304331881658  0.15896626425263347  0.5184052473354513  1.0000
  C   C4        1.0  0.6552549729971489  0.6589643545419078  0.4816055535996356  1.0000
  C   C5        1.0  0.8502898954264  0.8433954714570717  0.6002232363913579  1.0000
  C   C6        1.0  0.3502956004764927  0.3434089876095427  0.3997919676250561  1.0000
  C   C7        1.0  0.14970362899968145  0.1566039415974601  0.39978552503477977  1.0000
  C   C8        1.0  0.6496992310416232  0.65659040916006  0.6002116652197387  1.0000
  C   C9        1.0  0.7499923309780246  0.7499901146734941  0.7877003435635075  1.0000
  C   C10       1.0  0.2500098858878276  0.24999718013488342  0.21230328937633663  1.0000
  C   C11       1.0  0.7499970136146175  0.7499956410176906  0.661680049239962  1.0000
  C   C12       1.0  0.25000020351425434  0.24999772113096697  0.3383227288917112  1.0000
  C   C13       1.0  0.9068428145397291  0.7491633399638146  0.8491754529771357  1.0000
  C   C14       1.0  0.4068350127837875  0.2491772697570695  0.1508292684831289  1.0000
  C   C15       1.0  0.0931617879368645  0.2508179202236248  0.150827325249594  1.0000
  C   C16       1.0  0.5931657827591296  0.7508070404548447  0.8491726549604479  1.0000
  C   C17       1.0  0.9014343808808294  0.7476702560671526  0.967813182526449  1.0000
  C   C18       1.0  0.4014456821473758  0.24767791802992878  0.032177057058632406  1.0000
  C   C19       1.0  0.0985662242221892  0.25230905253340546  0.0321887409629866  1.0000
  C   C20       1.0  0.5985562300105018  0.7523013741896064  0.9678274307177193  1.0000
  C   C21       1.0  0.19929593235057305  0.6907413050698709  0.3270949298535655  1.0000
  C   C22       1.0  0.6992960340799003  0.1907518688334591  0.6729040026447208  1.0000
  C   C23       1.0  0.8007151172186584  0.30927190005560584  0.6729061385433824  1.0000
  C   C24       1.0  0.3007082517036964  0.8092554163062285  0.32708082532006705  1.0000
  C   C25       1.0  0.14364872878373805  0.6222174841661853  0.21738510690580173  1.0000
  C   C26       1.0  0.6436363492360968  0.1222344573297249  0.7826058947851636  1.0000
  C   C27       1.0  0.856353564245673  0.37777181125470344  0.7826210903051276  1.0000
  C   C28       1.0  0.3563817429675354  0.8777576431369523  0.2173789332896874  1.0000
  C   C29       1.0  0.3475662506119761  0.8679503066795605  0.4316544837296092  1.0000
  C   C30       1.0  0.8475527948766699  0.36795866074302097  0.5683448991989907  1.0000
  C   C31       1.0  0.6524543674494866  0.13207378768672123  0.5683354726280925  1.0000
  C   C32       1.0  0.15244806477456052  0.632061677440987  0.4316553143906249  1.0000
  C   C33       1.0  0.2974438199709014  0.8102293819412053  0.5352771910233757  1.0000
  C   C34       1.0  0.7974549693350568  0.31024203117497956  0.4647114779201403  1.0000
  C   C35       1.0  0.7025614179998101  0.18980291122321793  0.46471020100155164  1.0000
  C   C36       1.0  0.20255595388193376  0.6898022002578513  0.5352921544844094  1.0000
  N   N1        1.0  0.7499883702095219  0.7499817312235705  0.42300624686555477  1.0000
  N   N2        1.0  0.2499960047623446  0.25001779631663357  0.5769990955255366  1.0000
  N   N3        1.0  0.7500245390696068  0.7499932665287826  0.026066210386154906  1.0000
  N   N4        1.0  0.24998140856635595  0.24998897764260872  0.9739357130657568  1.0000
  O   O1        1.0  0.9265612526993794  0.9459478581464323  0.2176652124779963  1.0000
  O   O2        1.0  0.42654753703665454  0.44595101359581685  0.7823187557315237  1.0000
  O   O3        1.0  0.07344634479978401  0.054043372587074076  0.7823358561257268  1.0000
  O   O4        1.0  0.5734484873054273  0.5540453659113566  0.21768060332257735  1.0000
  O   O5        1.0  0.9810241271874179  0.5993817811046184  0.20299367925011322  1.0000
  O   O6        1.0  0.48103021847044414  0.09939332761268817  0.7969972243822456  1.0000
  O   O7        1.0  0.018972823263617006  0.4006045786279912  0.7970219203928935  1.0000
  O   O8        1.0  0.5189718461674246  0.9005899662269101  0.2029807657000333  1.0000
  O   O9        1.0  0.2618204298981937  0.5881662593546791  0.14725698969613893  1.0000
  O   O10       1.0  0.7618305568513648  0.08817218333812347  0.8527401353604134  1.0000
  O   O11       1.0  0.7381645665614017  0.4118152460463307  0.8527474980943951  1.0000
  O   O12       1.0  0.23816800553601072  0.911822163050729  0.14724127368104692  1.0000
