data_image0
_chemical_formula_structural       CdH42C46S2N8O6
_chemical_formula_sum              "Cd1 H42 C46 S2 N8 O6"
_cell_length_a       9.155561041561079
_cell_length_b       10.491964912391335
_cell_length_c       11.425526553915137
_cell_angle_alpha    95.3647165433274
_cell_angle_beta     90.95142485814745
_cell_angle_gamma    96.08769500260357

_space_group_name_H-M_alt    "P 1"
_space_group_IT_number       1

loop_
  _space_group_symop_operation_xyz
  'x, y, z'

loop_
  _atom_site_type_symbol
  _atom_site_label
  _atom_site_symmetry_multiplicity
  _atom_site_fract_x
  _atom_site_fract_y
  _atom_site_fract_z
  _atom_site_occupancy
  Cd  Cd1       1.0  0.9999985968648561  1.1876794303989074e-06  0.5000003830807814  1.0000
  H   H1        1.0  0.6965994339930432  0.17963519190617916  0.08296612195273671  1.0000
  H   H2        1.0  0.30340262188043005  0.820366945634916  0.9170321307251827  1.0000
  H   H3        1.0  0.6416716352216411  0.050891348176364176  0.8888699362474031  1.0000
  H   H4        1.0  0.3583309148529779  0.9491059636759261  0.11112963524608693  1.0000
  H   H5        1.0  0.8211625354100962  0.9139268535698337  0.8022127199705196  1.0000
  H   H6        1.0  0.1788386934567043  0.08606852162265  0.19778928949436658  1.0000
  H   H7        1.0  0.761372842297533  0.19805493151606865  0.5448655403200818  1.0000
  H   H8        1.0  0.23862219370369786  0.8019433506210802  0.45513579753831124  1.0000
  H   H9        1.0  0.5104870773201071  0.2123895449751386  0.6276773124727626  1.0000
  H   H10       1.0  0.489507837280776  0.7876077742291444  0.37232393714042195  1.0000
  H   H11       1.0  0.3790076461827354  0.018014779637944397  0.706352770009133  1.0000
  H   H12       1.0  0.620988355943581  0.9819825416329947  0.2936476149436018  1.0000
  H   H13       1.0  0.749138754039116  0.8127446650715981  0.6019551492147174  1.0000
  H   H14       1.0  0.25085955365668877  0.18725361453808628  0.3980453444637035  1.0000
  H   H15       1.0  0.4998995565917924  0.623372321939186  0.7884884839561581  1.0000
  H   H16       1.0  0.5000963286933243  0.37662403203517403  0.21151268765205342  1.0000
  H   H17       1.0  0.6698317299171562  0.6893454181372859  0.7386553022674749  1.0000
  H   H18       1.0  0.33016550393067945  0.3106528463145962  0.2613486807734375  1.0000
  H   H19       1.0  0.7228555490526533  0.49299224761899285  0.6255143658285931  1.0000
  H   H20       1.0  0.27714821450688737  0.5070060248690993  0.37448530415034054  1.0000
  H   H21       1.0  0.3235296485196599  0.6569968319842445  0.5562539685046347  1.0000
  H   H22       1.0  0.6764754499251497  0.3430033640725155  0.44374588820495126  1.0000
  H   H23       1.0  0.08263340129921913  0.10563126319232198  0.7606468140834934  1.0000
  H   H24       1.0  0.9173652660384803  0.8943699095796586  0.23935306942986057  1.0000
  H   H25       1.0  0.14064920437292727  0.5235293680739658  0.8074533044859891  1.0000
  H   H26       1.0  0.8593527437776558  0.47647179344312435  0.19254748464876312  1.0000
  H   H27       1.0  0.09384561343886588  0.5212191980822212  0.5956902778177167  1.0000
  H   H28       1.0  0.9061542765020575  0.47878292659813565  0.4043114539824444  1.0000
  H   H29       1.0  0.046540926315309185  0.30987770415397614  0.4698272720375132  1.0000
  H   H30       1.0  0.9534611386764595  0.690124424659686  0.5301727304417626  1.0000
  H   H31       1.0  0.1603654224277236  0.3860027626282869  0.09482203925345092  1.0000
  H   H32       1.0  0.8396396805762407  0.61399742906476  0.9051786923568131  1.0000
  H   H33       1.0  0.1225530230496403  0.49697288539740464  0.9951949974792244  1.0000
  H   H34       1.0  0.8774444353622857  0.5030273223750612  0.004805662449371103  1.0000
  H   H35       1.0  0.40314419413071795  0.2884035525605099  0.8966980707821081  1.0000
  H   H36       1.0  0.596855686691903  0.7115985808472799  0.10330191121669693  1.0000
  H   H37       1.0  0.33034717182825796  0.6391733229803901  0.10373736723364153  1.0000
  H   H38       1.0  0.6696516077914866  0.3608288214518892  0.8962608547235577  1.0000
  H   H39       1.0  0.3810665711191846  0.792224393360904  0.7306210787371017  1.0000
  H   H40       1.0  0.6189314937759322  0.20777196038304885  0.2693792384509096  1.0000
  H   H41       1.0  0.12788115884440288  0.21758436940847747  0.9517293269747359  1.0000
  H   H42       1.0  0.872119571262104  0.7824158358365239  0.04827048877389472  1.0000
  C   C1        1.0  0.016361277440317696  0.036839759680709995  0.0560636622513542  1.0000
  C   C2        1.0  0.9836430976801085  0.9631633231079847  0.943937323854293  1.0000
  C   C3        1.0  0.907920271506427  0.11399527459987979  0.10424398897163911  1.0000
  C   C4        1.0  0.09208372117635118  0.8860049368450829  0.8957532327956628  1.0000
  C   C5        1.0  0.7764394648052644  0.1191264074762728  0.04476189844669421  1.0000
  C   C6        1.0  0.22356476611905401  0.8808757341981346  0.9552346249103324  1.0000
  C   C7        1.0  0.745734420251374  0.046427805627210696  0.9353267799994499  1.0000
  C   C8        1.0  0.25426739282140437  0.9535724060481597  0.06467129618805248  1.0000
  C   C9        1.0  0.8463328371824519  0.9699508619870156  0.8862953887609281  1.0000
  C   C10       1.0  0.15366789292405514  0.03004934325798559  0.1137044269877023  1.0000
  C   C11       1.0  0.6996422632445488  0.11543277186309099  0.5785612072299955  1.0000
  C   C12       1.0  0.3003538648412558  0.8845655079769938  0.4214401408686329  1.0000
  C   C13       1.0  0.5606161155654945  0.12251218972630801  0.6260075956247421  1.0000
  C   C14       1.0  0.4393800125203171  0.8774860901137771  0.37399375247388633  1.0000
  C   C15       1.0  0.48816301954094854  0.014980598633883296  0.6697109018709001  1.0000
  C   C16       1.0  0.5118340792290894  0.9850167159762787  0.3302903682227623  1.0000
  C   C17       1.0  0.5559915066440411  0.899399346207396  0.6666637706594047  1.0000
  C   C18       1.0  0.44400559212599683  0.10059796840276644  0.3333374994342577  1.0000
  C   C19       1.0  0.6932081132956754  0.8995446522997239  0.6117424877855839  1.0000
  C   C20       1.0  0.30678910231555534  0.10045362960701709  0.3882579956526017  1.0000
  C   C21       1.0  0.5515914702975165  0.6732718882968242  0.7165243511788832  1.0000
  C   C22       1.0  0.44840684195744274  0.32672638694913997  0.2834770174002231  1.0000
  C   C23       1.0  0.5261947089995402  0.5858621081842867  0.6028411676074655  1.0000
  C   C24       1.0  0.4738090591191552  0.41413615994009223  0.39715937727214623  1.0000
  C   C25       1.0  0.6241836190030909  0.49566648098181065  0.5709938662736037  1.0000
  C   C26       1.0  0.3758202705159448  0.5043327500754272  0.42900676685121664  1.0000
  C   C27       1.0  0.4019606136512762  0.5889971521827702  0.5305759940166156  1.0000
  C   C28       1.0  0.5980432713086118  0.41100208323818777  0.46942376420751947  1.0000
  C   C29       1.0  0.0855365818545479  0.20014682763435593  0.7277562709957621  1.0000
  C   C30       1.0  0.9144631821268802  0.7998543384768553  0.2722444976585194  1.0000
  C   C31       1.0  0.11228963790152588  0.31375441575776347  0.8050952676466779  1.0000
  C   C32       1.0  0.8877111013232765  0.6862457807598046  0.19490629790331582  1.0000
  C   C33       1.0  0.11680023685355678  0.43157444902776376  0.7548410611049121  1.0000
  C   C34       1.0  0.8832006192124525  0.5684267147863833  0.24515971778960488  1.0000
  C   C35       1.0  0.09093729963343829  0.4303238211926724  0.6346130575604578  1.0000
  C   C36       1.0  0.9090637992332588  0.5696792684871992  0.3653878978244691  1.0000
  C   C37       1.0  0.0641355208712611  0.3139400017090778  0.5646590946978166  1.0000
  C   C38       1.0  0.9358665486796623  0.6860621227408712  0.43534178268214424  1.0000
  C   C39       1.0  0.1850178640370856  0.41443782253980277  0.006310930426799599  1.0000
  C   C40       1.0  0.8149828569511187  0.5855623914326245  0.9936871355204675  1.0000
  C   C41       1.0  0.3479479144782118  0.45852060801286126  0.00016736558301739458  1.0000
  C   C42       1.0  0.6520520649490039  0.5414825101463734  0.999828330157577  1.0000
  C   C43       1.0  0.4453022668851219  0.3814235607174723  0.9422673213106025  1.0000
  C   C44       1.0  0.5546977216603893  0.6185795487143224  0.05773012423135531  1.0000
  C   C45       1.0  0.40457615015554893  0.577743906961828  0.057665106285668316  1.0000
  C   C46       1.0  0.5954239597903098  0.4222601654028323  0.9423324275014979  1.0000
  S   S1        1.0  0.9356042955369334  0.2013511842189288  0.2465867948923092  1.0000
  S   S2        1.0  0.06439521196634954  0.7986480691177033  0.7534111725695072  1.0000
  N   N1        1.0  0.762429662251556  0.0051726956198762985  0.5711185969197744  1.0000
  N   N2        1.0  0.23756658267544847  0.9948265515167873  0.42888196452337723  1.0000
  N   N3        1.0  0.4919479803984856  0.7961335609444756  0.7181512930440733  1.0000
  N   N4        1.0  0.5080491138123975  0.2038637580293994  0.281849102148911  1.0000
  N   N5        1.0  0.062418464151029696  0.20071351733037085  0.6118299352620724  1.0000
  N   N6        1.0  0.93758226595547  0.7992866879146304  0.3881698804865509  1.0000
  N   N7        1.0  0.1303175590220036  0.30651725151961523  0.9235695748410323  1.0000
  N   N8        1.0  0.8696822049594247  0.6934839145915958  0.07643119381324942  1.0000
  O   O1        1.0  0.9348414101123624  0.0991229638768232  0.32734964929883154  1.0000
  O   O2        1.0  0.06515458289564438  0.900874366121549  0.6726489858525471  1.0000
  O   O3        1.0  0.8091812334013683  0.2752414403291182  0.26286987596143524  1.0000
  O   O4        1.0  0.19081499328903112  0.7247578242624114  0.7371271858789898  1.0000
  O   O5        1.0  0.07602019001907928  0.28225743845539597  0.24775958553801308  1.0000
  O   O6        1.0  0.9239794571211492  0.7177427603592362  0.7522419697717384  1.0000
