data_image0
_chemical_formula_structural       Cu4H68C80N12O16
_chemical_formula_sum              "Cu4 H68 C80 N12 O16"
_cell_length_a       12.698842920993519
_cell_length_b       13.100574475473278
_cell_length_c       14.404803308038344
_cell_angle_alpha    89.9997792571832
_cell_angle_beta     89.99991937457663
_cell_angle_gamma    105.62164561614894

_space_group_name_H-M_alt    "P 1"
_space_group_IT_number       1

loop_
  _space_group_symop_operation_xyz
  'x, y, z'

loop_
  _atom_site_type_symbol
  _atom_site_label
  _atom_site_symmetry_multiplicity
  _atom_site_fract_x
  _atom_site_fract_y
  _atom_site_fract_z
  _atom_site_occupancy
  Cu  Cu1       1.0  0.20016868823244496  0.14455172549136816  0.5488471026552942  1.0000
  Cu  Cu2       1.0  0.2998458298703852  0.855460778475418  0.0489118616252142  1.0000
  Cu  Cu3       1.0  0.799841798514592  0.855450339095661  0.4510878156406264  1.0000
  Cu  Cu4       1.0  0.7001607986803079  0.14454444136165276  0.951158428179326  1.0000
  H   H1        1.0  0.2583773665764967  0.2758513833522187  0.0886274321596687  1.0000
  H   H2        1.0  0.2416118550629563  0.7241323331456115  0.5886473697523371  1.0000
  H   H3        1.0  0.7416171914412503  0.7241442959059939  0.9113505273559568  1.0000
  H   H4        1.0  0.7583827766313861  0.27584354830518265  0.4113687715063179  1.0000
  H   H5        1.0  0.3349557154538232  0.30645818750908654  0.9850588700025469  1.0000
  H   H6        1.0  0.16503300719410416  0.6935346278491179  0.4850764629125024  1.0000
  H   H7        1.0  0.6650329727921047  0.693539057205598  0.014918395301116  1.0000
  H   H8        1.0  0.8349623910985926  0.3064555105294886  0.5149362072563264  1.0000
  H   H9        1.0  0.0931644201048201  0.3024780046130359  0.0089047755006462  1.0000
  H   H10       1.0  0.4068282838631418  0.6975322555725256  0.5089141871619205  1.0000
  H   H11       1.0  0.9068276169223708  0.6975342970052052  0.9910801261162662  1.0000
  H   H12       1.0  0.593171334177228  0.3024761101582243  0.4910859871405364  1.0000
  H   H13       1.0  0.1638147970830559  0.32875109041210476  0.9037013532862731  1.0000
  H   H14       1.0  0.3361742295348621  0.6712595557679392  0.403712563005854  1.0000
  H   H15       1.0  0.8361774576782321  0.6712620038056513  0.0962835483291187  1.0000
  H   H16       1.0  0.6638179424192857  0.32875037047623573  0.5962896939371447  1.0000
  H   H17       1.0  0.05876586563241661  0.47736275758168023  0.9414864715743009  1.0000
  H   H18       1.0  0.4412374527940059  0.5226485359687344  0.4414848804275593  1.0000
  H   H19       1.0  0.9412357120230797  0.5226527415586304  0.0585081490114092  1.0000
  H   H20       1.0  0.5587669463725574  0.47735430134979145  0.5584993269853341  1.0000
  H   H21       1.0  0.4068617534087053  0.6628553430498625  0.0863427020758607  1.0000
  H   H22       1.0  0.093140251135388  0.3371347603390261  0.5863336336954246  1.0000
  H   H23       1.0  0.5931357394478312  0.3371395534008314  0.9136671912318163  1.0000
  H   H24       1.0  0.9068666996127275  0.6628601657786459  0.41365612743277314  1.0000
  H   H25       1.0  0.1088528696804475  0.6709905509588482  0.976153704386121  1.0000
  H   H26       1.0  0.3911442272291055  0.32901263027986266  0.4761292500661369  1.0000
  H   H27       1.0  0.8911449542907165  0.3290170171944951  0.02386313102798  1.0000
  H   H28       1.0  0.6088533484656296  0.6709854341966873  0.5238424615275079  1.0000
  H   H29       1.0  0.3671118669328167  0.4674384831943925  0.0618644284036591  1.0000
  H   H30       1.0  0.13289129929015794  0.5325557060325538  0.5618726761236985  1.0000
  H   H31       1.0  0.6328857087308465  0.5325595812298827  0.9381281095764038  1.0000
  H   H32       1.0  0.8671220394584936  0.46744240772284223  0.4381316634654269  1.0000
  H   H33       1.0  0.1854584889002169  0.09040599772198728  0.15552701476265443  1.0000
  H   H34       1.0  0.3145675332238014  0.9096060076992527  0.655599666812705  1.0000
  H   H35       1.0  0.8145753510517012  0.9096151460495818  0.8443954076534794  1.0000
  H   H36       1.0  0.6854465413923948  0.09039765158954079  0.3444824246088984  1.0000
  H   H37       1.0  0.267674151895541  0.11375930184637889  0.009690151765561  1.0000
  H   H38       1.0  0.23229777872130342  0.8862326752114528  0.5097136989485236  1.0000
  H   H39       1.0  0.732300214604173  0.8862402737724009  0.9902878077558269  1.0000
  H   H40       1.0  0.7676786210473523  0.113754235971129  0.4903121612825244  1.0000
  H   H41       1.0  0.1284874244076804  0.12202028949526066  0.010395544318107899  1.0000
  H   H42       1.0  0.3714925512071403  0.8779780445430204  0.5104265832950574  1.0000
  H   H43       1.0  0.8714933301153494  0.8779824737995766  0.9895817209808371  1.0000
  H   H44       1.0  0.6284923311352131  0.12201681236506089  0.48960483061984655  1.0000
  H   H45       1.0  0.031060252006611208  0.11336387095387579  0.866864794804215  1.0000
  H   H46       1.0  0.4689303564472524  0.8866580515434349  0.36690146538217755  1.0000
  H   H47       1.0  0.968922440573742  0.8866602802085595  0.1331041399015334  1.0000
  H   H48       1.0  0.5310624471006236  0.11336850687192876  0.6331320311109606  1.0000
  H   H49       1.0  0.35927126923083813  0.10611528945680246  0.2398779092581833  1.0000
  H   H50       1.0  0.14071330631445286  0.893775000041451  0.7399765189911065  1.0000
  H   H51       1.0  0.6407179227517332  0.8937805915646279  0.7600216043799009  1.0000
  H   H52       1.0  0.8592674333861227  0.10612164591007198  0.2601305643022229  1.0000
  H   H53       1.0  0.017727463090039905  0.0961137328244561  0.24111939219081788  1.0000
  H   H54       1.0  0.48232846426665776  0.9040191006200683  0.7412501688562825  1.0000
  H   H55       1.0  0.9823316953199495  0.904016775012934  0.7587467987748369  1.0000
  H   H56       1.0  0.5177174300488686  0.09610898924014318  0.2588909304226163  1.0000
  H   H57       1.0  0.38238158204082856  0.17745869253140964  0.8616176028039604  1.0000
  H   H58       1.0  0.11760496983691127  0.8225054336141181  0.3616341091953927  1.0000
  H   H59       1.0  0.6175959189716025  0.8224949616554085  0.1383686873504004  1.0000
  H   H60       1.0  0.8823824550620927  0.17745854648984494  0.6383875857916266  1.0000
  H   H61       1.0  0.371252970151943  0.17325008455784288  0.6866079383097201  1.0000
  H   H62       1.0  0.1287518140788251  0.8267593229946326  0.186629275504508  1.0000
  H   H63       1.0  0.6287413701244589  0.8267448020886617  0.3133748806975873  1.0000
  H   H64       1.0  0.8712461970033231  0.1732403265450273  0.8133965846907856  1.0000
  H   H65       1.0  0.03479888658901591  0.11197194696791969  0.6916843397494787  1.0000
  H   H66       1.0  0.46520650505191713  0.8880311016472574  0.1917300349061932  1.0000
  H   H67       1.0  0.965197361156804  0.8880356163922298  0.3082755702093962  1.0000
  H   H68       1.0  0.5347922419889031  0.1119740935791356  0.8083124863880755  1.0000
  C   C1        1.0  0.2080500626667003  0.45447246905798266  0.9997878047608849  1.0000
  C   C2        1.0  0.2919506867263095  0.5455298132037142  0.4997918732510413  1.0000
  C   C3        1.0  0.7919491199168717  0.5455343114929078  0.0002047332029278  1.0000
  C   C4        1.0  0.708054200065547  0.4544690660289205  0.5002020531488043  1.0000
  C   C5        1.0  0.2516801242060325  0.27308581570532897  0.0124271643244427  1.0000
  C   C6        1.0  0.24830663824148053  0.7269085698394516  0.5124491665145428  1.0000
  C   C7        1.0  0.7483076409329571  0.7269138018735644  0.9875494067627599  1.0000
  C   C8        1.0  0.75168503700241  0.273082348786282  0.4875683631454066  1.0000
  C   C9        1.0  0.17525184189997842  0.33760234224008195  0.9795683853366838  1.0000
  C   C10       1.0  0.3247424448345625  0.662399229163732  0.479579640297132  1.0000
  C   C11       1.0  0.8247416058749837  0.6624036284542001  0.0204165162904317  1.0000
  C   C12       1.0  0.675257930748181  0.3376004278392841  0.5204226166587276  1.0000
  C   C13       1.0  0.136572698395895  0.515041852379518  0.9749279800520227  1.0000
  C   C14       1.0  0.3634294315855514  0.4849653102974967  0.47492453509489246  1.0000
  C   C15       1.0  0.8634270024288287  0.48496968128647205  0.0250701116061975  1.0000
  C   C16       1.0  0.6365751025338683  0.5150351516905262  0.5250596723220724  1.0000
  C   C17       1.0  0.3294078609842117  0.6180390000777791  0.0557898256637159  1.0000
  C   C18       1.0  0.1705945352342511  0.3819552172204723  0.5557805039173687  1.0000
  C   C19       1.0  0.6705912909669323  0.3819590692442317  0.9442179849987368  1.0000
  C   C20       1.0  0.8294126332521046  0.6180405015036783  0.4442064803577779  1.0000
  C   C21       1.0  0.1643419506015961  0.622933311461658  0.9933334400635161  1.0000
  C   C22       1.0  0.33565903581532563  0.37706979585566797  0.49331582883137065  1.0000
  C   C23       1.0  0.8356560911129807  0.3770750493068744  0.006677147433137499  1.0000
  C   C24       1.0  0.6643446273811762  0.6229274957569473  0.5066593538242401  1.0000
  C   C25       1.0  0.30706238525505114  0.5089164532404951  0.0411886510132007  1.0000
  C   C26       1.0  0.19293991955814957  0.49108021265936924  0.5411907211441687  1.0000
  C   C27       1.0  0.6929348377164927  0.4910831939060571  0.9588073580287214  1.0000
  C   C28       1.0  0.8070700488493544  0.5089170986470178  0.4588045936810161  1.0000
  C   C29       1.0  0.006025876914037604  0.1130885655082281  0.44103115881347316  1.0000
  C   C30       1.0  0.4939963334248603  0.8869972295096031  0.9411237986985768  1.0000
  C   C31       1.0  0.9939818677121933  0.8869895146920684  0.5588634950040685  1.0000
  C   C32       1.0  0.5060331877790888  0.11309992440595809  0.0589707883816573  1.0000
  C   C33       1.0  0.1877926759763184  0.09848751138044069  0.2307637085359175  1.0000
  C   C34       1.0  0.312219122000883  0.9015161533275702  0.730836391800679  1.0000
  C   C35       1.0  0.8122234106534094  0.9015177384389971  0.7691607965577346  1.0000
  C   C36       1.0  0.6877819066640074  0.09848588127185562  0.2692463938447744  1.0000
  C   C37       1.0  0.21070884019246716  0.15627076746137186  0.9819019300369047  1.0000
  C   C38       1.0  0.28927029904362916  0.8437244094312034  0.4819306441363338  1.0000
  C   C39       1.0  0.789269114400099  0.8437304032355539  0.018073252627928596  1.0000
  C   C40       1.0  0.7107141478336418  0.15626886228307768  0.5180986871429738  1.0000
  C   C41       1.0  0.10833483311285622  0.12800142355111177  0.829247407679425  1.0000
  C   C42       1.0  0.3916582736015997  0.8720064407375573  0.32928630843840506  1.0000
  C   C43       1.0  0.8916510336541139  0.8720084830393727  0.17071875019775007  1.0000
  C   C44       1.0  0.6083344687207698  0.12800269528626979  0.6707513533625401  1.0000
  C   C45       1.0  0.28561580077485615  0.10663290987136516  0.2783220751499229  1.0000
  C   C46       1.0  0.2143822117898964  0.8933007846047258  0.7783956031633465  1.0000
  C   C47       1.0  0.7143867772944004  0.8933002331383687  0.7216017358654341  1.0000
  C   C48       1.0  0.7856096323877892  0.10663628398646809  0.2216857941757482  1.0000
  C   C49       1.0  0.09282977250654768  0.10018090364696518  0.2790650143386841  1.0000
  C   C50       1.0  0.4071930776043402  0.8998890746947977  0.7791514693300172  1.0000
  C   C51       1.0  0.9071959862771024  0.8998853541645244  0.7208428295330548  1.0000
  C   C52       1.0  0.5928207236229994  0.10017952096138318  0.22094172938421508  1.0000
  C   C53       1.0  0.0981188092750074  0.10890831880906397  0.3755251813286761  1.0000
  C   C54       1.0  0.4019044277918624  0.8911492986277235  0.875615838752452  1.0000
  C   C55       1.0  0.9019050942450022  0.8911397190857571  0.624382662576096  1.0000
  C   C56       1.0  0.5981113545959927  0.10891217595907679  0.12448291367605437  1.0000
  C   C57       1.0  0.3037833169586435  0.16449525134172657  0.8262718256393881  1.0000
  C   C58       1.0  0.19620633646840693  0.8354856918718878  0.326298601882705  1.0000
  C   C59       1.0  0.6961974806903726  0.8354790030544731  0.1737040512836572  1.0000
  C   C60       1.0  0.8037842194756949  0.16449255253262862  0.6737321178448495  1.0000
  C   C61       1.0  0.2071597518499928  0.1478687535122631  0.8782691539102955  1.0000
  C   C62       1.0  0.29282714266755505  0.8521253831040594  0.37830061103143453  1.0000
  C   C63       1.0  0.792819966181419  0.8521245035366858  0.1217032519157684  1.0000
  C   C64       1.0  0.7071620331373865  0.14786790341322134  0.6217308028835474  1.0000
  C   C65       1.0  0.2851959058269458  0.11520940598632728  0.3747287915691757  1.0000
  C   C66       1.0  0.2148100317818873  0.8847365009339823  0.8747954069191195  1.0000
  C   C67       1.0  0.7148125726123739  0.8847308827383101  0.6252033499845807  1.0000
  C   C68       1.0  0.7851884487690697  0.11521325913377468  0.1252811309034669  1.0000
  C   C69       1.0  0.3814049990794146  0.1263859189502128  0.4397653515816203  1.0000
  C   C70       1.0  0.11858670515339043  0.8735200216216156  0.9398355970761472  1.0000
  C   C71       1.0  0.6185940861935392  0.8735115768204762  0.5601605421369412  1.0000
  C   C72       1.0  0.8813864841705836  0.1263892714532489  0.06023816398148091  1.0000
  C   C73       1.0  0.2987244361644912  0.16180851251078818  0.7300796141077583  1.0000
  C   C74       1.0  0.20127681738821218  0.8381911631292309  0.23010776303021166  1.0000
  C   C75       1.0  0.7012662332523123  0.8381816111519454  0.2698962627813657  1.0000
  C   C76       1.0  0.7987192340777653  0.16180135299912016  0.7699243450947078  1.0000
  C   C77       1.0  0.10936494726136203  0.12680038393583  0.7328573390832958  1.0000
  C   C78       1.0  0.3906351049687373  0.8732064012474506  0.2328997079846431  1.0000
  C   C79       1.0  0.8906257833975175  0.8732071621463148  0.26710326509193283  1.0000
  C   C80       1.0  0.6093625012331145  0.1268003742471322  0.7671407306689275  1.0000
  N   N1        1.0  0.25947467137405056  0.6747296486668828  0.0332375703952437  1.0000
  N   N2        1.0  0.240525863153394  0.32526625967247463  0.5332158640689855  1.0000
  N   N3        1.0  0.7405229870335788  0.3252715836246764  0.9667799592429276  1.0000
  N   N4        1.0  0.7594769291067325  0.6747278615420882  0.4667593185927075  1.0000
  N   N5        1.0  0.20293355040502092  0.14352025711917799  0.683896499692473  1.0000
  N   N6        1.0  0.29707320149607613  0.8564962973961628  0.18393557261909166  1.0000
  N   N7        1.0  0.7970614215396665  0.8564912618239757  0.31606757553755926  1.0000
  N   N8        1.0  0.7029276401054718  0.14351365589709525  0.8161062544526629  1.0000
  N   N9        1.0  0.19276325366266892  0.11586539975304079  0.4191952656578763  1.0000
  N   N10       1.0  0.30724950623474706  0.8841428671896022  0.9192728754148547  1.0000
  N   N11       1.0  0.8072492970572045  0.8841327117469006  0.5807243799603015  1.0000
  N   N12       1.0  0.6927541352361645  0.11586867859875838  0.0808119928509683  1.0000
  O   O1        1.0  0.912235598430364  0.10218658611137948  0.40981255423959334  1.0000
  O   O2        1.0  0.5878001312002256  0.8979858944005484  0.9099160751873683  1.0000
  O   O3        1.0  0.08782091304870226  0.8979858849988959  0.5900841820210374  1.0000
  O   O4        1.0  0.4122185269485712  0.10220071215308478  0.09019656127799888  1.0000
  O   O5        1.0  0.4729437509128971  0.12750970022717203  0.4082820442299351  1.0000
  O   O6        1.0  0.027038087129497495  0.872294209830734  0.9083489368451507  1.0000
  O   O7        1.0  0.5270318406181218  0.8722879403083821  0.5916584281484845  1.0000
  O   O8        1.0  0.9729417239223962  0.12752165767534507  0.0917310722877573  1.0000
  O   O9        1.0  0.359050574352672  0.13614577389112978  0.527009163784598  1.0000
  O   O10       1.0  0.14098674294065455  0.8638320664717224  0.0270914466896031  1.0000
  O   O11       1.0  0.6409836001928895  0.8638278558697365  0.47291187028870496  1.0000
  O   O12       1.0  0.859034520357902  0.13613756285107567  0.9729968927029943  1.0000
  O   O13       1.0  0.0343882056773595  0.12846434158001327  0.5277549641425238  1.0000
  O   O14       1.0  0.4656053434833609  0.8715577053768229  0.02783889818792319  1.0000
  O   O15       1.0  0.9656089436849057  0.8715551034872248  0.4721577393191154  1.0000
  O   O16       1.0  0.534387459976486  0.12846885289042825  0.9722536064000664  1.0000
