data_image0
_chemical_formula_structural       Cu8H40C48I12N24
_chemical_formula_sum              "Cu8 H40 C48 I12 N24"
_cell_length_a       7.331872369492785
_cell_length_b       14.315670630138312
_cell_length_c       17.221707673347094
_cell_angle_alpha    89.99968977212713
_cell_angle_beta     96.33756668714956
_cell_angle_gamma    89.99963935019808

_space_group_name_H-M_alt    "P 1"
_space_group_IT_number       1

loop_
  _space_group_symop_operation_xyz
  'x, y, z'

loop_
  _atom_site_type_symbol
  _atom_site_label
  _atom_site_symmetry_multiplicity
  _atom_site_fract_x
  _atom_site_fract_y
  _atom_site_fract_z
  _atom_site_occupancy
  Cu  Cu1       1.0  0.16182678277226611  0.18214625500433362  0.8771637978054799  1.0000
  Cu  Cu2       1.0  0.3381924191275446  0.6821478126506051  0.6228371015445263  1.0000
  Cu  Cu3       1.0  0.8381842301071746  0.8178502499906343  0.12283802848416772  1.0000
  Cu  Cu4       1.0  0.6618117255679865  0.3178486923678038  0.3771609203675723  1.0000
  Cu  Cu5       1.0  0.19700333573420184  0.10756697599310877  0.694387062990991  1.0000
  Cu  Cu6       1.0  0.30299354942766854  0.607566074008922  0.805615457738007  1.0000
  Cu  Cu7       1.0  0.802995323043149  0.892444198268869  0.3056124449572692  1.0000
  Cu  Cu8       1.0  0.6970078629178575  0.3924409090219285  0.19438882397560772  1.0000
  H   H1        1.0  0.5416243253870335  0.1250077073595079  0.6120151622771175  1.0000
  H   H2        1.0  0.9583718551289384  0.625011357298824  0.8879787559460652  1.0000
  H   H3        1.0  0.45836609524476324  0.8749894962203797  0.387981638742005  1.0000
  H   H4        1.0  0.04163365735635692  0.37498933893589037  0.112017007113181  1.0000
  H   H5        1.0  0.4915553307259089  0.17703282712268018  0.9740231019448089  1.0000
  H   H6        1.0  0.008462572426424201  0.6770381777182524  0.5259800827586432  1.0000
  H   H7        1.0  0.5084474539938527  0.8229622808071471  0.025981243817227603  1.0000
  H   H8        1.0  0.9915539262343248  0.3229639155542614  0.47402025744231224  1.0000
  H   H9        1.0  0.5978290630841345  0.15255829265520046  0.47286361086979417  1.0000
  H   H10       1.0  0.902178723228538  0.6525581626904183  0.0271319976851032  1.0000
  H   H11       1.0  0.4021778284279309  0.8474396094250026  0.5271357005037415  1.0000
  H   H12       1.0  0.09783228407486894  0.34743554817306693  0.9728669250372802  1.0000
  H   H13       1.0  0.6394378512175154  0.453374050347378  0.900710200140189  1.0000
  H   H14       1.0  0.8605648783850983  0.9533749882468642  0.5992865921315911  1.0000
  H   H15       1.0  0.36055532517794125  0.5466252488145429  0.09929253605778851  1.0000
  H   H16       1.0  0.13944338428783007  0.046625009438400894  0.40071220253923195  1.0000
  H   H17       1.0  0.5259018429794581  0.4256991094805542  0.640050536468415  1.0000
  H   H18       1.0  0.9740971504132151  0.9257007931527852  0.8599496915767304  1.0000
  H   H19       1.0  0.47410092490839173  0.5743029838294618  0.3599450985519539  1.0000
  H   H20       1.0  0.02589602708705741  0.07430060161289731  0.1400536253307152  1.0000
  H   H21       1.0  0.5962510221360873  0.44001801088091236  0.5030441897331457  1.0000
  H   H22       1.0  0.9037518935181129  0.9400218353866948  0.9969555753780598  1.0000
  H   H23       1.0  0.4037613540902286  0.5599777955913864  0.4969530548567107  1.0000
  H   H24       1.0  0.09624402972219312  0.059974669625759695  0.0030484502922191997  1.0000
  H   H25       1.0  0.5560464505212368  0.23055587072771996  0.1113754739754  1.0000
  H   H26       1.0  0.9439575473045497  0.7305574678649903  0.3886248284319223  1.0000
  H   H27       1.0  0.44394810152044084  0.7694441269613604  0.8886290683830964  1.0000
  H   H28       1.0  0.05604659958174812  0.269446022501775  0.611374354891872  1.0000
  H   H29       1.0  0.7102846259475586  0.49354806252150507  0.042164177088231704  1.0000
  H   H30       1.0  0.7897103267287239  0.9935497161266653  0.4578333437842232  1.0000
  H   H31       1.0  0.2897099238891984  0.5064470454248352  0.9578392038531477  1.0000
  H   H32       1.0  0.2102897066561057  0.006450281565754799  0.5421673896404542  1.0000
  H   H33       1.0  0.7103008266431134  0.426511537656637  0.7539036835895346  1.0000
  H   H34       1.0  0.7897036393482822  0.9265138564116598  0.7460938927362122  1.0000
  H   H35       1.0  0.289699204494312  0.5734898571099479  0.24609588840171884  1.0000
  H   H36       1.0  0.21030187761293467  0.0734868398155655  0.25390419318264185  1.0000
  H   H37       1.0  0.8392197197142653  0.32868842238728035  0.7646143831425576  1.0000
  H   H38       1.0  0.6607901850057376  0.8286919283891122  0.7353838926020302  1.0000
  H   H39       1.0  0.16077894248610397  0.6713129723761283  0.2353868669757802  1.0000
  H   H40       1.0  0.33921944659481085  0.17130946636974892  0.2646132239380847  1.0000
  C   C1        1.0  0.5014505325891252  0.28204192669579703  0.8457474888367571  1.0000
  C   C2        1.0  0.9985613781106442  0.7820441569337717  0.654252835010027  1.0000
  C   C3        1.0  0.4985522464932545  0.7179594680602932  0.15425395333445377  1.0000
  C   C4        1.0  0.0014468879192293005  0.21795584074587984  0.34574770180550735  1.0000
  C   C5        1.0  0.49160449613690843  0.2617862282705872  0.7185510330848857  1.0000
  C   C6        1.0  0.008393042949137501  0.7617899337797952  0.7814473315049426  1.0000
  C   C7        1.0  0.5083804363906596  0.7382179606692957  0.2814460925605289  1.0000
  C   C8        1.0  0.9916083604822892  0.23821146098434554  0.21855230450393043  1.0000
  C   C9        1.0  0.6585890454813427  0.42460836847553207  0.023900058692888106  1.0000
  C   C10       1.0  0.8414013529535114  0.9246076405374596  0.4760993058223307  1.0000
  C   C11       1.0  0.3414000129178378  0.5753902321603731  0.9761019047391173  1.0000
  C   C12       1.0  0.1585973126179567  0.0753916586147056  0.5239036864461468  1.0000
  C   C13       1.0  0.6206515129156998  0.4017284346967855  0.9454182784185576  1.0000
  C   C14       1.0  0.8793532924602662  0.9017275037405668  0.5545817493151901  1.0000
  C   C15       1.0  0.37934852159283156  0.5982708644585487  0.0545830357228425  1.0000
  C   C16       1.0  0.12064811994189746  0.09827109686776231  0.4454225324201602  1.0000
  C   C17       1.0  0.55432301123588  0.3118634486785794  0.9256081352994201  1.0000
  C   C18       1.0  0.9456898710360307  0.8118642697716965  0.57439325932625  1.0000
  C   C19       1.0  0.4456838847426712  0.6881358504645618  0.0743934989301067  1.0000
  C   C20       1.0  0.054312910279584514  0.18813782351585928  0.4256093442729636  1.0000
  C   C21       1.0  0.5343466448156208  0.24879323957740943  0.9864699240453517  1.0000
  C   C22       1.0  0.9656519933452902  0.7487950861545303  0.5135305127885986  1.0000
  C   C23       1.0  0.4656547586441279  0.7512039639754704  0.013529711974392504  1.0000
  C   C24       1.0  0.03434391979114791  0.2512063086212422  0.4864682864348707  1.0000
  C   C25       1.0  0.5719320496197756  0.2781339320304568  0.06310791728714801  1.0000
  C   C26       1.0  0.9280685607115872  0.7781352700424832  0.4368920103173863  1.0000
  C   C27       1.0  0.42806661483743375  0.7218646685883672  0.9368944942682446  1.0000
  C   C28       1.0  0.0719300969986989  0.22186822033404494  0.5631069169359009  1.0000
  C   C29       1.0  0.5826465261027493  0.2107978643651194  0.5125095274753164  1.0000
  C   C30       1.0  0.9173608592383363  0.7108003084534787  0.9874914905295284  1.0000
  C   C31       1.0  0.4173672313599752  0.7891993391601774  0.48749242684777266  1.0000
  C   C32       1.0  0.08264191763912274  0.2891961965598711  0.012508790224558202  1.0000
  C   C33       1.0  0.550379988527432  0.1958147875828473  0.5893937899063744  1.0000
  C   C34       1.0  0.9496111261168851  0.6958225115511992  0.9106036340099237  1.0000
  C   C35       1.0  0.4496076864115326  0.8041803203981601  0.4106023023680265  1.0000
  C   C36       1.0  0.0503902761908464  0.30417958175002  0.08939542128224079  1.0000
  C   C37       1.0  0.5304887042783337  0.27316626168439484  0.6379335006534461  1.0000
  C   C38       1.0  0.9695013628941996  0.7731749320373994  0.8620623606396975  1.0000
  C   C39       1.0  0.46949073464921315  0.7268302433854148  0.3620610460817701  1.0000
  C   C40       1.0  0.03050278286840321  0.22682925686645208  0.1379362419673811  1.0000
  C   C41       1.0  0.5457076254103371  0.36276186198793425  0.606293960606969  1.0000
  C   C42       1.0  0.9542880959256977  0.8627682825063729  0.8937034982286178  1.0000
  C   C43       1.0  0.4542896522108323  0.6372360401224456  0.3937008376388604  1.0000
  C   C44       1.0  0.04569546991692872  0.13723381082095903  0.1062964669791171  1.0000
  C   C45       1.0  0.5808195804770906  0.3715649939747436  0.5291470199094022  1.0000
  C   C46       1.0  0.9191760219357408  0.8715668407594136  0.9708503932797471  1.0000
  C   C47       1.0  0.419179070557064  0.6284329081313302  0.47084842306895075  1.0000
  C   C48       1.0  0.08081166307876943  0.1284275686695366  0.029150925430599297  1.0000
  I   I1        1.0  0.9069936264311594  0.1185234821450436  0.7750922895299439  1.0000
  I   I2        1.0  0.5930054042043766  0.6185258792209324  0.7249110818012525  1.0000
  I   I3        1.0  0.09300777813813005  0.8814751184763805  0.2249079272010803  1.0000
  I   I4        1.0  0.40698777327701663  0.38147830968559054  0.2750922350989455  1.0000
  I   I5        1.0  0.34361859592993244  0.9484465507005381  0.7280571845823332  1.0000
  I   I6        1.0  0.1563887693002712  0.44844708546405343  0.7719396266127488  1.0000
  I   I7        1.0  0.656385562098983  0.0515639249996127  0.2719478058723723  1.0000
  I   I8        1.0  0.8436071292280548  0.5515633902937935  0.2280516232934318  1.0000
  I   I9        1.0  0.05267557086666131  0.4878410546125451  0.5838598366844465  1.0000
  I   I10       1.0  0.44732303163852566  0.9878403679787198  0.9161381282293561  1.0000
  I   I11       1.0  0.9473217157535532  0.5121498621307553  0.4161396072987245  1.0000
  I   I12       1.0  0.5526756239187524  0.0121505487677638  0.0838596376267304  1.0000
  N   N1        1.0  0.3692296371712801  0.2204872907944946  0.8235061893525781  1.0000
  N   N2        1.0  0.13077669488444607  0.720487082571168  0.6764933542689917  1.0000
  N   N3        1.0  0.6307649081234744  0.7795175966522907  0.1764948687038199  1.0000
  N   N4        1.0  0.8692315711407023  0.27951361364368676  0.32350718254473076  1.0000
  N   N5        1.0  0.3651089719925623  0.2066998642621911  0.7443943814728229  1.0000
  N   N6        1.0  0.13489480065094744  0.7067012287372877  0.755604524904328  1.0000
  N   N7        1.0  0.6348773384003152  0.7933078173419473  0.2556057117556705  1.0000
  N   N8        1.0  0.8651148365350707  0.2933015630826362  0.2443954952066818  1.0000
  N   N9        1.0  0.5781795548784106  0.31054224675810366  0.7810368405000432  1.0000
  N   N10       1.0  0.9218251047460487  0.8105464056919232  0.7189606925743348  1.0000
  N   N11       1.0  0.42181773166628744  0.6894598465485728  0.2189626034541376  1.0000
  N   N12       1.0  0.07818041332943441  0.1894549890686434  0.2810379740576181  1.0000
  N   N13       1.0  0.7348475679324128  0.36586107784744115  0.7850140279974838  1.0000
  N   N14       1.0  0.7651577142423067  0.8658650739545306  0.7149821207486724  1.0000
  N   N15       1.0  0.2651497186170105  0.6341403169240181  0.2149854159585161  1.0000
  N   N16       1.0  0.23485054618321757  0.1341363208048989  0.2850155124887195  1.0000
  N   N17       1.0  0.6319820932551964  0.36523831844703375  0.0825049789415573  1.0000
  N   N18       1.0  0.8680187101144202  0.8652399769002841  0.417493399474644  1.0000
  N   N19       1.0  0.36801794462443393  0.6347588850970568  0.9174980773499826  1.0000
  N   N20       1.0  0.13197857643500302  0.13476141787118218  0.5825060444813558  1.0000
  N   N21       1.0  0.5992823489562514  0.2974351621119454  0.4819981248312076  1.0000
  N   N22       1.0  0.9007138847767567  0.7974399854575651  0.0180020913186141  1.0000
  N   N23       1.0  0.4007245414557092  0.7025599458292787  0.5180006058346721  1.0000
  N   N24       1.0  0.09927654705900583  0.2025551224979694  0.9820005168549742  1.0000
