data_image0
_chemical_formula_structural       Al2H24C60O36
_chemical_formula_sum              "Al2 H24 C60 O36"
_cell_length_a       4.089714012212956
_cell_length_b       29.334808340463265
_cell_length_c       29.334892911214673
_cell_angle_alpha    119.99894200968679
_cell_angle_beta     90.00076104228958
_cell_angle_gamma    90.0003787177236

_space_group_name_H-M_alt    "P 1"
_space_group_IT_number       1

loop_
  _space_group_symop_operation_xyz
  'x, y, z'

loop_
  _atom_site_type_symbol
  _atom_site_label
  _atom_site_symmetry_multiplicity
  _atom_site_fract_x
  _atom_site_fract_y
  _atom_site_fract_z
  _atom_site_occupancy
  Al  Al1       1.0  6.078630441699997e-06  0.5000014691181036  0.4999985400430659  1.0000
  Al  Al2       1.0  0.9995117009760431  0.16666179284202823  0.8333390856358777  1.0000
  H   H1        1.0  0.5267932647630785  0.2158296193151232  0.6367190418293945  1.0000
  H   H2        1.0  0.47294908993704604  0.36330150757647334  0.7841815762569979  1.0000
  H   H3        1.0  0.47261137353386545  0.3034489226686361  0.5491546339771531  1.0000
  H   H4        1.0  0.5272197650941735  0.4508381407014995  0.6965569693257337  1.0000
  H   H5        1.0  0.5268511185136405  0.9208779779720542  0.7841736519876715  1.0000
  H   H6        1.0  0.4729724185332245  0.9208777660241269  0.6367013979359654  1.0000
  H   H7        1.0  0.47258966015478876  0.745706191653362  0.6965512393593656  1.0000
  H   H8        1.0  0.5272491159318377  0.7457149498990461  0.549159630160318  1.0000
  H   H9        1.0  0.5267802040612324  0.3632820956238234  0.07911114600538838  1.0000
  H   H10       1.0  0.4729441058313951  0.2158218336844442  0.07913695270189436  1.0000
  H   H11       1.0  0.4726058261277258  0.45085171736511853  0.2542953726015398  1.0000
  H   H12       1.0  0.5272320795147891  0.3034510446744606  0.25428711879125393  1.0000
  H   H13       1.0  0.9266546925340292  0.15254501654501967  0.7144047433597721  1.0000
  H   H14       1.0  0.07268509169283277  0.28565136471765146  0.8474802575847918  1.0000
  H   H15       1.0  0.07288544201684741  0.3809519043983941  0.485799074836109  1.0000
  H   H16       1.0  0.9270377349367037  0.5141776041493104  0.619038170681776  1.0000
  H   H17       1.0  0.9266074830436891  0.06184073010624761  0.8474682432841264  1.0000
  H   H18       1.0  0.07269796899009147  0.061823764685122774  0.7143488142134373  1.0000
  H   H19       1.0  0.07284322956942897  0.6048452129295755  0.6190407066781275  1.0000
  H   H20       1.0  0.9270653754442931  0.6048608977047678  0.485821812102813  1.0000
  H   H21       1.0  0.9266170519412283  0.2856076335459932  0.9381533840120966  1.0000
  H   H22       1.0  0.0725908664879711  0.15251251149268813  0.9381781573835399  1.0000
  H   H23       1.0  0.07286230488418967  0.5142038882650795  0.39515644192202604  1.0000
  H   H24       1.0  0.9270558040157935  0.3809706481337259  0.395144797656812  1.0000
  C   C1        1.0  0.4999652617762535  0.45873896641704454  0.41746503223298953  1.0000
  C   C2        1.0  0.49998333213590473  0.45872811940665065  0.5412655486055655  1.0000
  C   C3        1.0  0.4999862579289668  0.5825399531136669  0.541269323672033  1.0000
  C   C4        1.0  0.49954911809766844  0.20798852447689598  0.7920384668301209  1.0000
  C   C5        1.0  0.499555968879008  0.08404040903756285  0.7920168927066272  1.0000
  C   C6        1.0  0.4995402969178711  0.20795752462952072  0.9159593560454199  1.0000
  C   C7        1.0  0.4997391405707317  0.23764536775747308  0.7623702049908233  1.0000
  C   C8        1.0  0.5222313444680395  0.21068001412016468  0.7068876505232923  1.0000
  C   C9        1.0  0.5158170531455822  0.23820250500787693  0.6795582413404803  1.0000
  C   C10       1.0  0.49989920373574387  0.29350536832614454  0.706509845188002  1.0000
  C   C11       1.0  0.48392578423118937  0.320459086641769  0.7618111121917863  1.0000
  C   C12       1.0  0.47740519930854214  0.2931266888126416  0.789332184515267  1.0000
  C   C13       1.0  0.5000110244747374  0.32134594242661046  0.6786687501585718  1.0000
  C   C14       1.0  0.499888200301818  0.3453356301896451  0.6546682920563499  1.0000
  C   C15       1.0  0.4999315565502727  0.3731726756906328  0.6268279983346545  1.0000
  C   C16       1.0  0.48376581156115606  0.346261627481333  0.5715501034090736  1.0000
  C   C17       1.0  0.47735884111148147  0.37358033525704587  0.544013368844773  1.0000
  C   C18       1.0  0.4999620256470435  0.42905360543709054  0.5709433002625631  1.0000
  C   C19       1.0  0.5225120899649908  0.4559817410695503  0.6264209285684715  1.0000
  C   C20       1.0  0.5160966326542605  0.42844816768899113  0.6537416130187593  1.0000
  C   C21       1.0  0.49972432808957007  0.02471859132770504  0.7623598781104377  1.0000
  C   C22       1.0  0.5222391270639193  0.9962041936126835  0.7893246760268082  1.0000
  C   C23       1.0  0.515849776681243  0.9413478464759278  0.7617996870453823  1.0000
  C   C24       1.0  0.499921177313432  0.9130069901545429  0.7065007859878706  1.0000
  C   C25       1.0  0.48396835885150574  0.9413539042071621  0.6795454834994672  1.0000
  C   C26       1.0  0.47745948790311127  0.9962119998297114  0.7068805194506493  1.0000
  C   C27       1.0  0.49994788893567926  0.8573228891785192  0.6786581903107063  1.0000
  C   C28       1.0  0.499904054336767  0.809332107031665  0.6546619597984603  1.0000
  C   C29       1.0  0.49995766327366903  0.7536539310651876  0.6268284381620789  1.0000
  C   C30       1.0  0.48377131259797307  0.7252872805000623  0.6537399826785589  1.0000
  C   C31       1.0  0.4773575201307593  0.6704278785791759  0.6264178070194362  1.0000
  C   C32       1.0  0.49995727420127867  0.6418883112910195  0.5709434316260767  1.0000
  C   C33       1.0  0.5225426087717367  0.6704350461299385  0.5440147647862901  1.0000
  C   C34       1.0  0.5161168827108186  0.7252920025111252  0.5715513805985567  1.0000
  C   C35       1.0  0.49969295350499704  0.23763088168458782  0.9752823872610747  1.0000
  C   C36       1.0  0.5221903175854904  0.2931124440840378  0.003796106058778977  1.0000
  C   C37       1.0  0.515770121027991  0.3204412403827064  0.05864937452670915  1.0000
  C   C38       1.0  0.49987729076276816  0.293489928268599  0.08699947899341243  1.0000
  C   C39       1.0  0.4838857527687565  0.23818800289064504  0.05865535542869077  1.0000
  C   C40       1.0  0.4773392678590297  0.2106673169724189  0.0038003165677622675  1.0000
  C   C41       1.0  0.49995393219602124  0.3213354377270861  0.14267846064922907  1.0000
  C   C42       1.0  0.4998711844428667  0.34533288754110464  0.19066993010535063  1.0000
  C   C43       1.0  0.4999600514525326  0.3731753290377355  0.24634584380905267  1.0000
  C   C44       1.0  0.4837781912549913  0.428455550695496  0.2747143081972467  1.0000
  C   C45       1.0  0.4773335481761193  0.45598991261994826  0.3295719973311861  1.0000
  C   C46       1.0  0.49993486165833195  0.429058261895385  0.3581145785105448  1.0000
  C   C47       1.0  0.5225230246695814  0.3735819535587482  0.3295665622652777  1.0000
  C   C48       1.0  0.5161281444427955  0.3462654841015081  0.2747118395586483  1.0000
  C   C49       1.0  0.5474844405176922  0.15187422467970185  0.6738635183476589  1.0000
  C   C50       1.0  0.4521111439272261  0.3261670934994002  0.8481379152481169  1.0000
  C   C51       1.0  0.4520772321924014  0.340485667965588  0.48521948941637316  1.0000
  C   C52       1.0  0.5478395506108527  0.5147714347943194  0.659512430378662  1.0000
  C   C53       1.0  0.5474089084546561  0.021983407075268246  0.848130680980809  1.0000
  C   C54       1.0  0.45210795265656145  0.021974338449183596  0.6738347440981016  1.0000
  C   C55       1.0  0.45205597228746086  0.644726472807598  0.6595073359456549  1.0000
  C   C56       1.0  0.5478588450264253  0.6447425295778402  0.4852263501765605  1.0000
  C   C57       1.0  0.5474197820867985  0.3261354221455336  0.9780102311408143  1.0000
  C   C58       1.0  0.45205447377212227  0.1518587567743952  0.9780313369796688  1.0000
  C   C59       1.0  0.45205320945086663  0.5147879653265123  0.35527279279454393  1.0000
  C   C60       1.0  0.5478601909835488  0.34049191339767765  0.3552647315293456  1.0000
  O   O1        1.0  0.7370955689429051  0.5589705597510531  0.5492935226837758  1.0000
  O   O2        1.0  0.7370594939361296  0.49033379438305513  0.4410310178526728  1.0000
  O   O3        1.0  0.7370838045165087  0.45070398810589307  0.5096705930020207  1.0000
  O   O4        1.0  0.2629016171194038  0.5589718472747975  0.5096766622341063  1.0000
  O   O5        1.0  0.2628994200565558  0.4903216811324925  0.5492912097316703  1.0000
  O   O6        1.0  0.26286403102584177  0.4507102288587178  0.4410312824993454  1.0000
  O   O7        1.0  0.7368044184181244  0.17638978613385345  0.8924091938415373  1.0000
  O   O8        1.0  0.7367898806216928  0.2160058289890969  0.823610212469859  1.0000
  O   O9        1.0  0.736797674440062  0.10759319395068455  0.783996309614139  1.0000
  O   O10       1.0  0.26224894413446254  0.21598104849702093  0.8924160841485644  1.0000
  O   O11       1.0  0.262282255851133  0.10758757942769398  0.8235868949726068  1.0000
  O   O12       1.0  0.26224778192197107  0.176421326953296  0.7840157964738311  1.0000
  O   O13       1.0  0.7601523606722222  0.12815953379829648  0.6907718742565622  1.0000
  O   O14       1.0  0.38016714064892193  0.12716264187020704  0.6349285303420372  1.0000
  O   O15       1.0  0.23919477662505523  0.30929621699252874  0.8718564799901004  1.0000
  O   O16       1.0  0.6195430306118721  0.36508733533910515  0.8728520546098295  1.0000
  O   O17       1.0  0.23949929613230125  0.35732420689537764  0.4614420801259911  1.0000
  O   O18       1.0  0.6192482071604742  0.3015191026857168  0.460589423267308  1.0000
  O   O19       1.0  0.7604605412351119  0.5385398269964058  0.6426681438559925  1.0000
  O   O20       1.0  0.3807422690647825  0.5394110796465628  0.6984863788032953  1.0000
  O   O21       1.0  0.7601300187181861  0.06259464581475545  0.8718548192831009  1.0000
  O   O22       1.0  0.38005329308212044  0.0077569514137679615  0.8728333475593929  1.0000
  O   O23       1.0  0.23915838724087726  0.06255639845026205  0.6907016764711785  1.0000
  O   O24       1.0  0.6195037928264141  0.00777380327015455  0.6349155516038394  1.0000
  O   O25       1.0  0.23946233522136134  0.604113446054903  0.6426667728661569  1.0000
  O   O26       1.0  0.6192312092334618  0.6590588005085821  0.6984749765687183  1.0000
  O   O27       1.0  0.760487768204264  0.6041316508394559  0.46145940648194267  1.0000
  O   O28       1.0  0.38075098136164337  0.6590806222981627  0.4605883733275745  1.0000
  O   O29       1.0  0.7601487219531433  0.3092420575091382  0.9373988342320345  1.0000
  O   O30       1.0  0.3801431733902731  0.3650725261103604  0.9922359493263785  1.0000
  O   O31       1.0  0.23914957941924084  0.1281407899229095  0.9374392491745313  1.0000
  O   O32       1.0  0.6195577148914778  0.12714359858159002  0.9922257450771427  1.0000
  O   O33       1.0  0.23948581300683705  0.5385641546469913  0.39589069149118217  1.0000
  O   O34       1.0  0.6192701859277321  0.5394155319446199  0.3409357905052133  1.0000
  O   O35       1.0  0.7604788404338831  0.35734042323652904  0.39587785580685864  1.0000
  O   O36       1.0  0.3807368831716004  0.3015195079510348  0.3409315725618356  1.0000
