data_image0
_chemical_formula_structural       Cd2H44C44N16O12
_chemical_formula_sum              "Cd2 H44 C44 N16 O12"
_cell_length_a       8.622222376452562
_cell_length_b       9.655102508517839
_cell_length_c       16.1675
_cell_angle_alpha    87.88970166100675
_cell_angle_beta     85.26951558031182
_cell_angle_gamma    63.47993209069317

_space_group_name_H-M_alt    "P 1"
_space_group_IT_number       1

loop_
  _space_group_symop_operation_xyz
  'x, y, z'

loop_
  _atom_site_type_symbol
  _atom_site_label
  _atom_site_symmetry_multiplicity
  _atom_site_fract_x
  _atom_site_fract_y
  _atom_site_fract_z
  _atom_site_occupancy
  Cd  Cd1       1.0  0.1333242349601989  0.7333872803299428  0.7500111059999809  1.0000
  Cd  Cd2       1.0  0.8666761333065338  0.2666123078251061  0.24998907241741358  1.0000
  H   H1        1.0  0.07401675294200058  0.1658017390649107  0.5032473395324645  1.0000
  H   H2        1.0  0.7602604145396868  0.1658133142461864  0.9967715530256315  1.0000
  H   H3        1.0  0.925983615324732  0.8341978490901383  0.4967528388849373  1.0000
  H   H4        1.0  0.23973995372704596  0.8341862739088626  0.003228625391763301  1.0000
  H   H5        1.0  0.2858334311668358  0.067762268701955  0.5353612132007015  1.0000
  H   H6        1.0  0.6465232959803444  0.0677472209662966  0.964650947045321  1.0000
  H   H7        1.0  0.7141651945828118  0.9322384769712286  0.4646396349247651  1.0000
  H   H8        1.0  0.3534764935272606  0.9322535247068798  0.035349231372009585  1.0000
  H   H9        1.0  0.20600161243147144  0.3716015170255744  0.4918950405013405  1.0000
  H   H10       1.0  0.4224279392278945  0.3715760516267679  0.008126126578496009  1.0000
  H   H11       1.0  0.7939981708364388  0.6283969136113541  0.5081051890994529  1.0000
  H   H12       1.0  0.5775724352785403  0.6284258515645362  0.9918746191802582  1.0000
  H   H13       1.0  0.2144556862639035  0.6002090321704827  0.933361012158201  1.0000
  H   H14       1.0  0.1853362718492306  0.6002599629680887  0.5666449249283971  1.0000
  H   H15       1.0  0.7855440970039993  0.3997893984664387  0.0666392174425852  1.0000
  H   H16       1.0  0.8146606051436223  0.3997396251869603  0.4333547885141512  1.0000
  H   H17       1.0  0.02810241342908174  0.4576757225045682  0.7895431305302765  1.0000
  H   H18       1.0  0.514273882857019  0.457654887178272  0.7104664877536422  1.0000
  H   H19       1.0  0.9718985398364811  0.5423250231686083  0.21045761522854178  1.0000
  H   H20       1.0  0.48572706416884875  0.5423435434586494  0.2895336906638235  1.0000
  H   H21       1.0  0.04815592732789038  0.2200650313639656  0.7244557088538456  1.0000
  H   H22       1.0  0.7318211490105356  0.2200268332657558  0.7755522824424617  1.0000
  H   H23       1.0  0.95184501969797  0.7799333992729558  0.2755444695636129  1.0000
  H   H24       1.0  0.26818096177328954  0.7799715973711656  0.22444722626686087  1.0000
  H   H25       1.0  0.8090681831285806  0.2654640498426275  0.5652104228482528  1.0000
  H   H26       1.0  0.925638830642356  0.2654351118894382  0.934754947202272  1.0000
  H   H27       1.0  0.1909333488961097  0.7345355383124286  0.43478970438581394  1.0000
  H   H28       1.0  0.0743627013823415  0.7345644762656107  0.0652451800318019  1.0000
  H   H29       1.0  0.5204933130009621  0.2690836090273194  0.5859531677820299  1.0000
  H   H30       1.0  0.2105554304886184  0.2690674037735334  0.914033046055927  1.0000
  H   H31       1.0  0.47950821902373536  0.7309159791277366  0.414046959452044  1.0000
  H   H32       1.0  0.7894449377781214  0.7309321843815155  0.08596713236146769  1.0000
  H   H33       1.0  0.49219141207227324  0.0452496986402124  0.6607442489351811  1.0000
  H   H34       1.0  0.46275523086320197  0.0452172881326405  0.8392228344778019  1.0000
  H   H35       1.0  0.5078083774353317  0.954751047032964  0.3392553109573271  1.0000
  H   H36       1.0  0.5372457224023678  0.9547834575405361  0.1607766742313856  1.0000
  H   H37       1.0  0.7575760136674958  0.8341283980024912  0.7148430368140097  1.0000
  H   H38       1.0  0.40841590301639735  0.8340774672048781  0.7851095153975436  1.0000
  H   H39       1.0  0.24242377584010907  0.1658723476706925  0.2851565230784985  1.0000
  H   H40       1.0  0.5915833077320726  0.165924435986426  0.2148894259700782  1.0000
  H   H41       1.0  0.20632072687205755  0.9193981283828734  0.6211118839578873  1.0000
  H   H42       1.0  0.8743608739719522  0.9194050734916388  0.8788949816308217  1.0000
  H   H43       1.0  0.7936784776367106  0.0806014597721756  0.3788883456428351  1.0000
  H   H44       1.0  0.1256383305368232  0.0805945146634102  0.1211046294450782  1.0000
  C   C1        1.0  0.942395092039483  0.0415201752334085  0.6252905510321796  1.0000
  C   C2        1.0  0.016206140262177402  0.0415352229690669  0.8746911553828838  1.0000
  C   C3        1.0  0.057603533710157424  0.9584805704397681  0.3747102970932872  1.0000
  C   C4        1.0  0.9837936492454272  0.9584655227041098  0.1253084045096244  1.0000
  C   C5        1.0  0.14905352269786928  0.1319015056648283  0.558870454177999  1.0000
  C   C6        1.0  0.7191640037000653  0.1319026631829558  0.9411438142770121  1.0000
  C   C7        1.0  0.850948009326828  0.8680980824902207  0.44112967305606776  1.0000
  C   C8        1.0  0.2808346220495822  0.8680980824902207  0.05885703384845439  1.0000
  C   C9        1.0  0.1272916238257906  0.2762532763090491  0.6023077379130937  1.0000
  C   C10       1.0  0.5965291950129696  0.2762116056564565  0.8977125234998268  1.0000
  C   C11       1.0  0.8727075806829846  0.7237463118459999  0.39769249168762844  1.0000
  C   C12       1.0  0.4034723370117278  0.7237879824985924  0.10228698520942459  1.0000
  C   C13       1.0  0.16332431445667342  0.3869421047693251  0.5576610652438703  1.0000
  C   C14       1.0  0.4497767516978328  0.3868738111997985  0.9423629835851841  1.0000
  C   C15       1.0  0.8366737262941439  0.613057483385731  0.44233921554018  1.0000
  C   C16       1.0  0.5502230378097722  0.6131269344733781  0.05763657630732411  1.0000
  C   C17       1.0  0.1514669151248214  0.5152275238038442  0.598874095700829  1.0000
  C   C18       1.0  0.3333585809298683  0.5151488125711765  0.9011404553103332  1.0000
  C   C19       1.0  0.8485322893839536  0.48477206435120485  0.40112551537507096  1.0000
  C   C20       1.0  0.6666417873368715  0.4848507755838726  0.09885910458224599  1.0000
  C   C21       1.0  0.06669530879982939  0.4347070903005914  0.7235709077475008  1.0000
  C   C22       1.0  0.49865367991684917  0.4346804673836573  0.776436806502758  1.0000
  C   C23       1.0  0.933305638226038  0.56529134033633  0.27642927066996487  1.0000
  C   C24       1.0  0.5013472671090116  0.5653179632532641  0.22356275338989207  1.0000
  C   C25       1.0  0.07682135811892722  0.3026551072791861  0.6867339551293767  1.0000
  C   C26       1.0  0.62055750510617  0.3026238542897417  0.813281653403557  1.0000
  C   C27       1.0  0.9231790039081104  0.6973421658396077  0.3132668929962961  1.0000
  C   C28       1.0  0.3794440269185274  0.6973757338653073  0.1867178553056945  1.0000
  C   C29       1.0  0.7954073927357399  0.1693877302239031  0.5963767749993564  1.0000
  C   C30       1.0  0.0353779851674503  0.1693761550426274  0.9035636416158396  1.0000
  C   C31       1.0  0.2045923967718651  0.8306130154492735  0.4036234034179741  1.0000
  C   C32       1.0  0.9646218043401547  0.8306245906305492  0.0964359182766685  1.0000
  C   C33       1.0  0.6335375084286028  0.1718069431103828  0.6089847686532792  1.0000
  C   C34       1.0  0.1948850205714336  0.1717664299759178  0.8909575162259954  1.0000
  C   C35       1.0  0.36646402983579673  0.8281949600809284  0.39101530739733187  1.0000
  C   C36       1.0  0.8051153476952991  0.8282331581791311  0.10904204366658377  1.0000
  C   C37       1.0  0.616182883353133  0.0495834465095726  0.6511573207201806  1.0000
  C   C38       1.0  0.3344416113500515  0.0495371457844698  0.8487780126806753  1.0000
  C   C39       1.0  0.3838186486715642  0.9504161416454765  0.34884280651389327  1.0000
  C   C40       1.0  0.6655581781575536  0.9504635998887067  0.15122216573665528  1.0000
  C   C41       1.0  0.7641859501319247  0.931200183210855  0.6806693976692699  1.0000
  C   C42       1.0  0.3047435799456507  0.9311862929933313  0.8192713997069916  1.0000
  C   C43       1.0  0.23581441813481518  0.068799404944194  0.3193307807481318  1.0000
  C   C44       1.0  0.6952562095619541  0.0688144526798524  0.18072816018552368  1.0000
  N   N1        1.0  0.9236137526682952  0.925998296745874  0.6695889010753504  1.0000
  N   N2        1.0  0.1505049192993512  0.9260052418546394  0.8303872551978344  1.0000
  N   N3        1.0  0.0763866155984374  0.074001291409175  0.3304106588172288  1.0000
  N   N4        1.0  0.8494948702082467  0.0739955038185371  0.1696123046946738  1.0000
  N   N5        1.0  0.1062560357841988  0.0270893967378711  0.6106772218141785  1.0000
  N   N6        1.0  0.8667800030475163  0.027087081701616  0.8893288135144174  1.0000
  N   N7        1.0  0.8937431687245764  0.9729101914171778  0.3893223892617215  1.0000
  N   N8        1.0  0.13322152897718098  0.972912506453433  0.1106713137196493  1.0000
  N   N9        1.0  0.1042079773841422  0.5394474331036463  0.680680383147404  1.0000
  N   N10       1.0  0.3563930451157589  0.5394034474147986  0.8193323649233405  1.0000
  N   N11       1.0  0.8957900633666682  0.4605521550514027  0.3193192791118236  1.0000
  N   N12       1.0  0.6436061593930162  0.4605961407402503  0.1806672461525665  1.0000
  N   N13       1.0  0.5015708510879265  0.6856199797624214  0.605668810643401  1.0000
  N   N14       1.0  0.8128172265542662  0.6855794666279564  0.8943416611788351  1.0000
  N   N15       1.0  0.4984295171788062  0.3143796083926276  0.3943307492491783  1.0000
  N   N16       1.0  0.1871819779545092  0.3144201215270925  0.10565856842188738  1.0000
  O   O1        1.0  0.6111027662666118  0.5466552984835857  0.5979522390209765  1.0000
  O   O2        1.0  0.8422430325184821  0.5466171003853759  0.9020721127430917  1.0000
  O   O3        1.0  0.3888946957250712  0.4533454471895908  0.4020474232381801  1.0000
  O   O4        1.0  0.15775617199029313  0.453382487769673  0.09792873538244609  1.0000
  O   O5        1.0  0.5376198671700081  0.7956733307706969  0.5865074835603323  1.0000
  O   O6        1.0  0.6666985353258215  0.7956258725274736  0.9134791043352236  1.0000
  O   O7        1.0  0.46238107985585936  0.2043250998662245  0.4134920763323108  1.0000
  O   O8        1.0  0.3333012479420816  0.2043725581094549  0.0865211252655627  1.0000
  O   O9        1.0  0.3431359584246395  0.7181068835288258  0.6335851355025284  1.0000
  O   O10       1.0  0.9387733642158836  0.718068685430616  0.8664440972698342  1.0000
  O   O11       1.0  0.6568638310829655  0.2818938621443507  0.36641442438997984  1.0000
  O   O12       1.0  0.0612240977757992  0.2819320602425606  0.1335555649893294  1.0000
