data_image0
_chemical_formula_structural       Zn4H42C66N10O20
_chemical_formula_sum              "Zn4 H42 C66 N10 O20"
_cell_length_a       9.691002865868272
_cell_length_b       12.662560285942414
_cell_length_c       14.273855608169937
_cell_angle_alpha    114.66450698355804
_cell_angle_beta     90.73434905237177
_cell_angle_gamma    109.10065229632583

_space_group_name_H-M_alt    "P 1"
_space_group_IT_number       1

loop_
  _space_group_symop_operation_xyz
  'x, y, z'

loop_
  _atom_site_type_symbol
  _atom_site_label
  _atom_site_symmetry_multiplicity
  _atom_site_fract_x
  _atom_site_fract_y
  _atom_site_fract_z
  _atom_site_occupancy
  Zn  Zn1       1.0  0.6221605554056993  0.5925824020911392  0.35888783884196573  1.0000
  Zn  Zn2       1.0  0.3778402867315691  0.40741777769513016  0.6411093322811041  1.0000
  Zn  Zn3       1.0  0.8788037135133776  0.8654442031927303  0.4403277742198241  1.0000
  Zn  Zn4       1.0  0.12119286835194029  0.13455593720915002  0.5596742036785471  1.0000
  H   H1        1.0  0.6798973672728222  0.03960077173758951  0.4571624503465728  1.0000
  H   H2        1.0  0.3201048740235207  0.9604003363572958  0.5428364918535422  1.0000
  H   H3        1.0  0.35850226829538195  0.5810813450083571  0.39209825101802653  1.0000
  H   H4        1.0  0.6415003391568916  0.41892068870182436  0.607902441031527  1.0000
  H   H5        1.0  0.39099316239727955  0.4797482296237662  0.418646371654951  1.0000
  H   H6        1.0  0.6090080458959264  0.5202528757777998  0.5813525493175645  1.0000
  H   H7        1.0  0.15573958263077972  0.15074597874191653  0.7574022692661584  1.0000
  H   H8        1.0  0.8442607284456047  0.8492532386433357  0.24259944131766534  1.0000
  H   H9        1.0  0.1510509480072884  0.1439025400609708  0.9291654310548266  1.0000
  H   H10       1.0  0.8489475061402273  0.8560948029638595  0.07083625266373864  1.0000
  H   H11       1.0  0.8118745385030195  0.7786439666754674  0.7799900837432218  1.0000
  H   H12       1.0  0.1881216588835954  0.2213552440238118  0.22001084311795438  1.0000
  H   H13       1.0  0.44834096797864476  0.14840444070639341  0.3571983373381755  1.0000
  H   H14       1.0  0.5516608705162156  0.851595733598586  0.642800252636981  1.0000
  H   H15       1.0  0.3583606462349706  0.6932323804731553  0.19000817216963375  1.0000
  H   H16       1.0  0.6416370052790299  0.30676777079664674  0.8099924293318564  1.0000
  H   H17       1.0  0.8486257335144104  0.18085263589285458  0.2956016650972586  1.0000
  H   H18       1.0  0.1513818848444614  0.8191512925196064  0.7043970210636344  1.0000
  H   H19       1.0  0.34876488292447755  0.37166856651236196  0.963850353927654  1.0000
  H   H20       1.0  0.6512325094007778  0.6283260078411885  0.03614468261810084  1.0000
  H   H21       1.0  0.9110526294416984  0.3621128041532203  0.4729643577319109  1.0000
  H   H22       1.0  0.08895148710628568  0.637890182389384  0.527033912521226  1.0000
  H   H23       1.0  0.5661287520778657  0.07977341884836871  0.9687798351091315  1.0000
  H   H24       1.0  0.4338711745198081  0.9202248688342819  0.031220824437497078  1.0000
  H   H25       1.0  0.4366871453897048  0.5440846417542177  0.14751334264389726  1.0000
  H   H26       1.0  0.5633139791160602  0.45591368540748095  0.8524810488201452  1.0000
  H   H27       1.0  0.7237118073056551  0.07942432268149702  0.10661449424666358  1.0000
  H   H28       1.0  0.276288558739047  0.9205749069656619  0.8933851199004293  1.0000
  H   H29       1.0  0.8215033114178141  0.5356097593576974  0.5003670341609164  1.0000
  H   H30       1.0  0.17849584919189707  0.46439134474453436  0.49963114554415705  1.0000
  H   H31       1.0  0.24991003578659834  0.9992408424038501  0.19895439342540291  1.0000
  H   H32       1.0  0.7500890332092425  0.0007602412618652021  0.8010472803408886  1.0000
  H   H33       1.0  0.4224433109007109  0.18515222565815753  0.9143248335718113  1.0000
  H   H34       1.0  0.5775536053319712  0.8148413985562755  0.08567264599796685  1.0000
  H   H35       1.0  0.7991963853912053  0.609312511099965  0.8028206889162561  1.0000
  H   H36       1.0  0.2008094781490115  0.39069232527924685  0.19718180107560102  1.0000
  H   H37       1.0  0.8211243319172823  0.3184679083762845  0.6137872156015688  1.0000
  H   H38       1.0  0.17888055358811525  0.681536937571515  0.38621315672596507  1.0000
  H   H39       1.0  0.9711632858634542  0.7281629727636415  0.9748950613946619  1.0000
  H   H40       1.0  0.02884131430400317  0.271839049983953  0.025108468359071875  1.0000
  H   H41       1.0  0.17156768717747883  0.4508009516679222  0.8805178092130672  1.0000
  H   H42       1.0  0.8284311697715127  0.5491973251468067  0.11948422673044935  1.0000
  C   C1        1.0  0.986114202741568  0.9683716151176682  0.6699044160055931  1.0000
  C   C2        1.0  0.013884042328541598  0.031627596880945  0.330097252123032  1.0000
  C   C3        1.0  0.7780355119142328  0.7459179822588878  0.5888521236875518  1.0000
  C   C4        1.0  0.22196196419846356  0.25407937033453004  0.4111474423666834  1.0000
  C   C5        1.0  0.083227004263307  0.0680349413718204  0.7629649997645771  1.0000
  C   C6        1.0  0.9167729040115943  0.9319633422235326  0.23703635859429528  1.0000
  C   C7        1.0  0.8885561944126079  0.8597135863929142  0.6762537073873388  1.0000
  C   C8        1.0  0.11144312030618408  0.140285636473628  0.32374658434439846  1.0000
  C   C9        1.0  0.0800218270512829  0.06530252975208839  0.8580760557777508  1.0000
  C   C10       1.0  0.9199766454189986  0.9346948173600398  0.14192492912856378  1.0000
  C   C11       1.0  0.889408325011388  0.8594617196183733  0.7744497625645292  1.0000
  C   C12       1.0  0.11058850257688142  0.1405365599843265  0.22555083329929454  1.0000
  C   C13       1.0  0.9801442473694593  0.9601130166141304  0.8654902320739877  1.0000
  C   C14       1.0  0.019853173774919197  0.0398843237173807  0.13451143041697827  1.0000
  C   C15       1.0  0.42776023891291  0.0487058503962388  0.3194448943421547  1.0000
  C   C16       1.0  0.572242002383433  0.9512952576986465  0.68055404785796  1.0000
  C   C17       1.0  0.5172187985245316  0.0045471839287288  0.3602504774723485  1.0000
  C   C18       1.0  0.4827824280914469  0.9954539255601419  0.6397477446879235  1.0000
  C   C19       1.0  0.5852205320358834  0.8249463029388197  0.3530797374163939  1.0000
  C   C20       1.0  0.41477752227959996  0.17505478212088832  0.6469212163100548  1.0000
  C   C21       1.0  0.4906411714180407  0.8738695082269244  0.3132146778779869  1.0000
  C   C22       1.0  0.5093589672264827  0.12613158630671964  0.6867856194914166  1.0000
  C   C23       1.0  0.3784805281771639  0.7926318171571297  0.22609517746888486  1.0000
  C   C24       1.0  0.6215195738218143  0.20736926920190507  0.7739065175250062  1.0000
  C   C25       1.0  0.013486788986334347  0.30884233326759863  0.6821245122792589  1.0000
  C   C26       1.0  0.986513752459672  0.6911596950559442  0.3178761373150961  1.0000
  C   C27       1.0  0.8102694285334807  0.25733421236611786  0.31012329526402727  1.0000
  C   C28       1.0  0.18973426689024817  0.7426678362992903  0.6898753215764016  1.0000
  C   C29       1.0  0.4159228535451618  0.36372347060511606  0.020584656398547528  1.0000
  C   C30       1.0  0.5840753077375139  0.6362729631536297  0.9794124822216047  1.0000
  C   C31       1.0  0.8460937100415364  0.3580423673346688  0.40796372745992215  1.0000
  C   C32       1.0  0.15390895237905494  0.6419596786374199  0.5920348681529005  1.0000
  C   C33       1.0  0.5945304587360171  0.15451898256473842  0.048313236423702194  1.0000
  C   C34       1.0  0.4054691017057266  0.845478379502616  0.9516856732734879  1.0000
  C   C35       1.0  0.46366510858573656  0.4605383819581805  0.12325784712592737  1.0000
  C   C36       1.0  0.5363351736715244  0.539458069449104  0.8767372375126923  1.0000
  C   C37       1.0  0.6815204438697079  0.15443868106906677  0.12428961640922147  1.0000
  C   C38       1.0  0.3184799404977667  0.8455605526653972  0.8757092989256278  1.0000
  C   C39       1.0  0.7952810353810733  0.4552438970742329  0.42407391947691747  1.0000
  C   C40       1.0  0.20471917655454772  0.5447572138086231  0.5759235826435114  1.0000
  C   C41       1.0  0.31807917423927995  0.9663489186677838  0.23286757847338185  1.0000
  C   C42       1.0  0.6819209460824709  0.03365217177855579  0.7671334177082656  1.0000
  C   C43       1.0  0.45584223764520704  0.26082071478660407  0.99374473661706  1.0000
  C   C44       1.0  0.5441544695100687  0.739174778401626  0.0062527273627778854  1.0000
  C   C45       1.0  0.5841534398704197  0.3559069895922207  0.17184666709769655  1.0000
  C   C46       1.0  0.4158469628198204  0.6440922482295477  0.8281515494249163  1.0000
  C   C47       1.0  0.5428237726727687  0.25455622258696314  0.07003121795657556  1.0000
  C   C48       1.0  0.45717542161303726  0.745440213865095  0.9299659418911758  1.0000
  C   C49       1.0  0.722412652808039  0.25386667855861594  0.22849358274464035  1.0000
  C   C50       1.0  0.27758752248202956  0.7461344241496375  0.7715053170002759  1.0000
  C   C51       1.0  0.29296126509523635  0.8376212994112464  0.18377778546716425  1.0000
  C   C52       1.0  0.7070378039006117  0.16237978425447613  0.8162238882991275  1.0000
  C   C53       1.0  0.6743167357589568  0.35534062260847316  0.25239560938400263  1.0000
  C   C54       1.0  0.32568406973277314  0.6446595490031868  0.7476029593635543  1.0000
  C   C55       1.0  0.9968342876689251  0.41947280547596233  0.7663918083417798  1.0000
  C   C56       1.0  0.0031657960072805666  0.5805282767957679  0.23361058546435487  1.0000
  C   C57       1.0  0.8880222525515293  0.4629147802978721  0.7455343849766151  1.0000
  C   C58       1.0  0.11198007253225477  0.5370891060368805  0.2544690867319801  1.0000
  C   C59       1.0  0.8801075823681613  0.5749131056367391  0.8211878274974679  1.0000
  C   C60       1.0  0.11989617852023564  0.42509171718123184  0.17881601766367783  1.0000
  C   C61       1.0  0.974786734536494  0.6402019788700885  0.9166494780412575  1.0000
  C   C62       1.0  0.02521436382007641  0.35979910200765636  0.08335363580471981  1.0000
  C   C63       1.0  0.07981673630843734  0.5952775110505186  0.9400365876327965  1.0000
  C   C64       1.0  0.9201835564451741  0.40472170224742143  0.05996582176327079  1.0000
  C   C65       1.0  0.08929383350695724  0.48519895958870046  0.8641764511438835  1.0000
  C   C66       1.0  0.9107054262435169  0.5148002510159273  0.13582593702458468  1.0000
  N   N1        1.0  0.9614601076363698  0.9508344537736023  0.9590052795975053  1.0000
  N   N2        1.0  0.03853566862598969  0.049163819048480696  0.040995993850962996  1.0000
  N   N3        1.0  0.18609952766527713  0.7673543100240818  0.09207216762702314  1.0000
  N   N4        1.0  0.8139001532094454  0.2326458384577492  0.9079298739541598  1.0000
  N   N5        1.0  0.5449599603188062  0.456517675687138  0.19680080615485446  1.0000
  N   N6        1.0  0.45504112754141346  0.5434806432999508  0.8031949829336753  1.0000
  N   N7        1.0  0.7116593879983029  0.4542666189769308  0.34862415959902643  1.0000
  N   N8        1.0  0.2883414358161929  0.5457335567220413  0.6513737103362941  1.0000
  N   N9        1.0  0.18283816403482678  0.6579038791443707  0.03431086905676741  1.0000
  N   N10       1.0  0.8171610957156474  0.34209533146025717  0.9656915191117006  1.0000
  O   O1        1.0  0.9900055138011011  0.9836040439023891  0.584030146324494  1.0000
  O   O2        1.0  0.009992101067354006  0.016396099192803604  0.4159718528014834  1.0000
  O   O3        1.0  0.6930370573411366  0.6635521439402297  0.610315780819377  1.0000
  O   O4        1.0  0.3069632354124749  0.33644706935771035  0.38968662857669756  1.0000
  O   O5        1.0  0.7743521644823801  0.7341314524413535  0.4933735359184793  1.0000
  O   O6        1.0  0.22564795583937067  0.26586963800497904  0.5066274602631609  1.0000
  O   O7        1.0  0.6251832670164532  0.0882046597081114  0.4425164955263695  1.0000
  O   O8        1.0  0.3748200805741178  0.9117964674292978  0.557479672652377  1.0000
  O   O9        1.0  0.5583499747055071  0.7086787227497382  0.3117152152098227  1.0000
  O   O10       1.0  0.4416501822617889  0.2913223758712036  0.68828438334733  1.0000
  O   O11       1.0  0.6960431513323186  0.906808270975347  0.4272928382266911  1.0000
  O   O12       1.0  0.3039530094087439  0.09319093154933003  0.5727094862589793  1.0000
  O   O13       1.0  0.9167684738754432  0.2444771308354419  0.5983493573374757  1.0000
  O   O14       1.0  0.08323438226923219  0.7555277179003353  0.40164957491036546  1.0000
  O   O15       1.0  0.1286364310253347  0.28300772796100665  0.6941754597709673  1.0000
  O   O16       1.0  0.8713588874672239  0.7169895988092633  0.3058275578892803  1.0000
  O   O17       1.0  0.4371757731784171  0.565829083908362  0.423774155897476  1.0000
  O   O18       1.0  0.5628254534375614  0.4341720255805086  0.5762240662627959  1.0000
  O   O19       1.0  0.7940234169719672  0.39804698287964163  0.6530664671770765  1.0000
  O   O20       1.0  0.2059797870058659  0.6019587873841205  0.3469349137324471  1.0000
