data_image0
_chemical_formula_structural       Cd2H16C20I4Br4N4
_chemical_formula_sum              "Cd2 H16 C20 I4 Br4 N4"
_cell_length_a       4.166755989315281
_cell_length_b       12.320682040461111
_cell_length_c       14.782891116369527
_cell_angle_alpha    90.0004554332127
_cell_angle_beta     89.99937323735536
_cell_angle_gamma    86.26359490720141

_space_group_name_H-M_alt    "P 1"
_space_group_IT_number       1

loop_
  _space_group_symop_operation_xyz
  'x, y, z'

loop_
  _atom_site_type_symbol
  _atom_site_label
  _atom_site_symmetry_multiplicity
  _atom_site_fract_x
  _atom_site_fract_y
  _atom_site_fract_z
  _atom_site_occupancy
  Cd  Cd1       1.0  0.9999949500499169  3.0944988936007635e-06  3.128566326900001e-06  1.0000
  Cd  Cd2       1.0  0.9999996939843568  0.5000007404900869  0.4999967916992745  1.0000
  H   H1        1.0  0.7781415713649762  0.9000995691758293  0.8055069076189554  1.0000
  H   H2        1.0  0.7781205446616256  0.4000928804632905  0.6944879013964851  1.0000
  H   H3        1.0  0.2218859152994739  0.09990990642378957  0.19450316448133262  1.0000
  H   H4        1.0  0.2218431664920715  0.5999043748850424  0.3055039064131435  1.0000
  H   H5        1.0  0.9655858654872559  0.1118657593643846  0.5805273064990004  1.0000
  H   H6        1.0  0.965578438394182  0.6118456196225494  0.91947466402042  1.0000
  H   H7        1.0  0.03444247081276333  0.8881339619668223  0.4194746480790741  1.0000
  H   H8        1.0  0.03442479883669589  0.38813897749646026  0.08052052597656  1.0000
  H   H9        1.0  0.18749628829577597  0.23997003955858534  0.6922127727281406  1.0000
  H   H10       1.0  0.1874803182329075  0.7399593370562058  0.8077951623637887  1.0000
  H   H11       1.0  0.8125024918967937  0.7600381593904401  0.3077885054648489  1.0000
  H   H12       1.0  0.8125347974721893  0.2600267403183593  0.19220205699147636  1.0000
  H   H13       1.0  0.1893072533535829  0.19137060345524765  0.8572723548513039  1.0000
  H   H14       1.0  0.18928010483013225  0.6913679739903245  0.6427312279781177  1.0000
  H   H15       1.0  0.8106884149371467  0.8086457531002438  0.1427282469131654  1.0000
  H   H16       1.0  0.8107177580595034  0.3086231841234123  0.3572632855892479  1.0000
  C   C1        1.0  0.8677476334389026  0.9745655293948514  0.7779115701269036  1.0000
  C   C2        1.0  0.8677183081235924  0.47455924307202213  0.7220840683139897  1.0000
  C   C3        1.0  0.13228480290881353  0.025442262297893592  0.22209511967211878  1.0000
  C   C4        1.0  0.13224801945768408  0.5254355446172668  0.2779057101111349  1.0000
  C   C5        1.0  0.8554951642828071  0.9969505954491495  0.685448687281415  1.0000
  C   C6        1.0  0.8554506029192768  0.49694063331834565  0.8145498289083618  1.0000
  C   C7        1.0  0.1445350804284757  0.0030547867761611986  0.31455732605633097  1.0000
  C   C8        1.0  0.1445087956712925  0.5030509902664518  0.18544468472218506  1.0000
  C   C9        1.0  0.9704898672125567  0.09298638385919838  0.6525591606857191  1.0000
  C   C10       1.0  0.9704651238645422  0.5929762214072909  0.8474440352705555  1.0000
  C   C11       1.0  0.029538115099278204  0.9070174017427919  0.34744482327794657  1.0000
  C   C12       1.0  0.029525385363086822  0.40701664969366647  0.152551831229033  1.0000
  C   C13       1.0  0.0923893433932506  0.16433638921265734  0.7151087642056736  1.0000
  C   C14       1.0  0.09236232556337139  0.664324757861948  0.7848976757952357  1.0000
  C   C15       1.0  0.9076214568395143  0.8356716642921141  0.28489521979822996  1.0000
  C   C16       1.0  0.9076310123808824  0.33566320704762376  0.21510022005827514  1.0000
  C   C17       1.0  0.09521521514677998  0.1375758713267459  0.8066076970717191  1.0000
  C   C18       1.0  0.09519102135543274  0.6375721365140663  0.6933965460555669  1.0000
  C   C19       1.0  0.9047834234132281  0.8624339533414087  0.19339628695696828  1.0000
  C   C20       1.0  0.9047948213741536  0.3624191670786843  0.30660134981987136  1.0000
  I   I1        1.0  0.47798418248918034  0.16969455694412258  0.030877997408559597  1.0000
  I   I2        1.0  0.4779921920559005  0.6696958855754499  0.4691273107553897  1.0000
  I   I3        1.0  0.5220030731241465  0.8303080975056079  0.969123957244193  1.0000
  I   I4        1.0  0.5220118917282123  0.3303065652190966  0.5308726144967366  1.0000
  Br  Br1       1.0  0.6859112527095945  0.8933471694005207  0.6058356740439806  1.0000
  Br  Br2       1.0  0.6858612942763997  0.393336519737339  0.8941600678499596  1.0000
  Br  Br3       1.0  0.3141168710749938  0.10665499052868907  0.3941737215759602  1.0000
  Br  Br4       1.0  0.3140905383498093  0.6066592553708786  0.1058324164320368  1.0000
  N   N1        1.0  0.9856589515657959  0.0440946731461409  0.8374091659165899  1.0000
  N   N2        1.0  0.985643182648964  0.5440904993261383  0.662593015372728  1.0000
  N   N3        1.0  0.014356373519127903  0.9559165735898246  0.1625961710048287  1.0000
  N   N4        1.0  0.014337568897971687  0.45590411385398977  0.33740420406302  1.0000
