data_image0
_chemical_formula_structural       Gd2H24C30N12O24
_chemical_formula_sum              "Gd2 H24 C30 N12 O24"
_cell_length_a       7.964026447607131
_cell_length_b       11.350267502894656
_cell_length_c       12.999348946953642
_cell_angle_alpha    83.58408587975728
_cell_angle_beta     81.0140334429204
_cell_angle_gamma    77.55351110001662

_space_group_name_H-M_alt    "P 1"
_space_group_IT_number       1

loop_
  _space_group_symop_operation_xyz
  'x, y, z'

loop_
  _atom_site_type_symbol
  _atom_site_label
  _atom_site_symmetry_multiplicity
  _atom_site_fract_x
  _atom_site_fract_y
  _atom_site_fract_z
  _atom_site_occupancy
  Gd  Gd1       1.0  0.7692954168233967  0.8334435629370418  0.7225928444035361  1.0000
  Gd  Gd2       1.0  0.23070914800579354  0.1665564878067229  0.2774080147206064  1.0000
  H   H1        1.0  0.06328942682270629  0.7285653804147642  0.4265552674032804  1.0000
  H   H2        1.0  0.936714999974143  0.2714264447992463  0.5734493373319154  1.0000
  H   H3        1.0  0.30435652952984793  0.56164511202374  0.37264743854071003  1.0000
  H   H4        1.0  0.6956388766204357  0.4383429565676522  0.6273637565723718  1.0000
  H   H5        1.0  0.4987334342029684  0.576799087757024  0.6642936534957471  1.0000
  H   H6        1.0  0.5012742572365171  0.4231990681946485  0.3357101204086632  1.0000
  H   H7        1.0  0.24566503320131264  0.7410008388531183  0.7066422270165588  1.0000
  H   H8        1.0  0.7543509593759552  0.2589992233937863  0.293356714777147  1.0000
  H   H9        1.0  0.05102857378712867  0.6949697003035736  0.9469138947943279  1.0000
  H   H10       1.0  0.9489678236908505  0.3050277047668359  0.0530856858333024  1.0000
  H   H11       1.0  0.990857660013596  0.6756491951196608  0.14392307143334188  1.0000
  H   H12       1.0  0.009139060866665724  0.324347222177316  0.856079633220915  1.0000
  H   H13       1.0  0.713973427162486  0.0475095091798181  0.12651396984902163  1.0000
  H   H14       1.0  0.28602744113550227  0.9524898259509271  0.8734803917076234  1.0000
  H   H15       1.0  0.7782953024776943  0.04952681193417161  0.9308826155540615  1.0000
  H   H16       1.0  0.22170205890480335  0.9504715591882373  0.06911448306892254  1.0000
  H   H17       1.0  0.742190180150942  0.03726717505728061  0.47041113730737283  1.0000
  H   H18       1.0  0.25783411356410796  0.9627347934848631  0.5295829723756285  1.0000
  H   H19       1.0  0.846395404988911  0.038453572175427615  0.27647974447167195  1.0000
  H   H20       1.0  0.1536186987580451  0.9615439427870243  0.7235134334071988  1.0000
  H   H21       1.0  0.7529666317035009  0.6756534203494837  0.2902215124049405  1.0000
  H   H22       1.0  0.24702272246375398  0.32434658055741045  0.70978318574781  1.0000
  H   H23       1.0  0.6528959363516262  0.6908979866505548  0.4831006706998764  1.0000
  H   H24       1.0  0.34710029998292674  0.3091091641050739  0.5169058464254945  1.0000
  C   C1        1.0  0.16200866738969927  0.6881324877547002  0.47593342765937047  1.0000
  C   C2        1.0  0.8379998183193467  0.3118584501184287  0.5240700707458146  1.0000
  C   C3        1.0  0.2997264434322845  0.5957227419822573  0.4479954298723285  1.0000
  C   C4        1.0  0.7002768224682401  0.40426893935631364  0.5520146892634585  1.0000
  C   C5        1.0  0.4257540800874367  0.5489986610738811  0.5146233757390704  1.0000
  C   C6        1.0  0.5742519258158653  0.4509921960444743  0.4853834559390862  1.0000
  C   C7        1.0  0.4045335816169101  0.6030231313034236  0.6094807186364761  1.0000
  C   C8        1.0  0.59548198325124  0.39697413424188716  0.39052156634539154  1.0000
  C   C9        1.0  0.26561838897497136  0.6955756904497649  0.6351790476113663  1.0000
  C   C10       1.0  0.7344018911089236  0.30442262088048017  0.3648172945620232  1.0000
  C   C11       1.0  0.9752370216158256  0.7676497155161217  0.9924869316411957  1.0000
  C   C12       1.0  0.02475762924361649  0.23234495597334615  0.007513811046976603  1.0000
  C   C13       1.0  0.939934304995667  0.7600858708652467  0.10028447384950569  1.0000
  C   C14       1.0  0.060067210106879536  0.2399114887186258  0.8997161357603858  1.0000
  C   C15       1.0  0.8449363537322727  0.860889789231642  0.151885255967116  1.0000
  C   C16       1.0  0.15506206636259628  0.13910942374510438  0.8481139779681398  1.0000
  C   C17       1.0  0.7875759897251413  0.967142017861242  0.09012600832783595  1.0000
  C   C18       1.0  0.21242694647078508  0.03285458062306651  0.9098691326968051  1.0000
  C   C19       1.0  0.8217566678388903  0.9707894686665666  0.9828069952395353  1.0000
  C   C20       1.0  0.178243449347697  0.02920805753601029  0.0171875854786379  1.0000
  C   C21       1.0  0.7448491424693916  0.9626231827219555  0.42436818292825507  1.0000
  C   C22       1.0  0.2551478207500465  0.03738524457980932  0.5756243089001671  1.0000
  C   C23       1.0  0.8002580922273879  0.9605890651904689  0.3185099458793985  1.0000
  C   C24       1.0  0.1997248370277589  0.039419435450255905  0.6814816401298742  1.0000
  C   C25       1.0  0.8012653010408856  0.858856237783918  0.26588797621513993  1.0000
  C   C26       1.0  0.19871010766761538  0.14114764163657872  0.7341085793508597  1.0000
  C   C27       1.0  0.7517997497454373  0.7580727644531395  0.3259359788331366  1.0000
  C   C28       1.0  0.24817932389164102  0.24193187197960242  0.6740655351947282  1.0000
  C   C29       1.0  0.6957816039503871  0.7636595347459687  0.43150372919858887  1.0000
  C   C30       1.0  0.30421300375089544  0.23634416375020353  0.5684970698272878  1.0000
  N   N1        1.0  0.14452630181828152  0.7361372026057253  0.5692134907631824  1.0000
  N   N2        1.0  0.8554873921437502  0.2638619774094552  0.4307849823547373  1.0000
  N   N3        1.0  0.9153065394721265  0.8717165397552412  0.9353230586118428  1.0000
  N   N4        1.0  0.08469010240158781  0.1282799810397819  0.0646757982783086  1.0000
  N   N5        1.0  0.6876003926772256  0.8662998266423613  0.47879615068085  1.0000
  N   N6        1.0  0.31239723314808293  0.1337066044129287  0.5212033587536382  1.0000
  N   N7        1.0  0.9002599164261297  0.5700917377388848  0.7191891536970587  1.0000
  N   N8        1.0  0.09972953992508592  0.42990756518910445  0.2808078947428356  1.0000
  N   N9        1.0  0.49964878541911883  0.7565131167635355  0.8779540037439871  1.0000
  N   N10       1.0  0.5003476479072404  0.24349321181554026  0.12204948098544578  1.0000
  N   N11       1.0  0.6728935957236645  0.09430095312250591  0.7314856784329961  1.0000
  N   N12       1.0  0.32711121350126166  0.9056982133458715  0.26851445695366755  1.0000
  O   O1        1.0  0.01164539323139734  0.8247278878429328  0.5943025296366712  1.0000
  O   O2        1.0  0.9883607507042453  0.17527119480517683  0.4057005564304248  1.0000
  O   O3        1.0  0.9508963666628887  0.87778841516635  0.8319669627083145  1.0000
  O   O4        1.0  0.04910822764603747  0.12220711172425783  0.1680342530233858  1.0000
  O   O5        1.0  0.6203094227376909  0.8718230842504443  0.5781370405904553  1.0000
  O   O6        1.0  0.3796933070337616  0.12818780447185674  0.4218639107715489  1.0000
  O   O7        1.0  0.7784123297005792  0.6295446731260483  0.6673385767359575  1.0000
  O   O8        1.0  0.22156427780917912  0.37045537939836504  0.3326658576196166  1.0000
  O   O9        1.0  0.9671822238321324  0.6326701523798378  0.7713836401888869  1.0000
  O   O10       1.0  0.03281606985226655  0.36732922619378183  0.2286094373238114  1.0000
  O   O11       1.0  0.948361426794314  0.4589928136814834  0.717244526143098  1.0000
  O   O12       1.0  0.051630493561333465  0.5410065907008955  0.2827484194710054  1.0000
  O   O13       1.0  0.4718999906393933  0.7918090412306711  0.7828434029378285  1.0000
  O   O14       1.0  0.528096679772922  0.20821435358838164  0.2171633184936326  1.0000
  O   O15       1.0  0.6541825408722416  0.7538543697705508  0.8970960784619207  1.0000
  O   O16       1.0  0.34580868632401973  0.24614819912041233  0.10291361405285929  1.0000
  O   O17       1.0  0.3849021270774102  0.7290296708341656  0.9456108762971382  1.0000
  O   O18       1.0  0.6150957525762949  0.2709624078843049  0.0543851314584458  1.0000
  O   O19       1.0  0.7928416922177917  0.047502071820673605  0.6607480152031044  1.0000
  O   O20       1.0  0.20717076396424972  0.9525015502710519  0.3392533070493826  1.0000
  O   O21       1.0  0.5930688453404969  0.01896039931317971  0.7916149597555489  1.0000
  O   O22       1.0  0.40693874916825473  0.9810333983822093  0.20838301433386863  1.0000
  O   O23       1.0  0.6363043466198661  0.20373396003568436  0.7424715168283953  1.0000
  O   O24       1.0  0.36368546473624985  0.7962643137196534  0.25753019474376526  1.0000
