data_image0
_chemical_formula_structural       Ag4H56C48S4N12O12
_chemical_formula_sum              "Ag4 H56 C48 S4 N12 O12"
_cell_length_a       7.009995355604153
_cell_length_b       12.691480906463378
_cell_length_c       14.558420542052328
_cell_angle_alpha    90.00019508596934
_cell_angle_beta     89.99975137419126
_cell_angle_gamma    94.18188445894401

_space_group_name_H-M_alt    "P 1"
_space_group_IT_number       1

loop_
  _space_group_symop_operation_xyz
  'x, y, z'

loop_
  _atom_site_type_symbol
  _atom_site_label
  _atom_site_symmetry_multiplicity
  _atom_site_fract_x
  _atom_site_fract_y
  _atom_site_fract_z
  _atom_site_occupancy
  Ag  Ag1       1.0  0.822682545189501  0.053113311817256204  0.7900973005383064  1.0000
  Ag  Ag2       1.0  0.6773161535236268  0.4468863063655989  0.2900994288488618  1.0000
  Ag  Ag3       1.0  0.17733295528773851  0.9468859171736103  0.20990174212914064  1.0000
  Ag  Ag4       1.0  0.32267365523713915  0.5531128098873239  0.7099037351711743  1.0000
  H   H1        1.0  0.4994480984434587  0.0546931908500312  0.9267834810549543  1.0000
  H   H2        1.0  0.0005548164822996971  0.44531030223200213  0.42678184876101705  1.0000
  H   H3        1.0  0.5005661606762642  0.9453076119043262  0.07322105671771338  1.0000
  H   H4        1.0  0.9994420964248717  0.5547006892019937  0.5732192546062365  1.0000
  H   H5        1.0  0.13769964405272359  0.06277040361926822  0.9243447287596067  1.0000
  H   H6        1.0  0.36230167864530927  0.43723149452428345  0.4243423246110751  1.0000
  H   H7        1.0  0.8623118534341285  0.9372311766128619  0.07565774835396867  1.0000
  H   H8        1.0  0.6376903943784739  0.5627747380606465  0.5756553443155994  1.0000
  H   H9        1.0  0.9840045347474199  0.09854393340570061  0.6225295731995998  1.0000
  H   H10       1.0  0.5159927569821078  0.40145507747036663  0.1225236572128026  1.0000
  H   H11       1.0  0.015996506539529845  0.901453652948611  0.3774790859081421  1.0000
  H   H12       1.0  0.483997144796774  0.5985448287802699  0.8774733248190144  1.0000
  H   H13       1.0  0.08770061985178049  0.9821287126023889  0.584916469595555  1.0000
  H   H14       1.0  0.41229413159696543  0.5178687244464726  0.08491408842346708  1.0000
  H   H15       1.0  0.9123016627926857  0.0178672999884313  0.41508669440696616  1.0000
  H   H16       1.0  0.5876956771756738  0.4821303918015759  0.9150863280457671  1.0000
  H   H17       1.0  0.20585030091498166  0.1076844180039203  0.5621199916877229  1.0000
  H   H18       1.0  0.29414806980752667  0.39231300936792485  0.06211690792998329  1.0000
  H   H19       1.0  0.7941607316088906  0.8923132121872399  0.437883859195864  1.0000
  H   H20       1.0  0.7058389773233386  0.6076868843615486  0.9378835085432582  1.0000
  H   H21       1.0  0.679309955749183  0.013331507960984404  0.6323474472970715  1.0000
  H   H22       1.0  0.8206890504180746  0.4866707040725374  0.1323480237841252  1.0000
  H   H23       1.0  0.3206982221504049  0.9866661096992645  0.3676543429263432  1.0000
  H   H24       1.0  0.17929961000032793  0.5133307759428051  0.8676551402406076  1.0000
  H   H25       1.0  0.5194861478406237  0.08836219606232731  0.5682418688354927  1.0000
  H   H26       1.0  0.9805089442183073  0.4116381896194029  0.0682384572994792  1.0000
  H   H27       1.0  0.4805209746813047  0.9116385753799963  0.4317661033830048  1.0000
  H   H28       1.0  0.019475248282333317  0.5883616915816108  0.9317612722889945  1.0000
  H   H29       1.0  0.46697394140582554  0.9504127466624156  0.5844750484927559  1.0000
  H   H30       1.0  0.03302652313078622  0.5495847138708501  0.08447079816295398  1.0000
  H   H31       1.0  0.5330370911091435  0.049584883532404  0.4155308630539308  1.0000
  H   H32       1.0  0.966959003703934  0.4504143835814389  0.9155268707598765  1.0000
  H   H33       1.0  0.21840080382639115  0.17786936623064525  0.074661297341585  1.0000
  H   H34       1.0  0.2816051530754392  0.3221328770288281  0.5746600541874114  1.0000
  H   H35       1.0  0.7815926035255315  0.822136082608012  0.9253356846948506  1.0000
  H   H36       1.0  0.7184017835052073  0.677866314379067  0.42533830160112973  1.0000
  H   H37       1.0  0.3475597870516579  0.17750630025485492  0.23256290774789784  1.0000
  H   H38       1.0  0.15244015182418738  0.3224933246358077  0.7325619326808805  1.0000
  H   H39       1.0  0.6524455362384812  0.8224913048683933  0.7674333873768544  1.0000
  H   H40       1.0  0.8475594621906735  0.6775042554365953  0.2674364231128337  1.0000
  H   H41       1.0  0.7781762713613387  0.2021793446909754  0.34106121975720066  1.0000
  H   H42       1.0  0.7218200018186847  0.2978157080641495  0.8410614016356774  1.0000
  H   H43       1.0  0.22182886592817397  0.7978166804222226  0.6589391966915911  1.0000
  H   H44       1.0  0.2781808535299533  0.7021802982545113  0.158936954154413  1.0000
  H   H45       1.0  0.6524997713283581  0.20737978229616524  0.1821931619522701  1.0000
  H   H46       1.0  0.8475041415232524  0.29261947167965024  0.6821937554417374  1.0000
  H   H47       1.0  0.3474926131032348  0.7926169764530828  0.8178072545107895  1.0000
  H   H48       1.0  0.1525057426790255  0.707380522265396  0.3178052872326517  1.0000
  H   H49       1.0  0.28460616332322525  0.20281734118760403  0.3991058021773667  1.0000
  H   H50       1.0  0.21539758110151297  0.2971789498415022  0.8991046216689893  1.0000
  H   H51       1.0  0.715397639650014  0.7971794676669932  0.6008925536108691  1.0000
  H   H52       1.0  0.7846067798112769  0.7028225990688455  0.10089579478881919  1.0000
  H   H53       1.0  0.0523366637471625  0.21343920130226485  0.4371294135704815  1.0000
  H   H54       1.0  0.4476683654908768  0.2865588109692326  0.937128408194077  1.0000
  H   H55       1.0  0.9476730344693249  0.7865592126266351  0.5628703159894498  1.0000
  H   H56       1.0  0.5523345680964197  0.7134427316811485  0.0628740689283021  1.0000
  C   C1        1.0  0.4222963895012412  0.0427273497314076  0.7035993046710018  1.0000
  C   C2        1.0  0.07770417155673932  0.45727533239033863  0.20359823536758626  1.0000
  C   C3        1.0  0.5777151079826409  0.9572742305019378  0.2964038593302759  1.0000
  C   C4        1.0  0.9222877154842163  0.5427293201772302  0.7963994335569353  1.0000
  C   C5        1.0  0.41788395450441124  0.052853060858858214  0.86311937616162  1.0000
  C   C6        1.0  0.08211494948823629  0.4471478174376671  0.36311826761529176  1.0000
  C   C7        1.0  0.5821255577144199  0.9471437730587695  0.1368837878346483  1.0000
  C   C8        1.0  0.9178785508402637  0.5528584214157705  0.6368821488607139  1.0000
  C   C9        1.0  0.22197207218525244  0.060514689746888506  0.8616970456305706  1.0000
  C   C10       1.0  0.27802665811985616  0.4394846034806506  0.36169413551585455  1.0000
  C   C11       1.0  0.7780378120081223  0.9394853042018102  0.13830405770691095  1.0000
  C   C12       1.0  0.721965414903927  0.5605216291042867  0.63830353341082  1.0000
  C   C13       1.0  0.22419714861381115  0.05657853352390421  0.7019468782272467  1.0000
  C   C14       1.0  0.27580305475873246  0.4434209826959688  0.20194467130747273  1.0000
  C   C15       1.0  0.7758124566142398  0.9434190903950963  0.29805216444390237  1.0000
  C   C16       1.0  0.7241882743308066  0.5565789298207237  0.7980536844982707  1.0000
  C   C17       1.0  0.11981320392791868  0.061922281782337114  0.613173627736664  1.0000
  C   C18       1.0  0.38018339141212454  0.4380761105468168  0.1131718760224771  1.0000
  C   C19       1.0  0.8801892647112338  0.9380753108209703  0.3868267887172151  1.0000
  C   C20       1.0  0.6198064173664476  0.5619230056987945  0.8868271666713525  1.0000
  C   C21       1.0  0.5280604193504813  0.0232625997918134  0.617470317711877  1.0000
  C   C22       1.0  0.9719383433907324  0.4767363993953638  0.11746711754283008  1.0000
  C   C23       1.0  0.4719477585342702  0.9767350178745319  0.3825349069500347  1.0000
  C   C24       1.0  0.028047276435401607  0.5232634880656093  0.8825305513810803  1.0000
  C   C25       1.0  0.9255735354326972  0.192828648984289  0.11829719043488747  1.0000
  C   C26       1.0  0.5744244437724078  0.30717587694152837  0.6182977048486646  1.0000
  C   C27       1.0  0.07442350291728425  0.8071712885893451  0.8817025391403914  1.0000
  C   C28       1.0  0.425578489823792  0.6928256657051863  0.3817027116106146  1.0000
  C   C29       1.0  0.12111846580356912  0.18292870230668976  0.1327501244238007  1.0000
  C   C30       1.0  0.37887994567329025  0.3170745058259996  0.6327500388969652  1.0000
  C   C31       1.0  0.878882078125386  0.8170767778525347  0.8672482313806994  1.0000
  C   C32       1.0  0.6211187059790644  0.6829270180274067  0.36724900379130787  1.0000
  C   C33       1.0  0.1940697296201606  0.18110444569173012  0.221862048274744  1.0000
  C   C34       1.0  0.3059263917293861  0.3188982824556775  0.721857997658887  1.0000
  C   C35       1.0  0.8059317766653818  0.8188970906889282  0.7781369944105945  1.0000
  C   C36       1.0  0.694072166934525  0.6811024513878295  0.27814035814060384  1.0000
  C   C37       1.0  0.07291109186243719  0.18945195152292635  0.2992153573576175  1.0000
  C   C38       1.0  0.42708523058466596  0.31054631740083494  0.7992151527642617  1.0000
  C   C39       1.0  0.9270884291610241  0.8105448385407926  0.7007829984350167  1.0000
  C   C40       1.0  0.5729158107438225  0.6894512689364093  0.2007838899156837  1.0000
  C   C41       1.0  0.8751415267866631  0.19660774561452854  0.28301154483972357  1.0000
  C   C42       1.0  0.6248529512067833  0.3033918286205265  0.7830098830892849  1.0000
  C   C43       1.0  0.12485656692020092  0.8033890381855643  0.7169868109543742  1.0000
  C   C44       1.0  0.37514961042970896  0.6966065539890283  0.21698915959027687  1.0000
  C   C45       1.0  0.804080707732545  0.1989914399443081  0.19416887984517933  1.0000
  C   C46       1.0  0.6959175783760186  0.30100941150161026  0.6941698116518822  1.0000
  C   C47       1.0  0.19591747896275538  0.801006133865684  0.8058301628377007  1.0000
  C   C48       1.0  0.30408820986522755  0.6989921436674821  0.3058278572536608  1.0000
  S   S1        1.0  0.8295717095804774  0.19815544581034317  0.0057631119408015  1.0000
  S   S2        1.0  0.6704284831304718  0.30184710693631445  0.5057654727066989  1.0000
  S   S3        1.0  0.17042266012506246  0.8018460592509628  0.9942352438641747  1.0000
  S   S4        1.0  0.3295717818212864  0.6981560031980862  0.49423356998226337  1.0000
  N   N1        1.0  0.14143027855666898  0.18878158947344306  0.38708333388140653  1.0000
  N   N2        1.0  0.35857118005790056  0.3112185963975734  0.8870812122633607  1.0000
  N   N3        1.0  0.8585719111052866  0.811213633105041  0.6129177694569349  1.0000
  N   N4        1.0  0.6414370908449669  0.6887798112664855  0.11291783041033908  1.0000
  N   N5        1.0  0.12766292016129907  0.06494014223714831  0.7814082202295294  1.0000
  N   N6        1.0  0.37233783806889414  0.4350580822737271  0.2814085364242445  1.0000
  N   N7        1.0  0.8723492607227356  0.935055124184274  0.2185915093231472  1.0000
  N   N8        1.0  0.6276523426782815  0.564944194005392  0.7185898193862029  1.0000
  N   N9        1.0  0.5163519878806824  0.044922376165715115  0.7844410847792815  1.0000
  N   N10       1.0  0.9836472246768436  0.4550811719747473  0.2844377959822495  1.0000
  N   N11       1.0  0.4836563759898523  0.9550768215167693  0.21556345299708815  1.0000
  N   N12       1.0  0.016346461643379905  0.5449266468923994  0.7155605598328164  1.0000
  O   O1        1.0  0.8253821174178596  0.0898584867886356  0.9677842101558198  1.0000
  O   O2        1.0  0.6746077236897106  0.41014015074328103  0.46778760852666307  1.0000
  O   O3        1.0  0.1746064500210025  0.9101422032131482  0.032216206317038094  1.0000
  O   O4        1.0  0.3253863670297363  0.5898589842968606  0.5322134948258679  1.0000
  O   O5        1.0  0.9606825122534132  0.27255385084389877  0.9536289603123932  1.0000
  O   O6        1.0  0.5393177213445098  0.22744715031142707  0.4536293473737486  1.0000
  O   O7        1.0  0.039311950440570335  0.7274484442273137  0.046370082381351097  1.0000
  O   O8        1.0  0.4606847472946356  0.7725504422918805  0.5463710690801307  1.0000
  O   O9        1.0  0.6370862780049718  0.23553296080680747  0.0171389136892302  1.0000
  O   O10       1.0  0.8629138164387481  0.264469632313805  0.5171393915785032  1.0000
  O   O11       1.0  0.3629052370733206  0.7644685317248161  0.9828580683432688  1.0000
  O   O12       1.0  0.13709215779421408  0.7355335028689967  0.4828562166661001  1.0000
