data_image0
_chemical_formula_structural       Gd2H20C14O22
_chemical_formula_sum              "Gd2 H20 C14 O22"
_cell_length_a       6.062558110910634
_cell_length_b       8.597522497886573
_cell_length_c       12.957726168841457
_cell_angle_alpha    99.06780855967513
_cell_angle_beta     101.93885484985003
_cell_angle_gamma    97.8453532691309

_space_group_name_H-M_alt    "P 1"
_space_group_IT_number       1

loop_
  _space_group_symop_operation_xyz
  'x, y, z'

loop_
  _atom_site_type_symbol
  _atom_site_label
  _atom_site_symmetry_multiplicity
  _atom_site_fract_x
  _atom_site_fract_y
  _atom_site_fract_z
  _atom_site_occupancy
  Gd  Gd1       1.0  0.7458370989307355  0.2211109277850767  0.7173103555102498  1.0000
  Gd  Gd2       1.0  0.2541612743950877  0.7788866592884672  0.2826890091584246  1.0000
  H   H1        1.0  0.6675663197658536  0.30125816070367517  0.9503249025882708  1.0000
  H   H2        1.0  0.33243263200547096  0.6987418609306959  0.04967325677293392  1.0000
  H   H3        1.0  0.11727234257967468  0.5097200033401637  0.7524950284930157  1.0000
  H   H4        1.0  0.8827415028967492  0.49027877495730376  0.2475090457526434  1.0000
  H   H5        1.0  0.662717261549588  0.9110178113863154  0.8087390081372732  1.0000
  H   H6        1.0  0.33728930025851156  0.08898579165319379  0.19126184094047718  1.0000
  H   H7        1.0  0.43683428763580406  0.24974920895986943  0.07058862382833547  1.0000
  H   H8        1.0  0.5631719909969063  0.750253240363115  0.9294105202819194  1.0000
  H   H9        1.0  0.009435524959890512  0.2831639408135587  0.5369326148276129  1.0000
  H   H10       1.0  0.9905690344626166  0.7168313743306102  0.46306399154845207  1.0000
  H   H11       1.0  0.17230231117166278  0.26133040254708817  0.6458428173772077  1.0000
  H   H12       1.0  0.8276966034539653  0.7386624302205219  0.3541552747816255  1.0000
  H   H13       1.0  0.3140383204024886  0.8756811926934489  0.8173496060571492  1.0000
  H   H14       1.0  0.6859645367976481  0.124313965259077  0.18265222185785748  1.0000
  H   H15       1.0  0.2432690133477279  0.008592173646505302  0.9807225235416723  1.0000
  H   H16       1.0  0.7567285314713387  0.991408971640517  0.01927794708351623  1.0000
  H   H17       1.0  0.7820492327291859  0.5724804852148395  0.996972246968262  1.0000
  H   H18       1.0  0.21795675869656608  0.42752076801568245  0.0030267305886510893  1.0000
  H   H19       1.0  0.05652840851215766  0.6989735461928392  0.896284507033137  1.0000
  H   H20       1.0  0.9434817815967234  0.3010241030121747  0.10371599800969011  1.0000
  C   C1        1.0  0.40129225937859286  0.0007333385873166988  0.8467216657682853  1.0000
  C   C2        1.0  0.5987050002492963  0.9992666317952158  0.1532778690964846  1.0000
  C   C3        1.0  0.25816018867525503  0.1054637738140656  0.7861214491940416  1.0000
  C   C4        1.0  0.7418530985135376  0.8945327818021767  0.21387613828832022  1.0000
  C   C5        1.0  0.4157281390230878  0.0439473946777866  0.9677901645357563  1.0000
  C   C6        1.0  0.5842727860512793  0.9560538107370107  0.032209093496454934  1.0000
  C   C7        1.0  0.8920385087669516  0.5033235548062366  0.957564405404959  1.0000
  C   C8        1.0  0.10796381721231538  0.4966764633920207  0.04243484898450589  1.0000
  C   C9        1.0  0.5526234486914843  0.9291199179967364  0.5195389846640096  1.0000
  C   C10       1.0  0.44735441118334046  0.0708834917761507  0.48046063334781747  1.0000
  C   C11       1.0  0.7219821361001948  0.5921856659611251  0.7902230206326804  1.0000
  C   C12       1.0  0.27802193615604415  0.40782856934290374  0.20978268472874356  1.0000
  C   C13       1.0  0.9497413555587357  0.5799822498654662  0.8653356987674172  1.0000
  C   C14       1.0  0.050262656516615274  0.42001775602075503  0.13466448773971956  1.0000
  O   O1        1.0  0.48669971343442586  0.7935878522398954  0.4583428984344805  1.0000
  O   O2        1.0  0.5132806630590281  0.20641200819543576  0.5416557765314352  1.0000
  O   O3        1.0  0.05701216604979459  0.10518534038466502  0.7970488283824507  1.0000
  O   O4        1.0  0.9429763266503239  0.894806179471068  0.20295042738071328  1.0000
  O   O5        1.0  0.7758638513021905  0.34474348288352985  0.9080980035525669  1.0000
  O   O6        1.0  0.22413678656521793  0.655256526438805  0.09190108792630976  1.0000
  O   O7        1.0  0.06893159878001852  0.47036065942779  0.8125319553290637  1.0000
  O   O8        1.0  0.9310754982805205  0.5296381257419043  0.18746992886006805  1.0000
  O   O9        1.0  0.6412964680192558  0.4798563048373268  0.7107042477011161  1.0000
  O   O10       1.0  0.35870812048580797  0.5201461144217633  0.2892955027056203  1.0000
  O   O11       1.0  0.6220929309908811  0.019233321879013908  0.8234261505369246  1.0000
  O   O12       1.0  0.3779085564026943  0.9807701485929246  0.17657805584443048  1.0000
  O   O13       1.0  0.48623535936494006  0.21343486315990395  0.00207919399014138  1.0000
  O   O14       1.0  0.5137678262194355  0.7865687221277612  0.9979213292664253  1.0000
  O   O15       1.0  0.6257891682322949  0.7103700306061212  0.8168952945887894  1.0000
  O   O16       1.0  0.3742196601331714  0.28963601587014415  0.1831045120920791  1.0000
  O   O17       1.0  0.35453530019642426  0.1855639715499819  0.727402941373242  1.0000
  O   O18       1.0  0.6454624926681162  0.8144311597747702  0.2725983978099861  1.0000
  O   O19       1.0  0.025809072884641182  0.29710787228391666  0.614115640927224  1.0000
  O   O20       1.0  0.9741858951349086  0.7028825929228547  0.3858802538895887  1.0000
  O   O21       1.0  0.6963698118213627  0.9618941905850563  0.6095794675850357  1.0000
  O   O22       1.0  0.3036026965109002  0.0381079964676019  0.39041949514167834  1.0000
