data_image0
_chemical_formula_structural       Li2H12C8N2O8
_chemical_formula_sum              "Li2 H12 C8 N2 O8"
_cell_length_a       4.9639380242826725
_cell_length_b       5.714025574248528
_cell_length_c       10.405127860008061
_cell_angle_alpha    93.26907962054894
_cell_angle_beta     89.99752461142313
_cell_angle_gamma    90.00178692044173

_space_group_name_H-M_alt    "P 1"
_space_group_IT_number       1

loop_
  _space_group_symop_operation_xyz
  'x, y, z'

loop_
  _atom_site_type_symbol
  _atom_site_label
  _atom_site_symmetry_multiplicity
  _atom_site_fract_x
  _atom_site_fract_y
  _atom_site_fract_z
  _atom_site_occupancy
  Li  Li1       1.0  0.7297476346399421  0.9605856591671368  0.5897875422680414  1.0000
  Li  Li2       1.0  0.22976522371147473  0.03940352930720789  0.41021122231165913  1.0000
  H   H1        1.0  0.27149024540350547  0.6701540425214745  0.9474312386388347  1.0000
  H   H2        1.0  0.7715389670809358  0.329852208409953  0.05256429742706808  1.0000
  H   H3        1.0  0.10342367995181688  0.8686802724274115  0.8605825051605718  1.0000
  H   H4        1.0  0.6034611257519843  0.1313325363367426  0.13941808547828316  1.0000
  H   H5        1.0  0.0087199384896195  0.5906751659707224  0.8565650397470889  1.0000
  H   H6        1.0  0.5087406639282789  0.40933114677785193  0.14343688310382416  1.0000
  H   H7        1.0  0.543542652051798  0.7611969120568741  0.7652017159258548  1.0000
  H   H8        1.0  0.043566280890374294  0.23879117026748276  0.2348021089190979  1.0000
  H   H9        1.0  0.25338742333399  0.28866323717824827  0.7268187864443405  1.0000
  H   H10       1.0  0.7534668834431101  0.7113434727217364  0.2732013102702382  1.0000
  H   H11       1.0  0.4942629716979283  0.3763042800003972  0.6166082201216411  1.0000
  H   H12       1.0  0.9943459382828977  0.6236767979377404  0.38339315100643734  1.0000
  C   C1        1.0  0.21896074615811048  0.7478580371136443  0.6262700894933885  1.0000
  C   C2        1.0  0.7189543416899156  0.2521474958267618  0.3737305292491797  1.0000
  C   C3        1.0  0.3610559234053596  0.658178804248891  0.7448367824669687  1.0000
  C   C4        1.0  0.8610992186598806  0.3418342636656887  0.255175173622348  1.0000
  C   C5        1.0  0.4331465201153791  0.4000790883931769  0.7181102181981274  1.0000
  C   C6        1.0  0.9331844743532044  0.5999212805529837  0.2818952505616821  1.0000
  C   C7        1.0  0.6607934740187389  0.308721986658952  0.8002854674219435  1.0000
  C   C8        1.0  0.1608651239624592  0.6912781284843206  0.19970017615423066  1.0000
  N   N1        1.0  0.17983352292236535  0.7005763899719426  0.8587587006703571  1.0000
  N   N2        1.0  0.6798855850620596  0.2994442017777458  0.14123919843761706  1.0000
  O   O1        1.0  0.3643419593499431  0.8588963197910643  0.5491815073085107  1.0000
  O   O2        1.0  0.8643362262058645  0.14108823965987938  0.4508140114128451  1.0000
  O   O3        1.0  0.971176092604729  0.7045621829994032  0.6138624955931674  1.0000
  O   O4        1.0  0.47118929156134465  0.2954440564430171  0.3861306949377692  1.0000
  O   O5        1.0  0.763552693909496  0.11126424926128203  0.7669130825943212  1.0000
  O   O6        1.0  0.26359799440075443  0.8887201571810266  0.2330769354864088  1.0000
  O   O7        1.0  0.7369718710554379  0.4376338882530175  0.8981157448413484  1.0000
  O   O8        1.0  0.23701336846055196  0.5623617152607563  0.10188476331272509  1.0000
