data_image0
_chemical_formula_structural       Ag4H22Pb2C38N14
_chemical_formula_sum              "Ag4 H22 Pb2 C38 N14"
_cell_length_a       9.922889974500091
_cell_length_b       9.922987001823559
_cell_length_c       11.52680568323196
_cell_angle_alpha    98.52726027841581
_cell_angle_beta     98.52665649122264
_cell_angle_gamma    109.72174345211366

_space_group_name_H-M_alt    "P 1"
_space_group_IT_number       1

loop_
  _space_group_symop_operation_xyz
  'x, y, z'

loop_
  _atom_site_type_symbol
  _atom_site_label
  _atom_site_symmetry_multiplicity
  _atom_site_fract_x
  _atom_site_fract_y
  _atom_site_fract_z
  _atom_site_occupancy
  Ag  Ag1       1.0  0.3647459034050015  0.6352544285238861  0.7499999828385244  1.0000
  Ag  Ag2       1.0  0.6352537347673888  0.3647469599241191  0.2499973009376292  1.0000
  Ag  Ag3       1.0  0.49999596889321646  0.500004021930067  0.5000003084948903  1.0000
  Ag  Ag4       1.0  0.5000012727348633  0.5000044200905193  2.3272570359869664e-06  1.0000
  H   H1        1.0  0.8887146460282763  0.3727047251754455  0.038323283491379756  1.0000
  H   H2        1.0  0.6272958421855891  0.11128724561550739  0.4616788660437481  1.0000
  H   H3        1.0  0.11128474208629766  0.6272933386842608  0.961677001583894  1.0000
  H   H4        1.0  0.37270336311217983  0.8887130270670127  0.5383208172640013  1.0000
  H   H5        1.0  0.09141638864898029  0.461845259610115  0.22332087798668715  1.0000
  H   H6        1.0  0.538157388850017  0.9085876056728565  0.2766785919050393  1.0000
  H   H7        1.0  0.9085826001672003  0.53815172203781  0.7766774775927632  1.0000
  H   H8        1.0  0.46183751986109906  0.09140939922505709  0.7233218341638904  1.0000
  H   H9        1.0  0.2933615060321769  0.36315360880509207  0.22765330374267737  1.0000
  H   H10       1.0  0.6368472401805931  0.7066415160517251  0.2723442493564222  1.0000
  H   H11       1.0  0.7066374693535095  0.6368433594213484  0.7723467834477378  1.0000
  H   H12       1.0  0.3631523711308161  0.2933598455533185  0.727656497641661  1.0000
  H   H13       1.0  0.28328124114498365  0.17758588455779997  0.05398568953818031  1.0000
  H   H14       1.0  0.8224150627367948  0.7167219353240527  0.44601099009590706  1.0000
  H   H15       1.0  0.7167200075629337  0.8224143798550967  0.9460125256220808  1.0000
  H   H16       1.0  0.17758905483905346  0.2832805120857457  0.5539861526865764  1.0000
  H   H17       1.0  0.23588672975242286  0.9936730175419087  0.929475875922684  1.0000
  H   H18       1.0  0.006326973952141719  0.764112469487486  0.5705203409345715  1.0000
  H   H19       1.0  0.7641124688300991  0.006327248429869296  0.07052467319054763  1.0000
  H   H20       1.0  0.9936742949015097  0.23588781505763737  0.4294752768092352  1.0000
  H   H21       1.0  0.1977081008751327  0.8022867212199642  0.7499992553815036  1.0000
  H   H22       1.0  0.802291713398823  0.19771245169448548  0.24999949596764998  1.0000
  Pb  Pb1       1.0  0.8022007897224698  0.19779869719430818  0.7500071552022194  1.0000
  Pb  Pb2       1.0  0.19779175827966353  0.8021894579738029  0.2500013433799709  1.0000
  C   C1        1.0  0.1777978978960561  0.4648666882913231  0.7437533918410821  1.0000
  C   C2        1.0  0.535127833286026  0.8221955571932965  0.7562415246791759  1.0000
  C   C3        1.0  0.8222055501778412  0.5351313321861682  0.2562474201611593  1.0000
  C   C4        1.0  0.4648725429573942  0.17780246897788737  0.24376235534977303  1.0000
  C   C5        1.0  0.6582725085802181  0.42333597054502536  0.5555982230466088  1.0000
  C   C6        1.0  0.5766751474866466  0.3417129763262423  0.9444090093439147  1.0000
  C   C7        1.0  0.34171564758231193  0.5766676118120344  0.44441432602254605  1.0000
  C   C8        1.0  0.4233277319910869  0.6582916504874701  0.05559259477221452  1.0000
  C   C9        1.0  0.9793063373495771  0.33332740550457624  0.04506695654679055  1.0000
  C   C10       1.0  0.6666742558437804  0.0206972161757903  0.4549340155118245  1.0000
  C   C11       1.0  0.02069364631068989  0.6666695451655755  0.9549341281808525  1.0000
  C   C12       1.0  0.333329875162562  0.9793052446554924  0.5450613956596941  1.0000
  C   C13       1.0  0.09217339169693867  0.3832779179679021  0.14693468091292775  1.0000
  C   C14       1.0  0.6167179145065376  0.9078259043614522  0.35306373617741127  1.0000
  C   C15       1.0  0.9078237499563783  0.6167168765483168  0.8530640129705561  1.0000
  C   C16       1.0  0.3832814668927896  0.0921721527875121  0.646937414703345  1.0000
  C   C17       1.0  0.20306559943492178  0.326826240824431  0.14964654370798067  1.0000
  C   C18       1.0  0.6731744708504407  0.7969372608197884  0.35035211652977694  1.0000
  C   C19       1.0  0.796934390940592  0.6731707165564627  0.8503536752141873  1.0000
  C   C20       1.0  0.32682717044063037  0.20306407909414045  0.6496488939317973  1.0000
  C   C21       1.0  0.19707846263160894  0.2221807127517437  0.05207146179453303  1.0000
  C   C22       1.0  0.777821286120165  0.8029250196143635  0.4479269392129838  1.0000
  C   C23       1.0  0.802920898621984  0.7778173242649868  0.9479322865026706  1.0000
  C   C24       1.0  0.22218097086233973  0.1970752272422374  0.5520722734845054  1.0000
  C   C25       1.0  0.0790731566593763  0.17557818216059934  0.9533222348943301  1.0000
  C   C26       1.0  0.8244229784491499  0.9209299836256836  0.5466764414166935  1.0000
  C   C27       1.0  0.9209276860349007  0.824420993329781  0.046674916575597185  1.0000
  C   C28       1.0  0.175579671116509  0.0790713387319499  0.45332556658210893  1.0000
  C   C29       1.0  0.06388763886695159  0.061477837223861784  0.8478543090936984  1.0000
  C   C30       1.0  0.9385227557683603  0.9361124016971013  0.6521468453363825  1.0000
  C   C31       1.0  0.9361131568206104  0.9385212912913232  0.15214890301461995  1.0000
  C   C32       1.0  0.0614833917871493  0.0638900240215889  0.347850560909592  1.0000
  C   C33       1.0  0.15251764959494815  0.9773492789743514  0.8504032031946382  1.0000
  C   C34       1.0  0.02264819601376179  0.8474808176598072  0.6495981392710918  1.0000
  C   C35       1.0  0.8474827467942135  0.022648767329059186  0.14959807941785647  1.0000
  C   C36       1.0  0.9773550759585776  0.1525194183512468  0.35040120515814277  1.0000
  C   C37       1.0  0.13047110307419263  0.8695325139745548  0.7499990214514087  1.0000
  C   C38       1.0  0.869529719474343  0.1304666413835989  0.25000072743497276  1.0000
  N   N1        1.0  0.06534418841759758  0.37139026103871936  0.7380612473492365  1.0000
  N   N2        1.0  0.6286108960884319  0.9346667348731966  0.7619369294288775  1.0000
  N   N3        1.0  0.9346596992461685  0.6286088819149995  0.2619362993159201  1.0000
  N   N4        1.0  0.3713885726976471  0.0653368758191135  0.23805802096878648  1.0000
  N   N5        1.0  0.7469289075648361  0.3746914418951803  0.5865096811192744  1.0000
  N   N6        1.0  0.6253050471111125  0.25307040724327823  0.9134941344724228  1.0000
  N   N7        1.0  0.2530560677295667  0.6253089624928518  0.4134907553605417  1.0000
  N   N8        1.0  0.3746978794618982  0.746939732849327  0.08650646399351561  1.0000
  N   N9        1.0  0.9731007246045988  0.232268320220264  0.951311229389731  1.0000
  N   N10       1.0  0.7677343997991103  0.026902630564585202  0.5486868240416031  1.0000
  N   N11       1.0  0.026902790710309307  0.7677352336683467  0.048685979545865586  1.0000
  N   N12       1.0  0.23226828334277627  0.973098725346766  0.4513108549297727  1.0000
  N   N13       1.0  0.9599904755058476  0.0400154735359095  0.7499967770027072  1.0000
  N   N14       1.0  0.0400132226258662  0.9599858715298877  0.2500010337004143  1.0000
