data_image0
_chemical_formula_structural       Li4H36C24O16
_chemical_formula_sum              "Li4 H36 C24 O16"
_cell_length_a       7.447933720026364
_cell_length_b       8.14726102670735
_cell_length_c       11.494505769520554
_cell_angle_alpha    93.63703294773184
_cell_angle_beta     90.00015132784716
_cell_angle_gamma    89.99972436275857

_space_group_name_H-M_alt    "P 1"
_space_group_IT_number       1

loop_
  _space_group_symop_operation_xyz
  'x, y, z'

loop_
  _atom_site_type_symbol
  _atom_site_label
  _atom_site_symmetry_multiplicity
  _atom_site_fract_x
  _atom_site_fract_y
  _atom_site_fract_z
  _atom_site_occupancy
  Li  Li1       1.0  0.0154851286882973  0.05373537995722439  0.8880822032140544  1.0000
  Li  Li2       1.0  0.515481278854537  0.9462677789810099  0.6119170034855159  1.0000
  Li  Li3       1.0  0.9845150614363404  0.9462624777792783  0.11191734603088578  1.0000
  Li  Li4       1.0  0.48451756861117445  0.053732553745021484  0.3880835051481171  1.0000
  H   H1        1.0  0.7977445896932096  0.7610786251028754  0.9304037104792117  1.0000
  H   H2        1.0  0.297743490315831  0.2389246059373136  0.5695977187372067  1.0000
  H   H3        1.0  0.2022556004250688  0.2389216922073132  0.06959592754991212  1.0000
  H   H4        1.0  0.7022553571530635  0.7610744970018715  0.4304027455043382  1.0000
  H   H5        1.0  0.9626883890454891  0.6683691238669169  0.8399792773822838  1.0000
  H   H6        1.0  0.4626885020729432  0.3316284934972985  0.6600222295844347  1.0000
  H   H7        1.0  0.0373118010727822  0.3316311934432718  0.1600203606468327  1.0000
  H   H8        1.0  0.537311688055112  0.6683693950652269  0.339979060871606  1.0000
  H   H9        1.0  0.5638303715336477  0.570790841299157  0.839207712789367  1.0000
  H   H10       1.0  0.0638339964002697  0.4292207379777508  0.6607927501001498  1.0000
  H   H11       1.0  0.4361698185846236  0.42920947601103177  0.1607919252397565  1.0000
  H   H12       1.0  0.9361688790235903  0.5707820697264906  0.3392087179263399  1.0000
  H   H13       1.0  0.7287768654522325  0.4745957607430427  0.7487757860754485  1.0000
  H   H14       1.0  0.2287803415555913  0.5254102202624223  0.751225625173035  1.0000
  H   H15       1.0  0.2712233246694494  0.5254045873931685  0.2512255931647758  1.0000
  H   H16       1.0  0.7712238765240116  0.4745913422391438  0.248774927856843  1.0000
  H   H17       1.0  0.7440910028401504  0.4934206916232853  0.0165511292004794  1.0000
  H   H18       1.0  0.24409416873344716  0.5065815011833337  0.4834495717853073  1.0000
  H   H19       1.0  0.2559078446221434  0.5065796102767165  0.9834476382220458  1.0000
  H   H20       1.0  0.7559073640393237  0.4934200767368892  0.5165518518480569  1.0000
  H   H21       1.0  0.8987547834042359  0.38967883700703254  0.9216337262726954  1.0000
  H   H22       1.0  0.3987544284484272  0.610323968709686  0.57836785929873  1.0000
  H   H23       1.0  0.1012467493702403  0.6103227563262122  0.0783685679662156  1.0000
  H   H24       1.0  0.6012444190109177  0.38967882359002454  0.4216327381190865  1.0000
  H   H25       1.0  0.496780474044314  0.30203854780776845  0.938372174184643  1.0000
  H   H26       1.0  0.9967804287711814  0.6979638143271671  0.561627821910605  1.0000
  H   H27       1.0  0.5032197160854466  0.6979593561677716  0.061629986876951606  1.0000
  H   H28       1.0  0.0032197613551688  0.3020340588223504  0.43837259793988176  1.0000
  H   H29       1.0  0.6556635435561944  0.2012325842483307  0.8429598193534177  1.0000
  H   H30       1.0  0.1556625017704221  0.7987699381980846  0.6570369925148755  1.0000
  H   H31       1.0  0.34433664656332036  0.7987652272491418  0.1570371180748609  1.0000
  H   H32       1.0  0.8443376883480835  0.20123163972496624  0.34296443111744424  1.0000
  H   H33       1.0  0.619056456372924  0.0521634062871854  0.16652637605336204  1.0000
  H   H34       1.0  0.1190513017827541  0.9478355465922164  0.3334696451800312  1.0000
  H   H35       1.0  0.38094641906343435  0.9478332216568289  0.8334731288015576  1.0000
  H   H36       1.0  0.8809475456829573  0.0521647861338153  0.6665308634536018  1.0000
  C   C1        1.0  0.7783051344136709  0.8178398117062001  0.7531589791350725  1.0000
  C   C2        1.0  0.27830236328578195  0.18216597617758623  0.7468433793793068  1.0000
  C   C3        1.0  0.22169505570607834  0.18215926040413416  0.24683974389640176  1.0000
  C   C4        1.0  0.721693798869687  0.8178343411410864  0.2531562586466976  1.0000
  C   C5        1.0  0.8179354238461727  0.6963973022327962  0.8443118761048467  1.0000
  C   C6        1.0  0.31793566859562356  0.30360459858750494  0.6556886693685087  1.0000
  C   C7        1.0  0.18206476627528187  0.30360178529055293  0.15568771753218164  1.0000
  C   C8        1.0  0.6820631788715658  0.6963944889386653  0.3443109242674823  1.0000
  C   C9        1.0  0.7073387061694945  0.5389548017674597  0.8347820316763049  1.0000
  C   C10       1.0  0.20734083678438955  0.461048825349458  0.6652201282082189  1.0000
  C   C11       1.0  0.29266014129132856  0.4610467453324034  0.16521765074386963  1.0000
  C   C12       1.0  0.7926593533372923  0.5389515227867534  0.3347812510320054  1.0000
  C   C13       1.0  0.7567972126519963  0.4257499652952816  0.930777432410416  1.0000
  C   C14       1.0  0.2567983555759952  0.5742485190092381  0.5692237558566191  1.0000
  C   C15       1.0  0.2432029774677531  0.5742491068150528  0.0692212906210656  1.0000
  C   C16       1.0  0.7432018345488772  0.42575059934012666  0.4307775789915171  1.0000
  C   C17       1.0  0.6392509233215689  0.270585525766691  0.9276742127698088  1.0000
  C   C18       1.0  0.13925259577219856  0.729413407247847  0.5723241817302025  1.0000
  C   C19       1.0  0.3607492667949971  0.7294147761304897  0.0723245546537612  1.0000
  C   C20       1.0  0.8607475943509683  0.2705856956885099  0.4276762825123799  1.0000
  C   C21       1.0  0.694809776502403  0.1584044756811451  0.0202022870903917  1.0000
  C   C22       1.0  0.194813830547254  0.8415904842581341  0.4797945888385371  1.0000
  C   C23       1.0  0.30518772831858587  0.8415921676871817  0.9797980883659321  1.0000
  C   C24       1.0  0.8051850169199355  0.15840860326804318  0.5202050047974467  1.0000
  O   O1        1.0  0.8666071319458625  0.9557945170043991  0.7637541561057404  1.0000
  O   O2        1.0  0.36660908026224337  0.0442109298837536  0.7362500803067179  1.0000
  O   O3        1.0  0.1333903728655841  0.044205815724453104  0.2362463525268552  1.0000
  O   O4        1.0  0.6333897672017627  0.955789387429263  0.2637495577213684  1.0000
  O   O5        1.0  0.6674716378468302  0.7843318816008703  0.6728705659018318  1.0000
  O   O6        1.0  0.16747035340260646  0.2156743267254768  0.8271290092370479  1.0000
  O   O7        1.0  0.33252586695801506  0.21566965008880604  0.32712824591175155  1.0000
  O   O8        1.0  0.8325231234648952  0.7843173666779465  0.17286944743667482  1.0000
  O   O9        1.0  0.5759193113850928  0.1332530542960413  0.10030369485205172  1.0000
  O   O10       1.0  0.07592022472137216  0.8667473870593196  0.3996966570335942  1.0000
  O   O11       1.0  0.4240808787414848  0.8667460794663383  0.8996985106016382  1.0000
  O   O12       1.0  0.9240786227443394  0.1332529456667046  0.600303851600046  1.0000
  O   O13       1.0  0.8495105631970147  0.0972329757147534  0.0197796281497844  1.0000
  O   O14       1.0  0.34950892281732837  0.9027761365216804  0.4802206317590035  1.0000
  O   O15       1.0  0.1504909695645011  0.9027722761529872  0.9802210580543046  1.0000
  O   O16       1.0  0.6504885819845683  0.09722788556769757  0.519780010049864  1.0000
