data_image0
_chemical_formula_structural       Zn16C96S16N16O84F16
_chemical_formula_sum              "Zn16 C96 S16 N16 O84 F16"
_cell_length_a       19.597252276476684
_cell_length_b       19.559247218931652
_cell_length_c       33.27211165593733
_cell_angle_alpha    79.07319459361788
_cell_angle_beta     78.96635422833253
_cell_angle_gamma    63.853980718481104

_space_group_name_H-M_alt    "P 1"
_space_group_IT_number       1

loop_
  _space_group_symop_operation_xyz
  'x, y, z'

loop_
  _atom_site_type_symbol
  _atom_site_label
  _atom_site_symmetry_multiplicity
  _atom_site_fract_x
  _atom_site_fract_y
  _atom_site_fract_z
  _atom_site_occupancy
  Zn  Zn1       1.0  0.0574658944166941  0.40128573934183015  0.4765468774612955  1.0000
  Zn  Zn2       1.0  0.9837772048477618  0.48489277735086506  0.5598473787307582  1.0000
  Zn  Zn3       1.0  0.0610495621852465  0.5606674045274572  0.4820701194220262  1.0000
  Zn  Zn4       1.0  0.9005089986929493  0.5526287931027343  0.4787349248630192  1.0000
  Zn  Zn5       1.0  0.6957142348830772  0.35027238002645333  0.270232599472898  1.0000
  Zn  Zn6       1.0  0.6932844389822749  0.1863917362804273  0.26498526146826856  1.0000
  Zn  Zn7       1.0  0.7678624579051532  0.26767813598223  0.18880139483028557  1.0000
  Zn  Zn8       1.0  0.848857810505841  0.1949533745532578  0.2722562711101161  1.0000
  Zn  Zn9       1.0  0.26585596592858013  0.7667532430367103  0.6886276049130158  1.0000
  Zn  Zn10      1.0  0.34958116987198207  0.6941853101153442  0.7711031257058494  1.0000
  Zn  Zn11      1.0  0.19595410829296617  0.8499748696967016  0.7702226925522736  1.0000
  Zn  Zn12      1.0  0.1928844095165942  0.6862536602672761  0.7649393603028896  1.0000
  Zn  Zn13      1.0  0.5612979582988872  0.0605586358733774  0.9822230500099494  1.0000
  Zn  Zn14      1.0  0.40111372391301364  0.05343221929725666  0.9776504721879391  1.0000
  Zn  Zn15      1.0  0.5573701328670638  0.9015044771834301  0.9767763726485226  1.0000
  Zn  Zn16      1.0  0.48176482374460516  0.9879681993106858  0.05982807774075377  1.0000
  C   C1        1.0  0.0640138557707246  0.3190535295899651  0.5594494471877027  1.0000
  C   C2        1.0  0.06817585272679591  0.5709446133024445  0.5667066129752596  1.0000
  C   C3        1.0  0.1836907455901056  0.4397629046211194  0.43744033478449745  1.0000
  C   C4        1.0  0.9381039724041572  0.6807799378451805  0.43897594647749116  1.0000
  C   C5        1.0  0.9323529541128225  0.4288130140127817  0.4317445903281935  1.0000
  C   C6        1.0  0.8183795688343596  0.5585911573647733  0.560781471041963  1.0000
  C   C7        1.0  0.569928748899919  0.30923838937964376  0.3086924248953338  1.0000
  C   C8        1.0  0.6846843643377768  0.1817145080920922  0.17949550568879147  1.0000
  C   C9        1.0  0.6905487599358369  0.43407122960664407  0.18832272688237592  1.0000
  C   C10       1.0  0.9324428991036059  0.19083286380806191  0.18964816984264127  1.0000
  C   C11       1.0  0.8167627908357745  0.3186069346798633  0.318975229527318  1.0000
  C   C12       1.0  0.8121636572148604  0.0663968907389077  0.3096897621486007  1.0000
  C   C13       1.0  0.4314564536941107  0.6882091277015551  0.6886049953789665  1.0000
  C   C14       1.0  0.3186939356252126  0.8175258752855188  0.8183927254769542  1.0000
  C   C15       1.0  0.19180020233121556  0.9327481966824395  0.6880681263413277  1.0000
  C   C16       1.0  0.06962925766857353  0.8095351905826932  0.8084643970320329  1.0000
  C   C17       1.0  0.18180133689055117  0.6817122332444401  0.6800963177470436  1.0000
  C   C18       1.0  0.31141797001059507  0.5666236173414988  0.8099648018960861  1.0000
  C   C19       1.0  0.4394402959847526  0.18052933604445096  0.9384325271622416  1.0000
  C   C20       1.0  0.4322692553527433  0.9285707835728302  0.9320021143233032  1.0000
  C   C21       1.0  0.6838822198846374  0.9392594679187669  0.9377349812077894  1.0000
  C   C22       1.0  0.5616231141228097  0.8212134336725756  0.06034960605023083  1.0000
  C   C23       1.0  0.5686887189066427  0.07184708426539291  0.06674750133822727  1.0000
  C   C24       1.0  0.31785045333662515  0.06252522430737167  0.06032407217787747  1.0000
  C   C25       1.0  0.9029643962882972  0.4006737047609123  0.40289626320591043  1.0000
  C   C26       1.0  0.8461376956510733  0.34672124296106677  0.34782626670873634  1.0000
  C   C27       1.0  0.8308546929891564  0.4448531372806385  0.38904785062852193  1.0000
  C   C28       1.0  0.9183979977069398  0.302624001296664  0.36153384931974836  1.0000
  C   C29       1.0  0.8031997488518243  0.41849026377113346  0.3624420205700359  1.0000
  C   C30       1.0  0.9458310819487538  0.3288042397213574  0.3883722657317676  1.0000
  C   C31       1.0  0.09716636712807512  0.5993526350430044  0.595605932083501  1.0000
  C   C32       1.0  0.15252661819646116  0.6537689997792032  0.651151093405481  1.0000
  C   C33       1.0  0.14038753680460303  0.6424387990052124  0.5811321624373135  1.0000
  C   C34       1.0  0.10912929605304808  0.6108814635486793  0.665621631108628  1.0000
  C   C35       1.0  0.1674320813468029  0.668742059702545  0.6081121168833332  1.0000
  C   C36       1.0  0.08243275529926561  0.5842142994589782  0.6386711322942203  1.0000
  C   C37       1.0  0.3089722230615309  0.45267702908507357  0.4008785089657109  1.0000
  C   C38       1.0  0.4497232354728525  0.2918879899570045  0.3500552354755939  1.0000
  C   C39       1.0  0.2616383846219393  0.41460945072366673  0.414364360280878  1.0000
  C   C40       1.0  0.4962109583378834  0.3307083968178333  0.3359696452799453  1.0000
  C   C41       1.0  0.37972249300658234  0.3375302734589524  0.3721451143188189  1.0000
  C   C42       1.0  0.37593271686901636  0.40943174959232215  0.37585738513476485  1.0000
  C   C43       1.0  0.7255253754615014  0.577701362449112  0.6297887070245806  1.0000
  C   C44       1.0  0.5242132366419199  0.6772884735014347  0.6199124398200411  1.0000
  C   C45       1.0  0.7437180254481819  0.586308775030922  0.5871184804989368  1.0000
  C   C46       1.0  0.5063041882632648  0.6674498794162175  0.6625379673487897  1.0000
  C   C47       1.0  0.6040478543563098  0.641469566779989  0.6076551989647142  1.0000
  C   C48       1.0  0.6454799089496462  0.6077011689521045  0.6416454401246696  1.0000
  C   C49       1.0  0.07404051767727539  0.22679050879985144  0.628200084099241  1.0000
  C   C50       1.0  0.17319975224125272  0.024845534666909013  0.6188410975309678  1.0000
  C   C51       1.0  0.0843401644393609  0.2442290441722293  0.5855579741260752  1.0000
  C   C52       1.0  0.16428525616914413  0.007236638981176207  0.6615407432329619  1.0000
  C   C53       1.0  0.14348661070456364  0.10491246905501576  0.606753271002674  1.0000
  C   C54       1.0  0.10957459712177811  0.14693811779888932  0.6405967193144732  1.0000
  C   C55       1.0  0.840660243562674  0.8023505028337325  0.3990205462091154  1.0000
  C   C56       1.0  0.9054610735958095  0.9491905079934643  0.35423470333346774  1.0000
  C   C57       1.0  0.9093697007548303  0.7583056232561491  0.41549885630734446  1.0000
  C   C58       1.0  0.8373481715213631  0.9927889537306174  0.3370462925497293  1.0000
  C   C59       1.0  0.9081552130718649  0.8781643280190536  0.3751997638113522  1.0000
  C   C60       1.0  0.8403368886803265  0.870442599797329  0.3750014344456432  1.0000
  C   C61       1.0  0.6549985787217666  0.15392915925938425  0.1506342880902523  1.0000
  C   C62       1.0  0.5983390205128672  0.09995271051253946  0.09547407537272787  1.0000
  C   C63       1.0  0.6695012209133467  0.16876520143355134  0.1075629157759863  1.0000
  C   C64       1.0  0.5840032430512424  0.08494529306608459  0.1385545463113473  1.0000
  C   C65       1.0  0.64180884410586  0.1427138441450637  0.08078393458120559  1.0000
  C   C66       1.0  0.6112851200009362  0.11139131521461101  0.16531447665068547  1.0000
  C   C67       1.0  0.6712162323918919  0.5268584125270479  0.1193463136684372  1.0000
  C   C68       1.0  0.5714914526607797  0.7285972393846695  0.12918152329969254  1.0000
  C   C69       1.0  0.6622829771563872  0.5088086737844577  0.16201089993124643  1.0000
  C   C70       1.0  0.5819028091094012  0.7463935446647341  0.0865670265617098  1.0000
  C   C71       1.0  0.6071306127242765  0.6486516910133988  0.14141599520326048  1.0000
  C   C72       1.0  0.6412927718868886  0.6069832964137873  0.10744380805834196  1.0000
  C   C73       1.0  0.08185475950885031  0.1209296683618959  0.17779769319647437  1.0000
  C   C74       1.0  0.16801880735091856  0.12381683308643694  0.0721507562353523  1.0000
  C   C75       1.0  0.009073212794469002  0.16095327584898916  0.1653632215788434  1.0000
  C   C76       1.0  0.24103092633174586  0.0849826594370313  0.08446790794350528  1.0000
  C   C77       1.0  0.1101200001267841  0.14000506242142313  0.1062280692509887  1.0000
  C   C78       1.0  0.14022748944135802  0.1103103981557396  0.14399878720506357  1.0000
  C   C79       1.0  0.3474438471654366  0.8456328612731738  0.84763303230131  1.0000
  C   C80       1.0  0.40301664470389653  0.899915413684717  0.9033200722754201  1.0000
  C   C81       1.0  0.30440683797555584  0.9177039449405061  0.861995041936204  1.0000
  C   C82       1.0  0.44581737555784434  0.8276801530274657  0.8891986346041489  1.0000
  C   C83       1.0  0.3314164242970038  0.9442363746738635  0.8888859706136072  1.0000
  C   C84       1.0  0.4190941661338103  0.8013841015997656  0.8620610135712283  1.0000
  C   C85       1.0  0.4047835420683726  0.45005152192735676  0.8547179373222136  1.0000
  C   C86       1.0  0.341182266249355  0.30233138776394963  0.8992765063910325  1.0000
  C   C87       1.0  0.3364653648441092  0.49346303655633517  0.8376913367609118  1.0000
  C   C88       1.0  0.4102137352682648  0.25835368310534085  0.9154144271039826  1.0000
  C   C89       1.0  0.34023551340617086  0.37084551094132917  0.8755453928687442  1.0000
  C   C90       1.0  0.4079389031174544  0.3788598136705944  0.8756207841598493  1.0000
  C   C91       1.0  0.9496021787128298  0.7918852008914504  0.8499698571108638  1.0000
  C   C92       1.0  0.808873983413605  0.9524635546828365  0.9009629255965024  1.0000
  C   C93       1.0  0.9959226454693495  0.8308836462856352  0.835778007342931  1.0000
  C   C94       1.0  0.7617183457732397  0.9142014167485257  0.9145517286232162  1.0000
  C   C95       1.0  0.8757353525217583  0.9093991269829691  0.8758205687258921  1.0000
  C   C96       1.0  0.8796627663201237  0.8374277009048113  0.87215404576137  1.0000
  S   S1        1.0  0.30021878648506833  0.32500396890065275  0.3972556345650843  1.0000
  S   S2        1.0  0.4551670866730078  0.42234977647675015  0.3507322259717967  1.0000
  S   S3        1.0  0.6627162565848793  0.6329987573751408  0.5616479118616624  1.0000
  S   S4        1.0  0.5872449670347494  0.6162442101285137  0.6877420156903823  1.0000
  S   S5        1.0  0.1355488929657298  0.1627319964263023  0.5605659076064311  1.0000
  S   S6        1.0  0.11774618902732929  0.08887174016044244  0.6867381548679745  1.0000
  S   S7        1.0  0.9728672370540964  0.8011551439713714  0.4025416153766201  1.0000
  S   S8        1.0  0.7758241592245626  0.9476675346524605  0.34758996828326616  1.0000
  S   S9        1.0  0.6153535301807269  0.59012430616724  0.1874159091119481  1.0000
  S   S10       1.0  0.6334070599723918  0.6651665697938044  0.0613852168477038  1.0000
  S   S11       1.0  0.0119416818251068  0.1837773673661616  0.11222420323738896  1.0000
  S   S12       1.0  0.2385079014267006  0.06654113177576453  0.1377428921066581  1.0000
  S   S13       1.0  0.2752869189477636  0.44800098286866336  0.8483448574963788  1.0000
  S   S14       1.0  0.4732109367352352  0.30178414927265607  0.9025830925254182  1.0000
  S   S15       1.0  0.9548083760586509  0.922484551272319  0.8505695233590841  1.0000
  S   S16       1.0  0.8003870711204046  0.8246196886274644  0.8973955909084592  1.0000
  N   N1        1.0  0.29928149953754973  0.525515303541809  0.4116578112581805  1.0000
  N   N2        1.0  0.46750904050050224  0.2124233574648002  0.34670033628628255  1.0000
  N   N3        1.0  0.7770763227252503  0.5485207575142469  0.6614563644717463  1.0000
  N   N4        1.0  0.4722070989976573  0.7227487525320057  0.5892401498159785  1.0000
  N   N5        1.0  0.028264164572817697  0.2790425998298147  0.6588537920727544  1.0000
  N   N6        1.0  0.20254357500972736  0.9727515190258771  0.5873090015493857  1.0000
  N   N7        1.0  0.7720313284508437  0.7881449959203127  0.40617965926230665  1.0000
  N   N8        1.0  0.9675576285395737  0.9704953282763289  0.355430775587095  1.0000
  N   N9        1.0  0.701418525953983  0.4747875101090457  0.08781637117807853  1.0000
  N   N10       1.0  0.5260218751854069  0.780631521876785  0.1599530935387321  1.0000
  N   N11       1.0  0.10160860820397491  0.0866364196906275  0.21923399466806603  1.0000
  N   N12       1.0  0.14639599203253792  0.14278187685371088  0.03051879102054038  1.0000
  N   N13       1.0  0.4667546668536461  0.47159746670771363  0.8555528608311178  1.0000
  N   N14       1.0  0.2727170128252041  0.2877586811871283  0.9065736654978451  1.0000
  N   N15       1.0  0.9673704582311231  0.7123486651790855  0.8467653566119892  1.0000
  N   N16       1.0  0.7991447129122804  0.025281864166551336  0.9117831884957324  1.0000
  O   O1        1.0  0.0009685414960074005  0.4996205230930073  0.49912313189511076  1.0000
  O   O2        1.0  0.06469285774841893  0.31665662307542425  0.5211704516649076  1.0000
  O   O3        1.0  0.011274620655008503  0.5548303351217214  0.5812304892638236  1.0000
  O   O4        1.0  0.14381311228031282  0.5110648136865877  0.43880179563139876  1.0000
  O   O5        1.0  0.050457282853294316  0.3771387991660262  0.5766188359010584  1.0000
  O   O6        1.0  0.16322264549702944  0.38553306730361936  0.4529131503847238  1.0000
  O   O7        1.0  0.10274960088968751  0.565379573499108  0.5301141065788639  1.0000
  O   O8        1.0  0.9960931355191962  0.6639739334413406  0.4574700069972763  1.0000
  O   O9        1.0  0.8824019393029375  0.48031709987876087  0.4532187552317168  1.0000
  O   O10       1.0  0.9053354267508951  0.6380223488809592  0.4377405130043924  1.0000
  O   O11       1.0  0.004552512954269602  0.39888114175292344  0.43237011312535145  1.0000
  O   O12       1.0  0.8755911003886823  0.5050183461417179  0.5764804961272603  1.0000
  O   O13       1.0  0.8168967272445826  0.5909592219546486  0.5234819611077127  1.0000
  O   O14       1.0  0.7504772958258956  0.2503531749660511  0.24928406074762674  1.0000
  O   O15       1.0  0.6058674869753988  0.35012666218664645  0.3090936391548381  1.0000
  O   O16       1.0  0.6910507586250604  0.14590776507924358  0.21575767916514366  1.0000
  O   O17       1.0  0.7449681707610338  0.3772590959392944  0.1725973932533691  1.0000
  O   O18       1.0  0.5892442572562546  0.25538390582991594  0.28695506887314787  1.0000
  O   O19       1.0  0.657917000669876  0.4351284516366008  0.22557023430977094  1.0000
  O   O20       1.0  0.7010730413536521  0.23860502678157763  0.16534489832362448  1.0000
  O   O21       1.0  0.8764958308000957  0.20842480455424087  0.1693397155308247  1.0000
  O   O22       1.0  0.8460222749640425  0.2464024047968183  0.318066948885665  1.0000
  O   O23       1.0  0.9286791548526878  0.1985369028301207  0.2271500597835967  1.0000
  O   O24       1.0  0.7651915015082908  0.36920145508974417  0.29782546352136297  1.0000
  O   O25       1.0  0.7402236169831014  0.09962716334968759  0.306736963617567  1.0000
  O   O26       1.0  0.8628752099474823  0.08871829225847705  0.2909066899299191  1.0000
  O   O27       1.0  0.2504106081798838  0.7499759094406361  0.749402928832353  1.0000
  O   O28       1.0  0.37364435339357993  0.7007689565758499  0.6716281712183088  1.0000
  O   O29       1.0  0.34992149113043786  0.7456120963042853  0.8162808247406088  1.0000
  O   O30       1.0  0.15942338926885924  0.9346105994767556  0.7253922257725662  1.0000
  O   O31       1.0  0.43353950860159074  0.6889211629102264  0.7267578332780145  1.0000
  O   O32       1.0  0.24536489920495086  0.8753047455828169  0.6724235159286776  1.0000
  O   O33       1.0  0.2655937780989746  0.8679676244018355  0.7981454788345841  1.0000
  O   O34       1.0  0.10554949931164972  0.8504268510221353  0.8088898083467696  1.0000
  O   O35       1.0  0.1890494596642327  0.6454374466355262  0.7162386898023669  1.0000
  O   O36       1.0  0.08888801003745782  0.7557398837754903  0.7867220055779851  1.0000
  O   O37       1.0  0.19709122617095426  0.7393379167660187  0.6661443639106395  1.0000
  O   O38       1.0  0.3624176283007897  0.5881563216686487  0.7907370612394046  1.0000
  O   O39       1.0  0.23948489677592022  0.6000748844286646  0.8071167462263702  1.0000
  O   O40       1.0  0.5008336346815981  0.9998304214195387  0.9993193998592176  1.0000
  O   O41       1.0  0.496704165776258  0.16389189105759527  0.9574874356610364  1.0000
  O   O42       1.0  0.38233996358318484  0.9807444984971171  0.953111336009229  1.0000
  O   O43       1.0  0.663339527467791  0.885099263035613  0.9532844257148837  1.0000
  O   O44       1.0  0.4076786846393858  0.1373107025847773  0.9362831854674099  1.0000
  O   O45       1.0  0.644035921083507  0.010581637141470392  0.9391016381294293  1.0000
  O   O46       1.0  0.5044642736000212  0.8984750701336427  0.932789968245629  1.0000
  O   O47       1.0  0.5636965151745345  0.8180380829490873  0.022023153791138825  1.0000
  O   O48       1.0  0.5113600422144345  0.056524000137635255  0.08141152628697058  1.0000
  O   O49       1.0  0.546754793570365  0.8796900012473332  0.07747838994241359  1.0000
  O   O50       1.0  0.603168415589309  0.06569653049098899  0.0301631431643301  1.0000
  O   O51       1.0  0.3226521183842337  0.0952165615284955  0.023788388138100896  1.0000
  O   O52       1.0  0.37322545024022  0.012843045072131095  0.07975923086058859  1.0000
  O   O53       1.0  0.3345434714407531  0.558430666680998  0.38652646444794664  1.0000
  O   O54       1.0  0.26117954485935974  0.5479260156645155  0.44441626566063513  1.0000
  O   O55       1.0  0.4106783068656058  0.1988312331155626  0.34777234614620767  1.0000
  O   O56       1.0  0.5347683811533629  0.16455740913018255  0.34492383131280485  1.0000
  O   O57       1.0  0.7502758180648358  0.5255396553079947  0.6956513580783792  1.0000
  O   O58       1.0  0.8397930076417455  0.5515392491963811  0.6536108611466742  1.0000
  O   O59       1.0  0.4949232018091081  0.7024169539295361  0.5539682557137054  1.0000
  O   O60       1.0  0.41290990118938703  0.7784673451242697  0.5991669110210153  1.0000
  O   O61       1.0  0.048142243725052915  0.2563644278601275  0.6941796760104137  1.0000
  O   O62       1.0  0.9727131189593125  0.33835133670948647  0.6489131891317114  1.0000
  O   O63       1.0  0.22604689678387757  0.9990524286266054  0.5531100770103093  1.0000
  O   O64       1.0  0.1991226425247775  0.9101421226627625  0.5952720149149469  1.0000
  O   O65       1.0  0.7300854623044588  0.8172805452810721  0.3780777908250954  1.0000
  O   O66       1.0  0.7583203207869647  0.7524687107701881  0.4391033216739046  1.0000
  O   O67       1.0  0.030403228256062696  0.9151865516513527  0.3608705970512958  1.0000
  O   O68       1.0  0.9541562805826447  0.038773644544164695  0.3531249363875446  1.0000
  O   O69       1.0  0.7255109805826409  0.5009858134247694  0.053758911835409165  1.0000
  O   O70       1.0  0.6985123963468072  0.41188404898212383  0.09564894660523036  1.0000
  O   O71       1.0  0.5462638300325438  0.757884927529041  0.19519581396059485  1.0000
  O   O72       1.0  0.470344446373069  0.8400147713206042  0.15017896459627877  1.0000
  O   O73       1.0  0.1655638672123629  0.07851485095505242  0.2255923393339785  1.0000
  O   O74       1.0  0.05716693507142881  0.0654299951039619  0.2439221869075822  1.0000
  O   O75       1.0  0.08176829337507742  0.1962615399583498  0.026764629159579594  1.0000
  O   O76       1.0  0.1895480108995145  0.10421580248682724  0.0031266999195693943  1.0000
  O   O77       1.0  0.5298956945557761  0.4165084637098463  0.8607164970477611  1.0000
  O   O78       1.0  0.45326102196570167  0.539981625397253  0.8530899115345391  1.0000
  O   O79       1.0  0.2302145828582668  0.31753398111204945  0.8787417274390774  1.0000
  O   O80       1.0  0.2597582936875824  0.2512875140167808  0.939337668896698  1.0000
  O   O81       1.0  0.9104358348036075  0.6985879437823003  0.8484663817900041  1.0000
  O   O82       1.0  0.03466937353179841  0.6645789659828267  0.8445487166607959  1.0000
  O   O83       1.0  0.8340240083710599  0.05846735385499359  0.8865672503639886  1.0000
  O   O84       1.0  0.7614119001841503  0.04741939269986531  0.944676136739794  1.0000
  F   F1        1.0  0.7857662365247223  0.5151216948900128  0.40024950082933936  1.0000
  F   F2        1.0  0.964887641618738  0.23398012396159362  0.34881198911371303  1.0000
  F   F3        1.0  0.7327474828299146  0.4645403086607445  0.3519603870066774  1.0000
  F   F4        1.0  0.014864917950703204  0.28138592409941054  0.4002506801684902  1.0000
  F   F5        1.0  0.15647714710038943  0.6613434984444311  0.5406290672518279  1.0000
  F   F6        1.0  0.09023888319251938  0.5947980982298519  0.7061678889463535  1.0000
  F   F7        1.0  0.20962751652424322  0.7077910094910396  0.5910674624922548  1.0000
  F   F8        1.0  0.043154097595412104  0.5422403617949313  0.6557974431406064  1.0000
  F   F9        1.0  0.7118894690562173  0.20753468454931584  0.09025976384724999  1.0000
  F   F10       1.0  0.5445417279919199  0.04317796512793147  0.15594138046044037  1.0000
  F   F11       1.0  0.657532156352545  0.16152302861890175  0.04023782996907238  1.0000
  F   F12       1.0  0.5925787985022809  0.09538095233115482  0.20589637198375493  1.0000
  F   F13       1.0  0.23452033016114632  0.9641696147574451  0.8509188018397182  1.0000
  F   F14       1.0  0.5142592659421794  0.7799624451774746  0.9017737345395601  1.0000
  F   F15       1.0  0.28645062322594583  0.01474120637000449  0.8996571856085324  1.0000
  F   F16       1.0  0.465746303243819  0.7322844735015722  0.8498773827244928  1.0000
