data_image0
_chemical_formula_structural       Al2H8C18N2Cl2O10F2
_chemical_formula_sum              "Al2 H8 C18 N2 Cl2 O10 F2"
_cell_length_a       6.706631630567516
_cell_length_b       8.913796879738335
_cell_length_c       16.868806242872353
_cell_angle_alpha    100.89218021301215
_cell_angle_beta     84.45331300502237
_cell_angle_gamma    74.22125858258187

_space_group_name_H-M_alt    "P 1"
_space_group_IT_number       1

loop_
  _space_group_symop_operation_xyz
  'x, y, z'

loop_
  _atom_site_type_symbol
  _atom_site_label
  _atom_site_symmetry_multiplicity
  _atom_site_fract_x
  _atom_site_fract_y
  _atom_site_fract_z
  _atom_site_occupancy
  Al  Al1       1.0  0.9999988356334696  0.5000262576297912  0.5000091194319508  1.0000
  Al  Al2       1.0  0.4999930351355104  0.5000219460320068  0.5000069373496743  1.0000
  H   H1        1.0  0.16724612474593664  0.6744500863661358  0.5799322684238106  1.0000
  H   H2        1.0  0.8326964474603571  0.3257309827663378  0.4200004372072854  1.0000
  H   H3        1.0  0.6248675703601589  0.5247513145197971  0.2703490757044237  1.0000
  H   H4        1.0  0.6944995631745173  0.524235200213127  0.1216806959361136  1.0000
  H   H5        1.0  0.0729688208825294  0.49045126385741605  0.0979561201418164  1.0000
  H   H6        1.0  0.9270737992179219  0.5094153477354197  0.9020292002431205  1.0000
  H   H7        1.0  0.30545059535777597  0.47581246151802503  0.8783332140926278  1.0000
  H   H8        1.0  0.37507748781293054  0.47529369681460315  0.7296631600130894  1.0000
  C   C1        1.0  0.6493309667114814  0.7846802102696203  0.5127742618757409  1.0000
  C   C2        1.0  0.7089905644610611  0.500547243926185  0.6435895269362888  1.0000
  C   C3        1.0  0.350709845462795  0.21536938413693466  0.4872349697624969  1.0000
  C   C4        1.0  0.2909733290557668  0.49945867804780153  0.35642125511838435  1.0000
  C   C5        1.0  0.31485829676400096  0.5051659249556266  0.2681366808452452  1.0000
  C   C6        1.0  0.5064893800492455  0.516774070524619  0.23134309448992954  1.0000
  C   C7        1.0  0.5452619068721276  0.5165916418804954  0.14930580813273764  1.0000
  C   C8        1.0  0.3886824077448239  0.5056638027958869  0.10053025675279771  1.0000
  C   C9        1.0  0.19480532368341127  0.4975664908756697  0.1355447533557097  1.0000
  C   C10       1.0  0.16140183004896605  0.49672214106607276  0.2179613053918317  1.0000
  C   C11       1.0  0.8052206429475603  0.5023380395283397  0.8644478280043019  1.0000
  C   C12       1.0  0.6113211358606279  0.4942981070806313  0.899467160283571  1.0000
  C   C13       1.0  0.4547137582168544  0.48340950619518025  0.8506934853480106  1.0000
  C   C14       1.0  0.4934818682555074  0.4832313132855218  0.7686595754718439  1.0000
  C   C15       1.0  0.6851195659624377  0.49479677675677913  0.7318637419048174  1.0000
  C   C16       1.0  0.838610584133299  0.503177711028755  0.7820251293849766  1.0000
  C   C17       1.0  0.581067156760227  0.961965108964961  0.5170837306817475  1.0000
  C   C18       1.0  0.4189367868377616  0.03808309623266842  0.4829289220459501  1.0000
  N   N1        1.0  0.4093519356373392  0.5023838916450244  0.01595271153660599  1.0000
  N   N2        1.0  0.5906510648185659  0.49758798010593364  0.9840475683479397  1.0000
  Cl  Cl1       1.0  0.7291554165963916  0.06217394042562322  0.5705494123615509  1.0000
  Cl  Cl2       1.0  0.2708172399635486  0.9378788676527918  0.42947323452323627  1.0000
  O   O1        1.0  0.8455647703722349  0.7177742010088083  0.50206053585962  1.0000
  O   O2        1.0  0.5542799555759571  0.48577086805248365  0.6077956994713958  1.0000
  O   O3        1.0  0.4941559916828877  0.28128437186017413  0.4781442077901374  1.0000
  O   O4        1.0  0.12474517638985823  0.47762138168104673  0.3887664350615623  1.0000
  O   O5        1.0  0.15451703644895787  0.28230829625931625  0.497962017931613  1.0000
  O   O6        1.0  0.4456786690826391  0.5142577329004326  0.3922169534300863  1.0000
  O   O7        1.0  0.505952409681889  0.7187349416856604  0.5218509986285369  1.0000
  O   O8        1.0  0.8752040978979422  0.5223996623572802  0.6112433234953728  1.0000
  O   O9        1.0  0.21349694067012578  0.5733443851576681  0.5401450463943434  1.0000
  O   O10       1.0  0.7864847963736563  0.4267242144546302  0.4598749211308474  1.0000
  F   F1        1.0  0.9717606410163239  0.4871355881183278  0.2485712054864067  1.0000
  F   F2        1.0  0.02830162194381803  0.5126722131104986  0.7514021888187943  1.0000
