data_image0
_chemical_formula_structural       Mo8H32C40N8O24
_chemical_formula_sum              "Mo8 H32 C40 N8 O24"
_cell_length_a       7.415663831
_cell_length_b       7.511193467819056
_cell_length_c       22.433
_cell_angle_alpha    90.39924025228561
_cell_angle_beta     90.0
_cell_angle_gamma    90.0

_space_group_name_H-M_alt    "P 1"
_space_group_IT_number       1

loop_
  _space_group_symop_operation_xyz
  'x, y, z'

loop_
  _atom_site_type_symbol
  _atom_site_label
  _atom_site_symmetry_multiplicity
  _atom_site_fract_x
  _atom_site_fract_y
  _atom_site_fract_z
  _atom_site_occupancy
  Mo  Mo1       1.0  0.5984292304956824  0.5253686803222308  0.7645306800691286  1.0000
  Mo  Mo2       1.0  0.0984294888002708  0.4746285078060168  0.7354687784443286  1.0000
  Mo  Mo3       1.0  0.4015702528951408  0.4746298391846864  0.23546878155053716  1.0000
  Mo  Mo4       1.0  0.9015699945905522  0.5253713430795699  0.2645302405096999  1.0000
  Mo  Mo5       1.0  0.5930824401201207  0.0301370875882796  0.7354516700793567  1.0000
  Mo  Mo6       1.0  0.09308269842470908  0.9698601005399681  0.7645473426622402  1.0000
  Mo  Mo7       1.0  0.4069183917676398  0.9698601005399681  0.2645473426622402  1.0000
  Mo  Mo8       1.0  0.9069167849661139  0.0301410817242953  0.2354516793979968  1.0000
  H   H1        1.0  0.7659273841751356  0.32261302257265356  0.6445395141254123  1.0000
  H   H2        1.0  0.2659465214369163  0.6773881596916098  0.855462182565951  1.0000
  H   H3        1.0  0.2340626597370914  0.6773894910702793  0.3554639687595795  1.0000
  H   H4        1.0  0.7340610529355586  0.3226183480873317  0.144536851919149  1.0000
  H   H5        1.0  0.7214000151458606  0.2964501003161857  0.5359009319016792  1.0000
  H   H6        1.0  0.2214056674382192  0.7035524133267401  0.9641003221240467  1.0000
  H   H7        1.0  0.27860755922661434  0.703561732977434  0.4641012354112489  1.0000
  H   H8        1.0  0.7785978614434299  0.2964501003161857  0.0359000403579728  1.0000
  H   H9        1.0  0.3223703304897043  0.7172775960422226  0.5515927818313031  1.0000
  H   H10       1.0  0.822361981203457  0.28274089414475867  0.948404497522297  1.0000
  H   H11       1.0  0.6776278044041745  0.282727580358049  0.4484066953194272  1.0000
  H   H12       1.0  0.177632108199596  0.7172736019062071  0.051593218284516205  1.0000
  H   H13       1.0  0.3831470876716949  0.7211439197017171  0.6592980533352346  1.0000
  H   H14       1.0  0.8831535718518209  0.2788679135919025  0.8407009935747138  1.0000
  H   H15       1.0  0.616847001731351  0.2788612566985549  0.3407023153592093  1.0000
  H   H16       1.0  0.1168513055267724  0.7211425883230476  0.1592976044571657  1.0000
  H   H17       1.0  0.7634744682373906  0.826393397750685  0.8537178165047691  1.0000
  H   H18       1.0  0.2634693325542159  0.1735958021055382  0.6462834064588137  1.0000
  H   H19       1.0  0.2365331061350773  0.1735984648628772  0.14628385844309827  1.0000
  H   H20       1.0  0.7365261053457814  0.8263960605080314  0.3537173769453403  1.0000
  H   H21       1.0  0.7229359531629527  0.7993783931450196  0.9622318845602675  1.0000
  H   H22       1.0  0.2229321659767152  0.2006094753325272  0.5377684437534  1.0000
  H   H23       1.0  0.2770770151972926  0.2006134694685429  0.0377688988438933  1.0000
  H   H24       1.0  0.777071362904934  0.79937706176635  0.4622309899103456  1.0000
  H   H25       1.0  0.3166392184856335  0.21387400102797463  0.950072381646045  1.0000
  H   H26       1.0  0.816629520702449  0.7861191929642644  0.5499284048643247  1.0000
  H   H27       1.0  0.6833697043837856  0.7861125360709096  0.04993017242066599  1.0000
  H   H28       1.0  0.1833591747128409  0.2138766637853138  0.4500706047710636  1.0000
  H   H29       1.0  0.376014887344752  0.2209795689931013  0.842265217700799  1.0000
  H   H30       1.0  0.876007886555449  0.7790069681057827  0.6577355532785063  1.0000
  H   H31       1.0  0.6239899900338415  0.7790082994844525  0.1577368937002817  1.0000
  H   H32       1.0  0.1239821573567781  0.2209875572651256  0.3422643447943726  1.0000
  C   C1        1.0  0.668108764489652  0.406500529851435  0.6219705534137816  1.0000
  C   C2        1.0  0.1681198107697739  0.5935019837914979  0.8780307006119443  1.0000
  C   C3        1.0  0.3318812794225749  0.593504646548837  0.3780311525962219  1.0000
  C   C4        1.0  0.831878324124105  0.4065045239874436  0.1219692254168621  1.0000
  C   C5        1.0  0.642632960258851  0.3940854237478462  0.5607362208758602  1.0000
  C   C6        1.0  0.1426372640542652  0.6059224154097648  0.9392641540310152  1.0000
  C   C7        1.0  0.357370568622798  0.6059184212737492  0.43926681934349426  1.0000
  C   C8        1.0  0.8573622193365579  0.3940880865051923  0.060733552457158196  1.0000
  C   C9        1.0  0.5164001615056506  0.50516634037416  0.5325511253921675  1.0000
  C   C10       1.0  0.0163977228163574  0.4948388360261119  0.9674487975304231  1.0000
  C   C11       1.0  0.48359932188517246  0.4948401674047815  0.46745058372405174  1.0000
  C   C12       1.0  0.9835936695928138  0.5051703345101686  0.0325493516233948  1.0000
  C   C13       1.0  0.42284548915119297  0.6260608491816483  0.5691711662606167  1.0000
  C   C14       1.0  0.922842533852716  0.3739536468693174  0.9308261037743435  1.0000
  C   C15       1.0  0.5771580397304561  0.3739416644612844  0.4308291962213957  1.0000
  C   C16       1.0  0.0771556010411629  0.6260581864243093  0.0691716058200456  1.0000
  C   C17       1.0  0.4553523564382828  0.629620955746901  0.6301187135729478  1.0000
  C   C18       1.0  0.9553588406184019  0.370389546168056  0.8698816675463518  1.0000
  C   C19       1.0  0.5446390359708815  0.3703868834107098  0.36988166133392747  1.0000
  C   C20       1.0  0.044639294275477  0.6296182929895622  0.1301173700449567  1.0000
  C   C21       1.0  0.6660833220825637  0.9097643301052685  0.8770505614723447  1.0000
  C   C22       1.0  0.1660727924116188  0.09022620112963148  0.6229506645974537  1.0000
  C   C23       1.0  0.3339296462776744  0.0902222069936158  0.12295199259437337  1.0000
  C   C24       1.0  0.8339199484944968  0.9097669928626075  0.37704833882550304  1.0000
  C   C25       1.0  0.6422567296119936  0.8963919627375034  0.9382416690833039  1.0000
  C   C26       1.0  0.1422475484379859  0.1035998998760661  0.5617582227771436  1.0000
  C   C27       1.0  0.3577548902513072  0.1036052253907442  0.06175912674571289  1.0000
  C   C28       1.0  0.857750586455893  0.8963919627375034  0.4382421148551572  1.0000
  C   C29       1.0  0.5152782120497932  0.005462646685579399  0.9674263764990059  1.0000
  C   C30       1.0  0.0152663338819039  0.994531878685329  0.5325735215738732  1.0000
  C   C31       1.0  0.4847401502982152  0.9945278845493206  0.032575741114499096  1.0000
  C   C32       1.0  0.9847264070242047  0.005462646685579399  0.46742503918344613  1.0000
  C   C33       1.0  0.4185276019424791  0.1248473720805805  0.9317048215468231  1.0000
  C   C34       1.0  0.9185165556623502  0.8751458219116585  0.56829507341984  1.0000
  C   C35       1.0  0.5814813209269403  0.8751471532903281  0.0682955222979018  1.0000
  C   C36       1.0  0.0814761852437584  0.1248526975952586  0.43170572551539266  1.0000
  C   C37       1.0  0.4498990348042894  0.1298347165807385  0.8707246150490989  1.0000
  C   C38       1.0  0.949889337021105  0.8701571460328239  0.6292775056706219  1.0000
  C   C39       1.0  0.5501112365620671  0.870153151896808  0.1292788336675414  1.0000
  C   C40       1.0  0.050099358394177784  0.1298373793380847  0.37072150085855066  1.0000
  N   N1        1.0  0.575162264256093  0.5213492481156123  0.6564430248717485  1.0000
  N   N2        1.0  0.07517061354234038  0.4786585910419987  0.8435564584914202  1.0000
  N   N3        1.0  0.42483182514695267  0.47865060276997434  0.3435582229415459  1.0000
  N   N4        1.0  0.9248329153393087  0.5213545736302976  0.1564421457528908  1.0000
  N   N5        1.0  0.5711734103012631  0.024165854250526295  0.8434781256398977  1.0000
  N   N6        1.0  0.07116692612114407  0.9758246769843664  0.6565235462017539  1.0000
  N   N7        1.0  0.428830118580386  0.9758286711203823  0.1565240012922544  1.0000
  N   N8        1.0  0.9288244662880274  0.024171179765211492  0.3434772465210401  1.0000
  O   O1        1.0  0.8304003714755197  0.4582618698080125  0.7488813136781544  1.0000
  O   O2        1.0  0.3304006297801151  0.5417353183202349  0.7511181448352957  1.0000
  O   O3        1.0  0.1695991119152964  0.5417393124562437  0.2511168168383762  1.0000
  O   O4        1.0  0.6695988536107078  0.4582618698080125  0.2488826509937141  1.0000
  O   O5        1.0  0.6218270009386586  0.7609215202440041  0.7533510948391466  1.0000
  O   O6        1.0  0.1218299562371286  0.2390743365055741  0.7466461317088218  1.0000
  O   O7        1.0  0.3781684369613387  0.2390769992629203  0.2466461379212532  1.0000
  O   O8        1.0  0.8781695271536873  0.7609255143800127  0.2533528872451996  1.0000
  O   O9        1.0  0.5872218724096072  0.5091365115699631  0.8407652648661567  1.0000
  O   O10       1.0  0.0872221307141956  0.4908633393156236  0.6592333083160112  1.0000
  O   O11       1.0  0.4127803079751047  0.4908646706942932  0.15923420296593346  1.0000
  O   O12       1.0  0.9127813981674535  0.5091351801912936  0.3407652617599481  1.0000
  O   O13       1.0  0.5359223517369287  0.2608383836342938  0.7466942343566457  1.0000
  O   O14       1.0  0.0359212615445728  0.7391561417366148  0.75330521794438  1.0000
  O   O15       1.0  0.4640798286477761  0.7391601358726234  0.2533070103504329  1.0000
  O   O16       1.0  0.964080918840132  0.2608423777703024  0.24669379790343268  1.0000
  O   O17       1.0  0.5847568199993844  0.0073998026513351  0.6592523198355592  1.0000
  O   O18       1.0  0.0847570783039728  0.9925987168555821  0.8407466960122462  1.0000
  O   O19       1.0  0.4152467088822647  0.9926053737489369  0.3407467115433178  1.0000
  O   O20       1.0  0.9152397080929617  0.007405128166020299  0.1592518864885619  1.0000
  O   O21       1.0  0.83378914429111  0.0428863697381914  0.7501972356269491  1.0000
  O   O22       1.0  0.33379075109263556  0.9571108183900562  0.7498017771146479  1.0000
  O   O23       1.0  0.16621033909971317  0.9571108183900562  0.2498026686583543  1.0000
  O   O24       1.0  0.6662087322981805  0.04289036387420709  0.2501963534018827  1.0000
