data_image0
_chemical_formula_structural       Cd4H16C32S8N16
_chemical_formula_sum              "Cd4 H16 C32 S8 N16"
_cell_length_a       8.12367097713673
_cell_length_b       10.069737115861347
_cell_length_c       15.225577826334664
_cell_angle_alpha    106.80957539260736
_cell_angle_beta     90.003871821339
_cell_angle_gamma    113.77811264995343

_space_group_name_H-M_alt    "P 1"
_space_group_IT_number       1

loop_
  _space_group_symop_operation_xyz
  'x, y, z'

loop_
  _atom_site_type_symbol
  _atom_site_label
  _atom_site_symmetry_multiplicity
  _atom_site_fract_x
  _atom_site_fract_y
  _atom_site_fract_z
  _atom_site_occupancy
  Cd  Cd1       1.0  0.7799144865454507  0.7525939866670444  0.8242246038377485  1.0000
  Cd  Cd2       1.0  0.9725418859453255  0.7521929413742967  0.3241607489225515  1.0000
  Cd  Cd3       1.0  0.22008196820137016  0.24740254522262722  0.1757739175708153  1.0000
  Cd  Cd4       1.0  0.02745268415584687  0.24780474481777054  0.6758419329875522  1.0000
  H   H1        1.0  0.23957795402537121  0.0039250214269231  0.5066126339621633  1.0000
  H   H2        1.0  0.7643126854127686  0.004203773391175503  0.0067154191088434  1.0000
  H   H3        1.0  0.7604145477498815  0.9960783773886628  0.4933885084994002  1.0000
  H   H4        1.0  0.23568073569597917  0.995791614872147  0.9932828844885648  1.0000
  H   H5        1.0  0.4332783926267679  0.0300188268471757  0.6439894731075526  1.0000
  H   H6        1.0  0.596529317289132  0.030037669956861607  0.144033309841582  1.0000
  H   H7        1.0  0.5667140236148568  0.969986863133805  0.35601341919674917  1.0000
  H   H8        1.0  0.4034628701944951  0.9699577132580827  0.8559630224026974  1.0000
  H   H9        1.0  0.27852953161281135  0.5411633984456686  0.5341562939298329  1.0000
  H   H10       1.0  0.2627543224699025  0.5411602562643623  0.03397548870445627  1.0000
  H   H11       1.0  0.7214976521324842  0.45885028042291504  0.4658422090301571  1.0000
  H   H12       1.0  0.7372427058721979  0.4588374228747014  0.9660245647436269  1.0000
  H   H13       1.0  0.08896299719053502  0.5375472056198021  0.40231989639566723  1.0000
  H   H14       1.0  0.4488259962760636  0.5378128901292314  0.902169720901334  1.0000
  H   H15       1.0  0.9110528858023627  0.4624561793565222  0.5976766462983107  1.0000
  H   H16       1.0  0.5511760457936176  0.4621825060331305  0.0978318682987194  1.0000
  C   C1        1.0  0.47355976489738083  0.4211330581604998  0.6888467273841101  1.0000
  C   C2        1.0  0.9475447322581584  0.42070893236040524  0.1888338566985794  1.0000
  C   C3        1.0  0.5264480779373173  0.57887147988599  0.3111533186813773  1.0000
  C   C4        1.0  0.05245361163895278  0.5792864538017499  0.8111637897925732  1.0000
  C   C5        1.0  0.03604954012806161  0.11825479670652336  0.8580192388061008  1.0000
  C   C6        1.0  0.08151747082163749  0.11770476891507542  0.3577773811398757  1.0000
  C   C7        1.0  0.9639419999387753  0.8817417527191012  0.14198585376017547  1.0000
  C   C8        1.0  0.9184783202916192  0.8822928983157113  0.6422180724877649  1.0000
  C   C9        1.0  0.46802775000391944  0.7932408806106892  0.6787855614612823  1.0000
  C   C10       1.0  0.32500130474425487  0.7930340416183269  0.1786498358804849  1.0000
  C   C11       1.0  0.5319800964345092  0.20676366429570692  0.321217113071512  1.0000
  C   C12       1.0  0.6749903109459581  0.20696019777717112  0.8213462785579324  1.0000
  C   C13       1.0  0.25233819252906636  0.9049737909508481  0.515823471844854  1.0000
  C   C14       1.0  0.6525604282528192  0.9051888892582626  0.01583056769582207  1.0000
  C   C15       1.0  0.7476646419836398  0.0950330403622104  0.48417898116963437  1.0000
  C   C16       1.0  0.34743242286437237  0.0948053586155666  0.9841688323293808  1.0000
  C   C17       1.0  0.35991543841780776  0.919042350653207  0.5918899247432705  1.0000
  C   C18       1.0  0.5590711103612945  0.9190903405488271  0.09191496665070527  1.0000
  C   C19       1.0  0.640082561542954  0.08096219674056471  0.4081134068852137  1.0000
  C   C20       1.0  0.4409247734930303  0.08090504923637101  0.9080839940688179  1.0000
  C   C21       1.0  0.3684243088314786  0.7863821127611031  0.5995188397132054  1.0000
  C   C22       1.0  0.4178326517276574  0.7863591933801503  0.09941419698738936  1.0000
  C   C23       1.0  0.631583449370531  0.21362471816576095  0.40048361331184884  1.0000
  C   C24       1.0  0.5821596266951871  0.21363390895925963  0.9005843281151158  1.0000
  C   C25       1.0  0.2727928486486987  0.6457063236981283  0.5304619013351228  1.0000
  C   C26       1.0  0.3729288191026754  0.6457707218976767  0.030293309399731086  1.0000
  C   C27       1.0  0.7272283569578092  0.35430278361227613  0.4695370446271241  1.0000
  C   C28       1.0  0.6270713275101867  0.3542258079873691  0.969704554899927  1.0000
  C   C29       1.0  0.16799010969904057  0.6435679807970588  0.4575163732247702  1.0000
  C   C30       1.0  0.47569326850572924  0.6437771797552401  0.9573729413751906  1.0000
  C   C31       1.0  0.8320207658727978  0.35643769916080703  0.5424832335350374  1.0000
  C   C32       1.0  0.5243075381369663  0.3562182079287908  0.04262536223807698  1.0000
  S   S1        1.0  0.3333100930665935  0.31307817219726536  0.5936278788067354  1.0000
  S   S2        1.0  0.9797711896760931  0.3128952172564397  0.09351741178770819  1.0000
  S   S3        1.0  0.6666859717652329  0.6869126541218835  0.4063748105123964  1.0000
  S   S4        1.0  0.020225405592306355  0.6871139074197289  0.9064874481731379  1.0000
  S   S5        1.0  0.1911546427820952  0.2611283192796492  0.8334905897291378  1.0000
  S   S6        1.0  0.06920278838546069  0.2605479444609032  0.3332354962399933  1.0000
  S   S7        1.0  0.8088374636725745  0.7388693636755692  0.16651077794202962  1.0000
  S   S8        1.0  0.9308033417717778  0.7394531672721812  0.6667658677583717  1.0000
  N   N1        1.0  0.5763380117315292  0.49838663156461394  0.7576168691961271  1.0000
  N   N2        1.0  0.9221295227301736  0.49798184035284276  0.257654749494705  1.0000
  N   N3        1.0  0.42366098318611006  0.5016075952467602  0.24237464544034987  1.0000
  N   N4        1.0  0.07786338787963125  0.5020273000477643  0.7423560245096681  1.0000
  N   N5        1.0  0.9258166494995308  0.0154266191503325  0.8781328085487202  1.0000
  N   N6        1.0  0.0889166962299086  0.014958737010360297  0.37802681846871167  1.0000
  N   N7        1.0  0.07418635608042484  0.9845756298319446  0.1218661447802702  1.0000
  N   N8        1.0  0.9110775586787195  0.9850309318660918  0.6219703961072935  1.0000
  N   N9        1.0  0.5453528127069871  0.7989483683184063  0.7451244511735949  1.0000
  N   N10       1.0  0.25348923943278834  0.7986790119089309  0.2450353606217988  1.0000
  N   N11       1.0  0.4546520820232658  0.20105273493634712  0.2548736272379912  1.0000
  N   N12       1.0  0.7465029516545696  0.20131637816592024  0.7549636000897947  1.0000
  N   N13       1.0  0.15706697798118097  0.7698348003390552  0.4506496040345169  1.0000
  N   N14       1.0  0.6128714390581533  0.7701218597070323  0.9506213893084023  1.0000
  N   N15       1.0  0.8429390657415038  0.23016860084444343  0.5493528526897649  1.0000
  N   N16       1.0  0.387128138464078  0.22987353150349324  0.04937822853587898  1.0000
