data_image0
_chemical_formula_structural       Zn4H56C48N24
_chemical_formula_sum              "Zn4 H56 C48 N24"
_cell_length_a       15.00576681038599
_cell_length_b       15.005866971532162
_cell_length_c       15.005897608765524
_cell_angle_alpha    69.65351981381568
_cell_angle_beta     72.19338741951675
_cell_angle_gamma    110.27324134697112

_space_group_name_H-M_alt    "P 1"
_space_group_IT_number       1

loop_
  _space_group_symop_operation_xyz
  'x, y, z'

loop_
  _atom_site_type_symbol
  _atom_site_label
  _atom_site_symmetry_multiplicity
  _atom_site_fract_x
  _atom_site_fract_y
  _atom_site_fract_z
  _atom_site_occupancy
  Zn  Zn1       1.0  0.3641236333675124  0.5000012335036531  0.13587450231169387  1.0000
  Zn  Zn2       1.0  0.5000000170297412  0.6366317005810843  0.863368484051428  1.0000
  Zn  Zn3       1.0  0.6358778316127883  0.5000032344211791  0.864122746213049  1.0000
  Zn  Zn4       1.0  0.5000004150073922  0.363373358790483  0.1366282482092489  1.0000
  H   H1        1.0  0.14801719412993455  0.313074251985519  0.17995569134845377  1.0000
  H   H2        1.0  0.5523643829800875  0.7367559625065356  0.6031903585789069  1.0000
  H   H3        1.0  0.4018322105443205  0.7366895465536916  0.21536042991427723  1.0000
  H   H4        1.0  0.7012373546967581  0.49605524323420996  0.2506411408685595  1.0000
  H   H5        1.0  0.8427424889949648  0.5035447332650521  0.1157909893943059  1.0000
  H   H6        1.0  0.8528187353335284  0.6361012136137206  0.06287193438067382  1.0000
  H   H7        1.0  0.7913836055872068  0.5403897368142696  0.025577208154821788  1.0000
  H   H8        1.0  0.8542735660188117  0.4156803034296249  0.7737708032265688  1.0000
  H   H9        1.0  0.0065915173605758754  0.5931857161354372  0.6786264306613033  1.0000
  H   H10       1.0  0.0046016546460735325  0.5266241027451458  0.8046753483239044  1.0000
  H   H11       1.0  0.9520562429188292  0.6171948163696971  0.7846342252125854  1.0000
  H   H12       1.0  0.7466943702564566  0.951880197688489  0.749354400405359  1.0000
  H   H13       1.0  0.4930380797131305  0.3279732143838886  0.8200442342295133  1.0000
  H   H14       1.0  0.6989740136496253  0.9156925441863922  0.9371239171751001  1.0000
  H   H15       1.0  0.5659664072826658  0.8169618969839477  0.9744205477701515  1.0000
  H   H16       1.0  0.6193340944245591  0.9585332055926231  0.8842066374899038  1.0000
  H   H17       1.0  0.3399522727091338  0.15556394401419746  0.3968057035785294  1.0000
  H   H18       1.0  0.8519871961348287  0.6720328551097057  0.8349351932102851  1.0000
  H   H19       1.0  0.4476223932859967  0.8444380879281895  0.8156126401900677  1.0000
  H   H20       1.0  0.5069726747256665  0.6869286348797844  0.16505629206821507  1.0000
  H   H21       1.0  0.6600497490010896  0.2632425031958832  0.1843891880788818  1.0000
  H   H22       1.0  0.885343134589043  0.030103485788082446  0.7526933311092068  1.0000
  H   H23       1.0  0.9496251143691911  0.3454799221257477  0.8599720899947487  1.0000
  H   H24       1.0  0.7827994522547073  0.6380378002462594  0.24730481154706777  1.0000
  H   H25       1.0  0.20545233318812703  0.8096021589611055  0.14002975425700018  1.0000
  H   H26       1.0  0.11465676466134775  0.36196152869985115  0.8552404666071921  1.0000
  H   H27       1.0  0.0503737315514386  0.19040098507312578  0.6041456451078985  1.0000
  H   H28       1.0  0.21720290397190203  0.9699021988350369  0.14475753264140695  1.0000
  H   H29       1.0  0.7945451602005563  0.6545192932195791  0.39585573586470024  1.0000
  H   H30       1.0  0.9872710933844149  0.8942498349510264  0.7072813096438968  1.0000
  H   H31       1.0  0.8677607962724352  0.30027487014619697  0.09414073263013048  1.0000
  H   H32       1.0  0.6015338625608708  0.694553886775154  0.29271538877219444  1.0000
  H   H33       1.0  0.3944067994545579  0.9618946677744663  0.9058607711634468  1.0000
  H   H34       1.0  0.012727691968990507  0.3054461435082914  0.09301940312811757  1.0000
  H   H35       1.0  0.13224601822442855  0.03810522385727932  0.5674841924233931  1.0000
  H   H36       1.0  0.39847888279209803  0.10575142217350496  0.9069803166584691  1.0000
  H   H37       1.0  0.6055801947197568  0.6997201890604503  0.43251618967882904  1.0000
  H   H38       1.0  0.8105443943719808  0.5843070167191232  0.561421939777738  1.0000
  H   H39       1.0  0.7281740152221944  0.40680015471883724  0.5866115741351623  1.0000
  H   H40       1.0  0.668704168051413  0.4733723766882181  0.5220211442958631  1.0000
  H   H41       1.0  0.5981575889068227  0.38280564396620814  0.6651380443150999  1.0000
  H   H42       1.0  0.29877061022594387  0.04812438170813501  0.20517931293807842  1.0000
  H   H43       1.0  0.15726269887152003  0.04146450405512076  0.3391964768539851  1.0000
  H   H44       1.0  0.14718488430749943  0.08430555740385166  0.21671588969896766  1.0000
  H   H45       1.0  0.20861640721391697  0.1830371421642952  0.2509942770778366  1.0000
  H   H46       1.0  0.1457252150969026  0.3719588957426653  0.43859345263982885  1.0000
  H   H47       1.0  0.9934080498729116  0.31478741891908896  0.4134044441184132  1.0000
  H   H48       1.0  0.9953975730890079  0.19072722353717364  0.47797308809469297  1.0000
  H   H49       1.0  0.04794646783089726  0.2633182519897305  0.3348565339325731  1.0000
  H   H50       1.0  0.25329931748925116  0.5039405236551532  0.7948204396882093  1.0000
  H   H51       1.0  0.380656555043153  0.49644640816733004  0.6608063999602936  1.0000
  H   H52       1.0  0.3010192927803033  0.363891441718586  0.7832915142643487  1.0000
  H   H53       1.0  0.4340296270649804  0.4596051619795249  0.7490092921031248  1.0000
  H   H54       1.0  0.1894488753425705  0.6280340075276102  0.22623553413830425  1.0000
  H   H55       1.0  0.27181587404353286  0.6852035269693887  0.3213794567223972  1.0000
  H   H56       1.0  0.3312909917469968  0.8092661445649088  0.19533608621600973  1.0000
  C   C1        1.0  0.20483395413248218  0.3644049160620995  0.09338927275895524  1.0000
  C   C2        1.0  0.591156710100634  0.6890929282884174  0.6224554292445816  1.0000
  C   C3        1.0  0.4577978752211323  0.29822409413941414  0.9066105585349079  1.0000
  C   C4        1.0  0.31155260578002253  0.21362050613693395  0.37754111145260794  1.0000
  C   C5        1.0  0.7951671520280997  0.7017799087204539  0.8404261063928405  1.0000
  C   C6        1.0  0.40883396756462537  0.7863833222770256  0.9020662938806228  1.0000
  C   C7        1.0  0.5422093389907303  0.6355989042639935  0.1595672336739685  1.0000
  C   C8        1.0  0.6884493143965074  0.3109067261690799  0.09793380293979963  1.0000
  C   C9        1.0  0.6771577341161007  0.5947569940927127  0.6267045890108778  1.0000
  C   C10       1.0  0.3684053612702272  0.20185710031566376  0.08678410070611173  1.0000
  C   C11       1.0  0.22146414977216017  0.30386818494525875  0.37329845098400943  1.0000
  C   C12       1.0  0.28863752106646956  0.45518618567096075  0.9132166758508901  1.0000
  C   C13       1.0  0.32283474867914913  0.6961329896032069  0.0824026627901518  1.0000
  C   C14       1.0  0.631599498228617  0.5448158414709782  0.16654575465049276  1.0000
  C   C15       1.0  0.7785376063211019  0.40524127948334876  0.9175986244334241  1.0000
  C   C16       1.0  0.7113597554251642  0.798147390687355  0.8334488903242275  1.0000
  C   C17       1.0  0.18416027320447625  0.37602819774193824  0.005808858370429059  1.0000
  C   C18       1.0  0.650691009793448  0.6601103666664444  0.5569038119384762  1.0000
  C   C19       1.0  0.38184190302042964  0.18997065721104903  0.9941927540149822  1.0000
  C   C20       1.0  0.21701919306527637  0.20760296620013471  0.44309702600340023  1.0000
  C   C21       1.0  0.8158378587745078  0.8100332927589169  0.8081297331628433  1.0000
  C   C22       1.0  0.34929845924311553  0.7923993014313171  0.9905845426141372  1.0000
  C   C23       1.0  0.6181654467757055  0.6239728438034932  0.19186608784530557  1.0000
  C   C24       1.0  0.7829825708913205  0.33988624630468683  0.009419275088980496  1.0000
  C   C25       1.0  0.9473442171075277  0.014467750339569933  0.7120191497223303  1.0000
  C   C26       1.0  0.9523885820517036  0.33149308139065436  0.9354177406316854  1.0000
  C   C27       1.0  0.726489876315121  0.6593626347866464  0.287979374437839  1.0000
  C   C28       1.0  0.26690893926804193  0.8878077868839044  0.06458596069889218  1.0000
  C   C29       1.0  0.05265923422062722  0.3406389409757867  0.9328712302616111  1.0000
  C   C30       1.0  0.047611016105548784  0.11219525866265213  0.6208960672917881  1.0000
  C   C31       1.0  0.273514472266541  0.9855371643762824  0.06712364764518257  1.0000
  C   C32       1.0  0.7330876292927543  0.6685060624452323  0.3791050499199856  1.0000
  C   C33       1.0  0.9216463530765039  0.9081259310600629  0.7433984811860771  1.0000
  C   C34       1.0  0.8683961889253027  0.31933665386272747  0.016474503403486697  1.0000
  C   C35       1.0  0.6515253072444481  0.6650476617014861  0.25659692328516603  1.0000
  C   C36       1.0  0.3358076726114445  0.8848688472672137  0.9835272082023964  1.0000
  C   C37       1.0  0.07835394254005477  0.33495078254911453  0.013523785489674464  1.0000
  C   C38       1.0  0.13160731584969926  0.1151317290549019  0.5490552032436398  1.0000
  C   C39       1.0  0.34848379028402143  0.09187883999359087  0.9864786885736905  1.0000
  C   C40       1.0  0.6641827029597351  0.6806569756507272  0.4509424781862282  1.0000
  C   C41       1.0  0.6788593299067783  0.44603578931610616  0.5948396111267514  1.0000
  C   C42       1.0  0.19867729018127991  0.10617259054250647  0.2536218052226006  1.0000
  C   C43       1.0  0.04087542976349577  0.2737045838685861  0.4051651601249446  1.0000
  C   C44       1.0  0.3597925201263906  0.4522914240455693  0.7463815099518598  1.0000
  C   C45       1.0  0.32113244748625647  0.726292210178606  0.23282850969562233  1.0000
  C   C46       1.0  0.8013252939934361  0.5477019514220985  0.09249976545974227  1.0000
  C   C47       1.0  0.9591247693081185  0.553958107071388  0.7671745400910126  1.0000
  C   C48       1.0  0.6402026874149982  0.8938264636142678  0.9074967575425961  1.0000
  N   N1        1.0  0.31077816451960427  0.42962351932214915  0.056855888326239966  1.0000
  N   N2        1.0  0.5831266688993183  0.6460895657773096  0.7213533188661788  1.0000
  N   N3        1.0  0.48648236749739504  0.36763489382759246  0.9431418969839316  1.0000
  N   N4        1.0  0.36744399348940265  0.30448708957087  0.27864263137184514  1.0000
  N   N5        1.0  0.6892249997178509  0.6323697678470807  0.8811512269183271  1.0000
  N   N6        1.0  0.41686772607463496  0.6955167054304071  0.9370393249589385  1.0000
  N   N7        1.0  0.5135219017333057  0.57037956634656  0.11884320639568112  1.0000
  N   N8        1.0  0.6325578632050296  0.35391377460883444  0.0629605458843089  1.0000
  N   N9        1.0  0.6357610191316354  0.5875210244519595  0.7240725811448812  1.0000
  N   N10       1.0  0.43264576876796224  0.30827398312192156  0.054130139612340276  1.0000
  N   N11       1.0  0.3115927897366717  0.35983876475432214  0.27592594225994566  1.0000
  N   N12       1.0  0.36240201773221514  0.486777361688816  0.945867901068489  1.0000
  N   N13       1.0  0.3642358418509348  0.6401635831541415  0.04824117488163192  1.0000
  N   N14       1.0  0.567356392380411  0.5132254059538397  0.12437377083401936  1.0000
  N   N15       1.0  0.6884065478444086  0.41248208845416917  0.951758436485953  1.0000
  N   N16       1.0  0.6375980845784993  0.6917315196667319  0.8756233527133618  1.0000
  N   N17       1.0  0.7296523925920438  0.5342231181000018  0.6151454560763626  1.0000
  N   N18       1.0  0.30664673036943674  0.1210457430168362  0.19769479365879056  1.0000
  N   N19       1.0  0.1493678583953014  0.3448011459225954  0.38486231929358894  1.0000
  N   N20       1.0  0.31873626658440923  0.5043334294085399  0.8023062147958484  1.0000
  N   N21       1.0  0.2703400243403282  0.655197922168391  0.19543162477621231  1.0000
  N   N22       1.0  0.6933568699001853  0.49566107194701936  0.18559811624020067  1.0000
  N   N23       1.0  0.8506316294619721  0.4657692492465203  0.8045709137522226  1.0000
  N   N24       1.0  0.6812584533067891  0.8789567748217808  0.8143995050989906  1.0000
