data_image0
_chemical_formula_structural       Al4H13C39N3O20
_chemical_formula_sum              "Al4 H13 C39 N3 O20"
_cell_length_a       6.68633185592188
_cell_length_b       16.6708801154935
_cell_length_c       18.606601190116756
_cell_angle_alpha    74.30958535733964
_cell_angle_beta     89.70249359188705
_cell_angle_gamma    89.74956197646505

_space_group_name_H-M_alt    "P 1"
_space_group_IT_number       1

loop_
  _space_group_symop_operation_xyz
  'x, y, z'

loop_
  _atom_site_type_symbol
  _atom_site_label
  _atom_site_symmetry_multiplicity
  _atom_site_fract_x
  _atom_site_fract_y
  _atom_site_fract_z
  _atom_site_occupancy
  Al  Al1       1.0  0.11196491176531245  0.5026432937345005  0.5026959898964448  1.0000
  Al  Al2       1.0  0.6105588807789529  0.5029464884680264  0.500022450330924  1.0000
  Al  Al3       1.0  0.624511325411177  0.0012744951951048948  0.997863611611734  1.0000
  Al  Al4       1.0  0.1262393438762004  0.003150839389938698  0.9988964856552298  1.0000
  H   H1        1.0  0.5917673515175963  0.6428976854219854  0.268085679969694  1.0000
  H   H2        1.0  0.1917483777111499  0.892591513823838  0.2716243788477684  1.0000
  H   H3        1.0  0.3390177048247836  0.8480619852806084  0.21134200942874054  1.0000
  H   H4        1.0  0.34582592240806775  0.7111635250193514  0.30682852020677837  1.0000
  H   H5        1.0  0.0874429297130277  0.35403373763373475  0.7302701225756109  1.0000
  H   H6        1.0  0.09886978530234809  0.23579418600014881  0.8455132599975173  1.0000
  H   H7        1.0  0.7189801230380224  0.22734253191882908  0.6229761601978864  1.0000
  H   H8        1.0  0.8508016598463256  0.29373720130327274  0.6672781907697  1.0000
  H   H9        1.0  0.8622516761833265  0.1791686220621357  0.7861300434155111  1.0000
  H   H10       1.0  0.3587851917546843  0.6097117139751161  0.49675363062435435  1.0000
  H   H11       1.0  0.8637267964359693  0.40322678542206347  0.48971539090083366  1.0000
  H   H12       1.0  0.3731480674563912  0.8914906813567142  0.027127804290380246  1.0000
  H   H13       1.0  0.8698632292695904  0.09871203514515507  0.0170387257842677  1.0000
  C   C1        1.0  0.36266711173827554  0.4114360216400427  0.4189016563319966  1.0000
  C   C2        1.0  0.362079462115986  0.39325060074753526  0.6166978712387488  1.0000
  C   C3        1.0  0.85724339585672  0.5921566762576943  0.5832216651572394  1.0000
  C   C4        1.0  0.863669046913486  0.6090634737656655  0.38282859097775906  1.0000
  C   C5        1.0  0.025719911197171492  0.7321587550157033  0.29264457481033185  1.0000
  C   C6        1.0  0.8696850662282785  0.6754640618430087  0.3106797408972922  1.0000
  C   C7        1.0  0.7145340378564169  0.6874141814269662  0.2582503865858499  1.0000
  C   C8        1.0  0.7159440146378768  0.7542620865093921  0.19299962937478907  1.0000
  C   C9        1.0  0.8718669050499701  0.8146306717299152  0.17803608412020813  1.0000
  C   C10       1.0  0.024627795485009988  0.8008252636766784  0.23021222727894733  1.0000
  C   C11       1.0  0.21575985784062365  0.8369946376701162  0.2517594795486461  1.0000
  C   C12       1.0  0.23016463920481559  0.753385181214142  0.318156636379534  1.0000
  C   C13       1.0  0.8853948360357362  0.8648014904975695  0.8638514958555772  1.0000
  C   C14       1.0  0.8806272548600018  0.8205073136911594  0.8209629044884037  1.0000
  C   C15       1.0  0.8739689007561819  0.7729619398806232  0.7733667961562034  1.0000
  C   C16       1.0  0.8666996571764753  0.7297829178315921  0.7290465021003243  1.0000
  C   C17       1.0  0.8604465526930554  0.683521128733858  0.6803498595833871  1.0000
  C   C18       1.0  0.8554860145313936  0.6414371478581911  0.6355424607766834  1.0000
  C   C19       1.0  0.36051332617115156  0.3600667343756924  0.3679862536581168  1.0000
  C   C20       1.0  0.36149978617439144  0.31666860916236317  0.32424979999262854  1.0000
  C   C21       1.0  0.3637449113725494  0.2694626772267128  0.2762609418548151  1.0000
  C   C22       1.0  0.36688548865762977  0.22625512405632967  0.23191578695729476  1.0000
  C   C23       1.0  0.3698871842652665  0.17953085501701338  0.18353269170518868  1.0000
  C   C24       1.0  0.372469686235732  0.1369294273312818  0.13912680975789019  1.0000
  C   C25       1.0  0.5328882649458108  0.2707925835275801  0.703940019635368  1.0000
  C   C26       1.0  0.37110331649049744  0.32564448244077937  0.6874911762230835  1.0000
  C   C27       1.0  0.21482114857501236  0.3114799891211888  0.7405073904827261  1.0000
  C   C28       1.0  0.22074553258931928  0.24509995245680463  0.8049830209125233  1.0000
  C   C29       1.0  0.3825328040621442  0.18850893942686744  0.8203401726970795  1.0000
  C   C30       1.0  0.5377360902369971  0.20462485891533785  0.7683300161350245  1.0000
  C   C31       1.0  0.7404394003248455  0.17308371281664134  0.7485154472282927  1.0000
  C   C32       1.0  0.7298938039720965  0.2479996834676469  0.674043162573568  1.0000
  C   C33       1.0  0.38355647624992156  0.11684506966489037  0.8882323852902513  1.0000
  C   C34       1.0  0.36932565322011607  0.08812896201051497  0.0859767765660209  1.0000
  C   C35       1.0  0.8701826902081037  0.8876830320077926  0.11079698113003641  1.0000
  C   C36       1.0  0.8848702382154485  0.9170761993515908  0.9137461065156882  1.0000
  C   C37       1.0  0.5552504246839973  0.7597189356591229  0.14147409562117014  1.0000
  C   C38       1.0  0.2568091303175776  0.7566821179723956  0.39454102511373174  1.0000
  C   C39       1.0  0.7462693539713213  0.09008786619837389  0.7378219889680933  1.0000
  N   N1        1.0  0.42067549688602673  0.7620150708849278  0.1011175708390297  1.0000
  N   N2        1.0  0.28217457231508547  0.7556062117527843  0.45677800977123434  1.0000
  N   N3        1.0  0.7504756770150464  0.02428915885801789  0.7271993952175817  1.0000
  O   O1        1.0  0.5297728544468256  0.4165806123898149  0.5853112480775379  1.0000
  O   O2        1.0  0.19344911111982546  0.42992395486189827  0.4419075993823681  1.0000
  O   O3        1.0  0.03279078959265289  0.5859502990273385  0.41225281289312204  1.0000
  O   O4        1.0  0.19012628989937494  0.42028192025182415  0.5922706817532911  1.0000
  O   O5        1.0  0.028530959155972403  0.5721254299995876  0.5631189113646542  1.0000
  O   O6        1.0  0.5339696078416337  0.43317665488541474  0.4362798586412494  1.0000
  O   O7        1.0  0.3608056009449497  0.5531692744634498  0.49135349080786034  1.0000
  O   O8        1.0  0.688576721292847  0.572647351676622  0.5611460442583931  1.0000
  O   O9        1.0  0.6915996616943971  0.5846739193066383  0.4087652560169273  1.0000
  O   O10       1.0  0.8620159367755349  0.4524545248796058  0.5080779786447991  1.0000
  O   O11       1.0  0.19777575428543764  0.06331005702114109  0.07188888596409979  1.0000
  O   O12       1.0  0.5521543980924689  0.08257483447818707  0.9082963968421325  1.0000
  O   O13       1.0  0.7158829415912963  0.9292362812288244  0.9410529494202747  1.0000
  O   O14       1.0  0.5369561184927178  0.07550895633083599  0.05802306968794819  1.0000
  O   O15       1.0  0.6997177416937888  0.9185365638893398  0.0890515058462142  1.0000
  O   O16       1.0  0.21696593328020694  0.09633838348168668  0.9214911030464488  1.0000
  O   O17       1.0  0.3748055886505951  0.9520501914557681  0.008101989147895916  1.0000
  O   O18       1.0  0.039662893832513584  0.9113594101058805  0.08196949396168657  1.0000
  O   O19       1.0  0.052648817784195494  0.9456449629600311  0.9273879923958784  1.0000
  O   O20       1.0  0.8740433169345536  0.052630109470840084  0.994433905181573  1.0000
