data_image0
_chemical_formula_structural       Zn2H24C38N2O8
_chemical_formula_sum              "Zn2 H24 C38 N2 O8"
_cell_length_a       11.873163540784411
_cell_length_b       12.543409361142265
_cell_length_c       13.358664539184407
_cell_angle_alpha    82.25139872401716
_cell_angle_beta     87.47559047472238
_cell_angle_gamma    76.26759248364264

_space_group_name_H-M_alt    "P 1"
_space_group_IT_number       1

loop_
  _space_group_symop_operation_xyz
  'x, y, z'

loop_
  _atom_site_type_symbol
  _atom_site_label
  _atom_site_symmetry_multiplicity
  _atom_site_fract_x
  _atom_site_fract_y
  _atom_site_fract_z
  _atom_site_occupancy
  Zn  Zn1       1.0  0.4689414297919328  0.6183866396346644  0.5158648639783435  1.0000
  Zn  Zn2       1.0  0.5304710005837308  0.3809934861605698  0.4764667716702674  1.0000
  H   H1        1.0  0.42337413964298787  0.26294732176192076  0.7887075758542463  1.0000
  H   H2        1.0  0.5136371932756917  0.5664965866170135  0.821279589766405  1.0000
  H   H3        1.0  0.527081264242703  0.7626433492167951  0.20903137836111088  1.0000
  H   H4        1.0  0.5209931445667023  0.6799979154672259  0.907520729416454  1.0000
  H   H5        1.0  0.5525269094807469  0.8076312949527422  0.02191213332991985  1.0000
  H   H6        1.0  0.37160922724250883  0.43986377924122877  0.24859288185413658  1.0000
  H   H7        1.0  0.7204436572003557  0.2002945719224272  0.1665238950493801  1.0000
  H   H8        1.0  0.5976871600456165  0.3093912983420566  0.1844159283774829  1.0000
  H   H9        1.0  0.7358004040083301  0.3385768950981216  0.15889838473430729  1.0000
  H   H10       1.0  0.6894098719755917  0.344290014906342  0.34079787298063013  1.0000
  H   H11       1.0  0.8081719445436731  0.23259512570962224  0.3260568769623901  1.0000
  H   H12       1.0  0.30106027863850926  0.135856913121458  0.6733205197362153  1.0000
  H   H13       1.0  0.16596098969294104  0.7386279661117783  0.5645085209572897  1.0000
  H   H14       1.0  0.11222468506899472  0.6946866285029145  0.6848616650324145  1.0000
  H   H15       1.0  0.10946995742383342  0.8374547727440672  0.6494310198999925  1.0000
  H   H16       1.0  0.32855088111934794  0.647027999030101  0.6855346003203378  1.0000
  H   H17       1.0  0.27383038787997555  0.7461572760032595  0.768498727334098  1.0000
  H   H18       1.0  0.26563404129393586  0.946396133041354  0.7119115144509393  1.0000
  H   H19       1.0  0.5517950294496003  0.8069971882536818  0.45595050628553213  1.0000
  H   H20       1.0  0.6531678992606514  0.9095479965810966  0.38708223787099866  1.0000
  H   H21       1.0  0.751807237370585  0.048138962663649885  0.2975078790467477  1.0000
  H   H22       1.0  0.4060322409190178  0.2627808071271005  0.5780735351652453  1.0000
  H   H23       1.0  0.3342940548730837  0.3135500397355173  0.13554600047089585  1.0000
  H   H24       1.0  0.3623750005441694  0.2429717164708549  0.9705967745361617  1.0000
  C   C1        1.0  0.4771925401563734  0.5825997932382523  0.30903380709046485  1.0000
  C   C2        1.0  0.37406177208253405  0.3816001942809706  0.10581964013469049  1.0000
  C   C3        1.0  0.3943182658601502  0.4522135937883365  0.16868368655267568  1.0000
  C   C4        1.0  0.7164182673309581  0.504617042593992  0.4909937914135226  1.0000
  C   C5        1.0  0.4807455727030501  0.4964794062917549  0.8568110192063043  1.0000
  C   C6        1.0  0.4295958909701839  0.3245247106723994  0.8372538881124924  1.0000
  C   C7        1.0  0.4732148796579806  0.613935934110316  0.19683775086391353  1.0000
  C   C8        1.0  0.32987689899466216  0.9183254699244118  0.6543192247756835  1.0000
  C   C9        1.0  0.653045109625751  0.1834114574122196  0.372124559529844  1.0000
  C   C10       1.0  0.6832036197678519  0.0720451079097373  0.3526588184971189  1.0000
  C   C11       1.0  0.6277419304275471  0.9952701006236994  0.4023665697996037  1.0000
  C   C12       1.0  0.4711221790478959  0.4178066870461379  0.7957824198579857  1.0000
  C   C13       1.0  0.539106577946157  0.028402291035952498  0.4732609324299942  1.0000
  C   C14       1.0  0.5134525450345251  0.140964257295991  0.4915562736395529  1.0000
  C   C15       1.0  0.4744973339798974  0.9539947571097188  0.527861331173689  1.0000
  C   C16       1.0  0.49968931985612386  0.43839069166535444  0.6858654706380561  1.0000
  C   C17       1.0  0.3896439127173394  0.9930122970306313  0.6013717623778163  1.0000
  C   C18       1.0  0.3673171590267543  0.10605879725134323  0.6179006033088823  1.0000
  C   C19       1.0  0.4256707920979397  0.1770565955139674  0.5646281328773596  1.0000
  C   C20       1.0  0.4891773580376649  0.8432218571209733  0.5113790028621636  1.0000
  C   C21       1.0  0.3496704972942766  0.8100318617002671  0.6338915214605335  1.0000
  C   C22       1.0  0.283308566563683  0.48992926310074136  0.4933132201054277  1.0000
  C   C23       1.0  0.5085558905222101  0.7090507479110357  0.15721429518175256  1.0000
  C   C24       1.0  0.8387231449790562  0.5028061276726136  0.492031393033855  1.0000
  C   C25       1.0  0.9423026241476721  0.5007997670530315  0.4923787578279146  1.0000
  C   C26       1.0  0.05664211079448478  0.4978795352993046  0.4929469796302185  1.0000
  C   C27       1.0  0.16053883190839707  0.4946238606110285  0.49325531731761163  1.0000
  C   C28       1.0  0.3964769687365006  0.31371675019723005  0.9378941204547003  1.0000
  C   C29       1.0  0.7143791571979533  0.26387008054293665  0.31291002993228284  1.0000
  C   C30       1.0  0.690621079981554  0.2782614508715255  0.199075650978024  1.0000
  C   C31       1.0  0.28135019410805745  0.7329130712865464  0.6883722758496017  1.0000
  C   C32       1.0  0.15973618450743027  0.7526726661461183  0.6440131993917717  1.0000
  C   C33       1.0  0.5235840189796972  0.733349762228933  0.05250960105838229  1.0000
  C   C34       1.0  0.50524548325582  0.6614122774744544  0.9882416043900972  1.0000
  C   C35       1.0  0.4667776131543989  0.5649372121842475  0.025592689587007566  1.0000
  C   C36       1.0  0.44556371232281566  0.54297951434868  0.13156790914248967  1.0000
  C   C37       1.0  0.451005155987481  0.4860464374795799  0.960090957963409  1.0000
  C   C38       1.0  0.40643826844700476  0.39293464230313185  0.0012564717751004865  1.0000
  N   N1        1.0  0.4289547523066944  0.7744767741788368  0.5608705310979971  1.0000
  N   N2        1.0  0.5707248644143946  0.21637436421849535  0.44113260614864186  1.0000
  O   O1        1.0  0.44127441790357835  0.6590078818723982  0.3646654949804145  1.0000
  O   O2        1.0  0.5218238654407442  0.4812690466778518  0.3397620559841242  1.0000
  O   O3        1.0  0.6468938186953892  0.5995115482168245  0.4829028508362185  1.0000
  O   O4        1.0  0.6918546107167814  0.41030574119331226  0.49802959682880027  1.0000
  O   O5        1.0  0.5162268668673705  0.5338580825726496  0.6536026286141022  1.0000
  O   O6        1.0  0.5025093111367269  0.3618019532193061  0.6312781481273999  1.0000
  O   O7        1.0  0.3131155775892935  0.5674834669922576  0.5298279106248102  1.0000
  O   O8        1.0  0.349783693939692  0.40799146927579943  0.4576058495274181  1.0000
