data_image0
_chemical_formula_structural       Zn3H12C20N6O8
_chemical_formula_sum              "Zn3 H12 C20 N6 O8"
_cell_length_a       9.116247938197814
_cell_length_b       10.146077772381956
_cell_length_c       11.357293472562713
_cell_angle_alpha    132.45709585898203
_cell_angle_beta     99.01219046727792
_cell_angle_gamma    100.6581652507995

_space_group_name_H-M_alt    "P 1"
_space_group_IT_number       1

loop_
  _space_group_symop_operation_xyz
  'x, y, z'

loop_
  _atom_site_type_symbol
  _atom_site_label
  _atom_site_symmetry_multiplicity
  _atom_site_fract_x
  _atom_site_fract_y
  _atom_site_fract_z
  _atom_site_occupancy
  Zn  Zn1       1.0  0.49998917754788136  0.4999977343616562  0.9999968488125005  1.0000
  Zn  Zn2       1.0  0.7931624997810262  0.33834572319000944  0.8297502956074112  1.0000
  Zn  Zn3       1.0  0.20683817546289862  0.6616251912003289  0.17020561870531728  1.0000
  H   H1        1.0  0.3040641449003658  0.07205705394303406  0.8935375608997945  1.0000
  H   H2        1.0  0.6959838864905946  0.9279659365490571  0.10651210845352196  1.0000
  H   H3        1.0  0.7689361933203429  0.04684717219922868  0.9795653815135168  1.0000
  H   H4        1.0  0.23110369948807363  0.9531700322124976  0.02046499276814737  1.0000
  H   H5        1.0  0.2921893835339872  0.6374571440770253  0.5300389712948927  1.0000
  H   H6        1.0  0.7077960435451941  0.36253717629443816  0.46994755996654186  1.0000
  H   H7        1.0  0.6236118104889528  0.4164828253982265  0.2891774192246928  1.0000
  H   H8        1.0  0.376384988825393  0.583530287887825  0.7108277935892388  1.0000
  H   H9        1.0  0.7482629680906498  0.7867641015724653  0.4084723310348222  1.0000
  H   H10       1.0  0.25172264625116714  0.21323804379628797  0.5915219219372716  1.0000
  H   H11       1.0  0.0785170270099015  0.849243413374374  0.4813049823020776  1.0000
  H   H12       1.0  0.9214790835863128  0.15074159329812173  0.518664843608974  1.0000
  C   C1        1.0  0.5399399485466106  0.06461352379609044  0.9279191326513824  1.0000
  C   C2        1.0  0.4600633996025392  0.935414593309154  0.07211358185676875  1.0000
  C   C3        1.0  0.38798808732482826  0.03777149750871437  0.9387377529715906  1.0000
  C   C4        1.0  0.6120308847974057  0.9622119965395083  0.06127884030815499  1.0000
  C   C5        1.0  0.6517726692414173  0.026423632445087678  0.9897280573399954  1.0000
  C   C6        1.0  0.3482678307555742  0.9736326884294894  0.010308975112025033  1.0000
  C   C7        1.0  0.5845967123873592  0.14359614949617586  0.859382485516342  1.0000
  C   C8        1.0  0.4154087211223254  0.8563932362864929  0.14062998247776884  1.0000
  C   C9        1.0  0.45341822363556616  0.5307730144240208  0.39969605507449296  1.0000
  C   C10       1.0  0.5465455586032277  0.4692140713812874  0.6003021544286041  1.0000
  C   C11       1.0  0.3826403058288788  0.576781691180322  0.5175265785490664  1.0000
  C   C12       1.0  0.617403446014002  0.42328093385594195  0.4825089458950274  1.0000
  C   C13       1.0  0.5710327618959568  0.45379894341396465  0.38273408159005845  1.0000
  C   C14       1.0  0.42895663715148663  0.5461812704466878  0.6172623699963752  1.0000
  C   C15       1.0  0.4010840854001785  0.5577907661915301  0.28824287916750535  1.0000
  C   C16       1.0  0.5988803941331184  0.44218723945478877  0.7117399805708189  1.0000
  C   C17       1.0  0.8155170701514436  0.7353604945457801  0.3254357724109767  1.0000
  C   C18       1.0  0.184472344945803  0.26463520045373184  0.6745431968964227  1.0000
  C   C19       1.0  0.9782178241201935  0.7666098534134562  0.36173019944607904  1.0000
  C   C20       1.0  0.021781221727969965  0.2333779386380143  0.6382486118569091  1.0000
  N   N1        1.0  0.7436306317149997  0.6209576749813619  0.15465801119487554  1.0000
  N   N2        1.0  0.2563433748145627  0.37903620536361143  0.8453337438717768  1.0000
  N   N3        1.0  0.8558467581623789  0.5836685343558154  0.08754422862994447  1.0000
  N   N4        1.0  0.14412850658920454  0.4163250575629859  0.9124378063126244  1.0000
  N   N5        1.0  0.9993187900864767  0.6708809212733013  0.21160851243891426  1.0000
  N   N6        1.0  0.0006846467954843375  0.32910937247385147  0.7883616201574881  1.0000
  O   O1        1.0  0.7193317425813179  0.1484234855397942  0.8368434448556741  1.0000
  O   O2        1.0  0.28066158955671466  0.851538471184696  0.16315363123709395  1.0000
  O   O3        1.0  0.4942425254452303  0.20795086999907392  0.8311893956568426  1.0000
  O   O4        1.0  0.5057824593005263  0.7920436243085829  0.1688223724073764  1.0000
  O   O5        1.0  0.4433913548539365  0.47963251990819317  0.16168126681914424  1.0000
  O   O6        1.0  0.556611074752624  0.520401319867588  0.8383304278392388  1.0000
  O   O7        1.0  0.3126918399371874  0.6569176689557847  0.3285046984881674  1.0000
  O   O8        1.0  0.6872706269185754  0.34304576351615157  0.6714533081314754  1.0000
