data_image0
_chemical_formula_structural       Zn4H32C48N24
_chemical_formula_sum              "Zn4 H32 C48 N24"
_cell_length_a       10.087338139
_cell_length_b       10.22580060930464
_cell_length_c       12.1549
_cell_angle_alpha    109.54243155005415
_cell_angle_beta     90.0
_cell_angle_gamma    90.0

_space_group_name_H-M_alt    "P 1"
_space_group_IT_number       1

loop_
  _space_group_symop_operation_xyz
  'x, y, z'

loop_
  _atom_site_type_symbol
  _atom_site_label
  _atom_site_symmetry_multiplicity
  _atom_site_fract_x
  _atom_site_fract_y
  _atom_site_fract_z
  _atom_site_occupancy
  Zn  Zn1       1.0  0.0662325373447032  0.0022082171544398  0.8605231950434913  1.0000
  Zn  Zn2       1.0  0.5662316382472596  0.9977914303402217  0.6394775284694347  1.0000
  Zn  Zn3       1.0  0.9337686384858088  0.9977914303402217  0.13947506032901197  1.0000
  Zn  Zn4       1.0  0.4337695375832595  0.0022092548504702  0.36052513249441637  1.0000
  H   H1        1.0  0.1118669746617513  0.5663890215847616  0.2923848784813003  1.0000
  H   H2        1.0  0.6118670669061004  0.43361062590989974  0.2076158450316257  1.0000
  H   H3        1.0  0.8881342011687678  0.43361062590989974  0.7076150223181514  1.0000
  H   H4        1.0  0.3881351002662186  0.566390059280792  0.7923859932187582  1.0000
  H   H5        1.0  0.2080905756380318  0.6825497530156497  0.1601614191947504  1.0000
  H   H6        1.0  0.7080896765405811  0.3174498944790116  0.3398393043181756  1.0000
  H   H7        1.0  0.7919106001924803  0.3174488567829812  0.8398390122941991  1.0000
  H   H8        1.0  0.291911499289931  0.6825518284077106  0.660162825956185  1.0000
  H   H9        1.0  0.229911991453271  0.5592558990661446  0.9482019221242196  1.0000
  H   H10       1.0  0.7299120836976272  0.4407447861245402  0.55179909341269  1.0000
  H   H11       1.0  0.7700891843772482  0.44074374842850966  0.05179797867523208  1.0000
  H   H12       1.0  0.2700881007910851  0.559256936762175  0.4482030368616776  1.0000
  H   H13       1.0  0.16085313862204487  0.3136446631325214  0.85815569538358  1.0000
  H   H14       1.0  0.660853230866401  0.6863560220581633  0.6418436747263812  1.0000
  H   H15       1.0  0.8391460545248605  0.6863560220581633  0.1418436747263812  1.0000
  H   H16       1.0  0.3391469536223113  0.3136446631325214  0.3581565180970543  1.0000
  H   H17       1.0  0.6762814833801443  0.8363591341552592  0.8400483201925796  1.0000
  H   H18       1.0  0.1762803997939812  0.1636415510354325  0.6599535180578044  1.0000
  H   H19       1.0  0.3237177097667612  0.1636290986830531  0.1599533046239188  1.0000
  H   H20       1.0  0.8237168106693105  0.8363715865076315  0.34004442005909397  1.0000
  H   H21       1.0  0.6360597723192853  0.7250101992211385  0.9919600644391835  1.0000
  H   H22       1.0  0.1360606714167361  0.2749884105774854  0.5080395443362846  1.0000
  H   H23       1.0  0.3639364468021995  0.274985297489394  0.008044427258660385  1.0000
  H   H24       1.0  0.8639355477047488  0.7250153877012977  0.4919541201378266  1.0000
  H   H25       1.0  0.41679181782804875  0.7257438503152116  0.0780619256029453  1.0000
  H   H26       1.0  0.916790918730598  0.2742537217873817  0.4219382138620205  1.0000
  H   H27       1.0  0.5832053926352501  0.2742537217873817  0.9219415047159174  1.0000
  H   H28       1.0  0.083204309049087  0.7257459257072797  0.5780559279431188  1.0000
  H   H29       1.0  0.22022360799141438  0.8310575451317561  0.012343072976889786  1.0000
  H   H30       1.0  0.7202227088939637  0.1689410646668748  0.4876565357985855  1.0000
  H   H31       1.0  0.7797755851554911  0.1689400269708443  0.987657066488076  1.0000
  H   H32       1.0  0.279774501569328  0.831059620523817  0.5123420115979015  1.0000
  C   C1        1.0  0.0846249018558822  0.3716570597579221  0.1487871315656051  1.0000
  C   C2        1.0  0.5846259854420452  0.6283446631288001  0.35121253056833984  1.0000
  C   C3        1.0  0.915375282632823  0.6283436254327697  0.8512122385443561  1.0000
  C   C4        1.0  0.41537519038846676  0.3716570597579221  0.6487887769925536  1.0000
  C   C5        1.0  0.1235657993044725  0.5113288701681853  0.19921441613833926  1.0000
  C   C6        1.0  0.6235658915488216  0.48867077732647607  0.30078466194764525  1.0000
  C   C7        1.0  0.8764343851842398  0.48867077732647607  0.8007854846611124  1.0000
  C   C8        1.0  0.3764352842816905  0.5113309455602462  0.6992158228997739  1.0000
  C   C9        1.0  0.1758600708685947  0.5748389803669909  0.12461169729604646  1.0000
  C   C10       1.0  0.6758601631129508  0.4251617048237009  0.37538849552738895  1.0000
  C   C11       1.0  0.8241391222783108  0.4251617048237009  0.8753876728139146  1.0000
  C   C12       1.0  0.3241390300339546  0.5748389803669909  0.624613342722995  1.0000
  C   C13       1.0  0.1886682069912879  0.5038958534965445  0.0028199391647162984  1.0000
  C   C14       1.0  0.688669290577451  0.4961048316941401  0.49717943094524497  1.0000
  C   C15       1.0  0.8113329688392241  0.4961037939981097  0.9971799616347354  1.0000
  C   C16       1.0  0.3113318852530611  0.5038968911925821  0.5028218766156485  1.0000
  C   C17       1.0  0.150543183848356  0.36685356482939824  0.9516978310627096  1.0000
  C   C18       1.0  0.6505442674345119  0.6331481580573168  0.5483018310712282  1.0000
  C   C19       1.0  0.8494570006403563  0.6331471203612864  0.04830153904725171  1.0000
  C   C20       1.0  0.3494569083960002  0.36685356482939824  0.451699476489658  1.0000
  C   C21       1.0  0.0986285961956099  0.3007710061691995  0.026884736878315593  1.0000
  C   C22       1.0  0.598629679781773  0.6992307167175227  0.473114102542155  1.0000
  C   C23       1.0  0.9013705969512955  0.6992296790214922  0.9731146332316456  1.0000
  C   C24       1.0  0.4013705047069394  0.3007710061691995  0.5268863823052641  1.0000
  C   C25       1.0  0.4673443018404981  0.890701199918233  0.8382269463686498  1.0000
  C   C26       1.0  0.9673443940848543  0.10929844757642831  0.6617737771442762  1.0000
  C   C27       1.0  0.5326538999646004  0.10929118370420811  0.161775846543776  1.0000
  C   C28       1.0  0.0326547990620512  0.8907095014864838  0.33822434627965947  1.0000
  C   C29       1.0  0.5774566015071088  0.8320236401368177  0.8751066173295712  1.0000
  C   C30       1.0  0.0774555179209528  0.1679760073578365  0.6248916380429321  1.0000
  C   C31       1.0  0.42254358298159644  0.1679687434856234  0.1248904165885421  1.0000
  C   C32       1.0  0.9225436752259526  0.8320319417050683  0.3751064853810036  1.0000
  C   C33       1.0  0.5542929088876889  0.7720977320298489  0.9602186821962065  1.0000
  C   C34       1.0  0.054291825301525896  0.2278988023767141  0.5397803425313015  1.0000
  C   C35       1.0  0.44570727560102336  0.22789361389656193  0.0397838186922357  1.0000
  C   C36       1.0  0.9457063765035726  0.7721060335980994  0.46021608210721615  1.0000
  C   C37       1.0  0.4269481146219363  0.7716390703840474  0.00935698124824567  1.0000
  C   C38       1.0  0.9269472155244856  0.2283595394145763  0.49064180481375524  1.0000
  C   C39       1.0  0.5730510785249692  0.22835746402251542  0.9906453343331592  1.0000
  C   C40       1.0  0.073050986280613  0.7716432211681763  0.5093523903498537  1.0000
  C   C41       1.0  0.3177528061250996  0.8295196796134832  0.9735298871806677  1.0000
  C   C42       1.0  0.8177519070276489  0.1704768547930797  0.5264707829737887  1.0000
  C   C43       1.0  0.6822463870218058  0.170472704008958  0.026473728445232284  1.0000
  C   C44       1.0  0.1822472861192566  0.8295269434857034  0.4735261723542195  1.0000
  C   C45       1.0  0.3398220573916291  0.8888250454937818  0.8862152032608321  1.0000
  C   C46       1.0  0.8398221496359782  0.1111725266088115  0.6137849362041267  1.0000
  C   C47       1.0  0.6601771357552764  0.1111694135207202  0.1137840601321827  1.0000
  C   C48       1.0  0.1601770435109202  0.8888312716699717  0.3862144872643043  1.0000
  N   N1        1.0  0.0550888641128751  0.1685975872805372  0.006926551028811894  1.0000
  N   N2        1.0  0.5550899476990381  0.8314041356061779  0.49307393381860726  1.0000
  N   N3        1.0  0.9449103290340304  0.8314041356061779  0.993073111105133  1.0000
  N   N4        1.0  0.4449102367896742  0.1685965495845068  0.5069279044317767  1.0000
  N   N5        1.0  0.0167744946851514  0.16254470633042933  0.11185589116979601  1.0000
  N   N6        1.0  0.5167745869295075  0.837454941164232  0.38814318691618865  1.0000
  N   N7        1.0  0.9832266811453606  0.837454941164232  0.8881431869161888  1.0000
  N   N8        1.0  0.48322658890100467  0.1625457440264597  0.611857828620721  1.0000
  N   N9        1.0  0.0321948164644539  0.2808731847705417  0.19817268742338  1.0000
  N   N10       1.0  0.53219490870881  0.7191275004201501  0.30182668268658114  1.0000
  N   N11       1.0  0.9678053680242584  0.7191264627241196  0.8018263906626047  1.0000
  N   N12       1.0  0.467806267121702  0.2808731847705417  0.6981735101368542  1.0000
  N   N13       1.0  0.2569855361522571  0.9547488366612101  0.8316493575189128  1.0000
  N   N14       1.0  0.7569856283966061  0.0452497731374137  0.6683510739700367  1.0000
  N   N15       1.0  0.743016631020069  0.04524873544138331  0.1683516046595273  1.0000
  N   N16       1.0  0.2430175301175126  0.9547529874453389  0.33164805747441756  1.0000
  N   N17       1.0  0.3267264321454277  0.9949626709591115  0.7556515819158777  1.0000
  N   N18       1.0  0.8267265243897839  0.005035938839512301  0.7443488495730649  1.0000
  N   N19       1.0  0.6732777177104978  0.005034901143481801  0.2443510256895038  1.0000
  N   N20       1.0  0.1732776254661417  0.9949668217432405  0.255648636444434  1.0000
  N   N21       1.0  0.4532047936734713  0.9577602305438121  0.7580922499891898  1.0000
  N   N22       1.0  0.9532048859178203  0.0422394169508422  0.7419092962372175  1.0000
  N   N23       1.0  0.5467983648406545  0.0422363038627509  0.24191088830568927  1.0000
  N   N24       1.0  0.0467982725963054  0.9577664567200017  0.2580890658522321  1.0000
