data_image0
_chemical_formula_structural       Ag2H28C32N2O4F2
_chemical_formula_sum              "Ag2 H28 C32 N2 O4 F2"
_cell_length_a       5.4028515398517065
_cell_length_b       10.080284373190189
_cell_length_c       13.121040788346415
_cell_angle_alpha    87.77571345933
_cell_angle_beta     84.57031007574787
_cell_angle_gamma    78.46374577945443

_space_group_name_H-M_alt    "P 1"
_space_group_IT_number       1

loop_
  _space_group_symop_operation_xyz
  'x, y, z'

loop_
  _atom_site_type_symbol
  _atom_site_label
  _atom_site_symmetry_multiplicity
  _atom_site_fract_x
  _atom_site_fract_y
  _atom_site_fract_z
  _atom_site_occupancy
  Ag  Ag1       1.0  0.7383109290755029  0.9133620773234346  0.5122835672970325  1.0000
  Ag  Ag2       1.0  0.26170385368751437  0.08667115738041534  0.4877160170003307  1.0000
  H   H1        1.0  0.9943361305187821  0.6189938679908807  0.7521754534374097  1.0000
  H   H2        1.0  0.005675400878068566  0.38101277879520984  0.2478116266923536  1.0000
  H   H3        1.0  0.4167604486773086  0.8447490969722511  0.015673729000894802  1.0000
  H   H4        1.0  0.5832204970682966  0.15524007327782394  0.9843108768744671  1.0000
  H   H5        1.0  0.037661975988306964  0.9616985371903155  0.9264519377152425  1.0000
  H   H6        1.0  0.9623219609245908  0.03830688428869421  0.07353187853208  1.0000
  H   H7        1.0  0.04759676762442669  0.9524153491663299  0.7362549666642622  1.0000
  H   H8        1.0  0.9524131314623715  0.0475992704867281  0.2637219580515264  1.0000
  H   H9        1.0  0.43021911303497967  0.8313813312872044  0.6363257596501981  1.0000
  H   H10       1.0  0.5697935675948217  0.16862738243864334  0.36366347176601727  1.0000
  H   H11       1.0  0.25753870038104765  0.565933806591282  0.6197457523413447  1.0000
  H   H12       1.0  0.7424470704439725  0.434061383564874  0.3802315307236769  1.0000
  H   H13       1.0  0.27563708329016373  0.7004728499162669  0.5289519968770264  1.0000
  H   H14       1.0  0.7243761281266429  0.29952467356905293  0.4710353730883483  1.0000
  H   H15       1.0  0.9809101234144252  0.6204788293956583  0.4233431062015001  1.0000
  H   H16       1.0  0.019136112608222716  0.37951360923142385  0.5766292384468841  1.0000
  H   H17       1.0  0.2591366285303564  0.49735228201707593  0.4390226153040189  1.0000
  H   H18       1.0  0.7408915226659117  0.502649307086756  0.5609585728790734  1.0000
  H   H19       1.0  0.03907305842569997  0.1574356088382913  0.745393395414304  1.0000
  H   H20       1.0  0.9609165106836955  0.8425501346119975  0.2546336418367545  1.0000
  H   H21       1.0  0.07807120481088245  0.2922388780113679  0.8955754802186321  1.0000
  H   H22       1.0  0.9219129686074582  0.7077378402179236  0.1044620757802051  1.0000
  H   H23       1.0  0.7273837844058946  0.4796078089361728  0.9542921668681004  1.0000
  H   H24       1.0  0.2726046434802285  0.5203719238842766  0.0457412622578417  1.0000
  H   H25       1.0  0.33184161318769856  0.5298179470186142  0.8640316570190265  1.0000
  H   H26       1.0  0.6681529032027456  0.470165971369319  0.1360081863048137  1.0000
  H   H27       1.0  0.2847788006580174  0.3830858252518611  0.7206529728131699  1.0000
  H   H28       1.0  0.7152206071820401  0.6169183192005437  0.279378973853845  1.0000
  C   C1        1.0  0.8697581175432844  0.6967107600054236  0.7091784194759398  1.0000
  C   C2        1.0  0.13025216106676396  0.3032886620994333  0.2908006231096607  1.0000
  C   C3        1.0  0.6423568360522791  0.7708875296227691  0.766929140542743  1.0000
  C   C4        1.0  0.3576722334764709  0.22911208730434393  0.233055896327123  1.0000
  C   C5        1.0  0.6275128516204732  0.7764967905951253  0.8739598596733772  1.0000
  C   C6        1.0  0.3724683197687638  0.22350664943092363  0.1260287361961829  1.0000
  C   C7        1.0  0.4166916077337318  0.8446841900068449  0.9326619868549172  1.0000
  C   C8        1.0  0.5832871509976556  0.15531901741804435  0.0673107207199521  1.0000
  C   C9        1.0  0.20742491298545238  0.909105124741643  0.8823722545993674  1.0000
  C   C10       1.0  0.7925951060582294  0.09089730996434042  0.1176001237499662  1.0000
  C   C11       1.0  0.21170391778055372  0.9043112430299234  0.77589125517013  1.0000
  C   C12       1.0  0.7883012889546774  0.09569740973172002  0.22409679555656942  1.0000
  C   C13       1.0  0.427011759039473  0.836363353137003  0.719440521839914  1.0000
  C   C14       1.0  0.5730103700226863  0.16364825655771403  0.2805336782988022  1.0000
  C   C15       1.0  0.15143877512347345  0.633612489724513  0.5636381196274769  1.0000
  C   C16       1.0  0.8485520862366726  0.36638882636705017  0.43633944702833827  1.0000
  C   C17       1.0  0.08121506666041967  0.5506249105513064  0.4793405468230745  1.0000
  C   C18       1.0  0.9188056078884514  0.44937033061889065  0.5206252301146534  1.0000
  C   C19       1.0  0.6176091940303153  0.1703779751369652  0.6414090878673093  1.0000
  C   C20       1.0  0.3823739627836245  0.8296420454722552  0.3586031440054925  1.0000
  C   C21       1.0  0.6557981373869239  0.2594870928904882  0.725519207677401  1.0000
  C   C22       1.0  0.34418060842610015  0.7405077771772998  0.2745117686769873  1.0000
  C   C23       1.0  0.8814595594915956  0.23564025143635095  0.7738527705670251  1.0000
  C   C24       1.0  0.1185205451661061  0.7643504834252326  0.22617221163888251  1.0000
  C   C25       1.0  0.9046421655349589  0.31325975445437143  0.8568232272410157  1.0000
  C   C26       1.0  0.09535111397615029  0.6867260088750983  0.1432036397146987  1.0000
  C   C27       1.0  0.7072749193878279  0.41875379961585696  0.889908403922476  1.0000
  C   C28       1.0  0.2927254226796379  0.5812290829804923  0.1101274035008757  1.0000
  C   C29       1.0  0.48542124198128533  0.44638425125795334  0.839525356907373  1.0000
  C   C30       1.0  0.5145547171437527  0.553609798393623  0.16052102528773557  1.0000
  C   C31       1.0  0.4591874145582863  0.36614235745138063  0.7586268364728354  1.0000
  C   C32       1.0  0.540786418528938  0.6338504045916126  0.2414006376102336  1.0000
  N   N1        1.0  0.9263245991885469  0.718660585546374  0.6136664925831995  1.0000
  N   N2        1.0  0.07369485187191316  0.2813337285149303  0.3863062380063198  1.0000
  O   O1        1.0  0.8063956503865981  0.07948915013991353  0.6084941765740695  1.0000
  O   O2        1.0  0.1935883849477448  0.9205430620392507  0.3915182875785703  1.0000
  O   O3        1.0  0.39666108141148015  0.19156606922553718  0.61055662766654  1.0000
  O   O4        1.0  0.6033360968494463  0.8084599891789069  0.3894455737372056  1.0000
  F   F1        1.0  0.8317754988950056  0.7122202896099098  0.9235675557717186  1.0000
  F   F2        1.0  0.1682033554924445  0.28777506224361105  0.0764245200461531  1.0000
