data_image0
_chemical_formula_structural       CdH34C32N4O8
_chemical_formula_sum              "Cd1 H34 C32 N4 O8"
_cell_length_a       4.8103489397961825
_cell_length_b       13.301512529532362
_cell_length_c       14.832285122342858
_cell_angle_alpha    111.13147397222761
_cell_angle_beta     96.85291418156744
_cell_angle_gamma    92.18368099713042

_space_group_name_H-M_alt    "P 1"
_space_group_IT_number       1

loop_
  _space_group_symop_operation_xyz
  'x, y, z'

loop_
  _atom_site_type_symbol
  _atom_site_label
  _atom_site_symmetry_multiplicity
  _atom_site_fract_x
  _atom_site_fract_y
  _atom_site_fract_z
  _atom_site_occupancy
  Cd  Cd1       1.0  0.4999862597515518  8.429754671997972e-07  6.079926748979613e-07  1.0000
  H   H1        1.0  0.1468847212857938  0.13876789136574524  0.08272358471015909  1.0000
  H   H2        1.0  0.8530778569653209  0.8612305818394359  0.917266321119193  1.0000
  H   H3        1.0  0.41345537431311646  0.22548265425425731  0.10888466890256147  1.0000
  H   H4        1.0  0.5865208155336178  0.7745109908281832  0.8911075759699543  1.0000
  H   H5        1.0  0.6823256184813716  0.2893450550466027  0.7647037113964358  1.0000
  H   H6        1.0  0.31768059479023947  0.7106599547398457  0.23529859158141142  1.0000
  H   H7        1.0  0.7242808696263127  0.1390268565314656  0.7869677673504825  1.0000
  H   H8        1.0  0.27571133962489813  0.8609724530373909  0.21302818868717566  1.0000
  H   H9        1.0  0.24106607387943066  0.30042087530357253  0.625482858724915  1.0000
  H   H10       1.0  0.7589608673102931  0.6995825693707401  0.37452576533075893  1.0000
  H   H11       1.0  0.3259042562988412  0.4499829734895753  0.5681588894273233  1.0000
  H   H12       1.0  0.6741098191100932  0.5500196253042019  0.4318449591980951  1.0000
  H   H13       1.0  0.08391122960799179  0.6193305583967968  0.6313731315570549  1.0000
  H   H14       1.0  0.9161005044973367  0.38067120845598607  0.36862834768724173  1.0000
  H   H15       1.0  0.6814799265492155  0.4874102484252346  0.8144307086905371  1.0000
  H   H16       1.0  0.318522251070938  0.5125955581426068  0.18557035170165645  1.0000
  H   H17       1.0  0.29458042185245153  0.1040522097926484  0.8485230679071522  1.0000
  H   H18       1.0  0.7054026492447677  0.895952774351059  0.15147434832585557  1.0000
  H   H19       1.0  0.29301508224689604  0.011991126517322894  0.6739793999866565  1.0000
  H   H20       1.0  0.7069914585083694  0.9880065744060712  0.32601858755663915  1.0000
  H   H21       1.0  0.3230193193521274  0.9224649490889616  0.7376622385565809  1.0000
  H   H22       1.0  0.6769733714905403  0.07753529514177869  0.2623441434805045  1.0000
  H   H23       1.0  0.8733461148762347  0.9983476968781132  0.5572556803001589  1.0000
  H   H24       1.0  0.12665729171433074  0.001645193813111198  0.4427440491136565  1.0000
  H   H25       1.0  0.45654222349243406  0.8837052099586271  0.44807171241748006  1.0000
  H   H26       1.0  0.5434785044256786  0.11628118815628596  0.551926593468977  1.0000
  H   H27       1.0  0.2699271666961424  0.7215050420669443  0.47582823459388385  1.0000
  H   H28       1.0  0.7300826378725987  0.27847971562236745  0.524166463801393  1.0000
  H   H29       1.0  0.5123966095283379  0.6721688068604691  0.6102746022661378  1.0000
  H   H30       1.0  0.487607424559002  0.32782653612042617  0.3897279457188674  1.0000
  H   H31       1.0  0.931372527198896  0.7869127270074117  0.7179572470532989  1.0000
  H   H32       1.0  0.06862860947659749  0.2130882670919405  0.282045629855986  1.0000
  H   H33       1.0  0.7645100488397462  0.63734767795637  0.755821576481253  1.0000
  H   H34       1.0  0.2355089912946725  0.3626581609631856  0.24418414671603017  1.0000
  C   C1        1.0  0.14094865023138684  0.37496755364796286  0.6553963420951661  1.0000
  C   C2        1.0  0.8590695386649687  0.6250342818592782  0.344611459537539  1.0000
  C   C3        1.0  0.186676339601668  0.4595339273958388  0.6229887148836539  1.0000
  C   C4        1.0  0.813338115220475  0.5404702895102957  0.37701565757841843  1.0000
  C   C5        1.0  0.052655179660121086  0.5544408913637823  0.6585832752841014  1.0000
  C   C6        1.0  0.9473589930437644  0.4455617492985694  0.3414239613683491  1.0000
  C   C7        1.0  0.8249247487867708  0.48025186413025966  0.7611610791261896  1.0000
  C   C8        1.0  0.1750660142001692  0.5197499083383048  0.23883829844148605  1.0000
  C   C9        1.0  0.9576573704432508  0.3845002423782446  0.7243799726526703  1.0000
  C   C10       1.0  0.04235055663519918  0.6155031470595347  0.27562188113510894  1.0000
  C   C11       1.0  0.06313478574288209  0.22309285326438297  0.7639587848133476  1.0000
  C   C12       1.0  0.9368645009128402  0.776909702567643  0.23603979804815362  1.0000
  C   C13       1.0  0.0963156261894511  0.06126046902996048  0.803555091561087  1.0000
  C   C14       1.0  0.9036731165301081  0.9387420644888207  0.19644040764588763  1.0000
  C   C15       1.0  0.17723028207573316  0.9712973265546194  0.7124258667130832  1.0000
  C   C16       1.0  0.8227715031196398  0.02869795167288199  0.2875711857820846  1.0000
  C   C17       1.0  0.928278812819187  0.9010807516151542  0.6456914728846641  1.0000
  C   C18       1.0  0.07173185599918952  0.0989169197144619  0.35430463113557653  1.0000
  C   C19       1.0  0.7918750828995872  0.9271995880052157  0.5691900817884131  1.0000
  C   C20       1.0  0.20813871195521474  0.0727932580095469  0.4308073104366841  1.0000
  C   C21       1.0  0.5570634844362772  0.8630254683530364  0.5082071203104661  1.0000
  C   C22       1.0  0.44293920224585304  0.13696420286090927  0.4917929166408754  1.0000
  C   C23       1.0  0.4534342741185285  0.7716322702670196  0.5232257560188458  1.0000
  C   C24       1.0  0.5465690011423945  0.22835983648916164  0.47677574429286546  1.0000
  C   C25       1.0  0.5886197059892665  0.7443271651009266  0.5988231244297494  1.0000
  C   C26       1.0  0.4113870488148806  0.2556706279333198  0.4011823167730313  1.0000
  C   C27       1.0  0.8236731278175569  0.8085813178311553  0.6593990557308445  1.0000
  C   C28       1.0  0.17633029178457352  0.19142048308805223  0.3406041577433498  1.0000
  C   C29       1.0  0.9499382498944869  0.012997732377641595  0.8659808933765731  1.0000
  C   C30       1.0  0.05004044505605508  0.9870064471825297  0.13401611164495356  1.0000
  C   C31       1.0  0.8725786282926152  0.5640840528666258  0.7279615446123273  1.0000
  C   C32       1.0  0.1274293182448218  0.43591934494486395  0.27204098678085836  1.0000
  N   N1        1.0  0.8872725079478273  0.2985162191405166  0.753610926210321  1.0000
  N   N2        1.0  0.11273663520619691  0.7014920581291761  0.2463952095090249  1.0000
  N   N3        1.0  0.9321432798999042  0.13926053407421074  0.7796497888142895  1.0000
  N   N4        1.0  0.0678417546518516  0.8607354873629017  0.22034015237248633  1.0000
  O   O1        1.0  0.32198121519184053  0.22872384350952044  0.7600322180936984  1.0000
  O   O2        1.0  0.6780121517579758  0.7712803287701104  0.2399659870592997  1.0000
  O   O3        1.0  0.7142613933202925  0.0441666214690102  0.8887888628092073  1.0000
  O   O4        1.0  0.2857253275677677  0.9558448496352195  0.11121207862778687  1.0000
  O   O5        1.0  0.07574726428392604  0.9416042652107562  0.8915127612237581  1.0000
  O   O6        1.0  0.9242225275846324  0.05839751287359719  0.108484514667289  1.0000
  O   O7        1.0  0.300981261338194  0.1672741916185103  0.05530851169775271  1.0000
  O   O8        1.0  0.6989836192985522  0.832725096780237  0.944682408301908  1.0000
