data_image0
_chemical_formula_structural       U2H16C28I4O12
_chemical_formula_sum              "U2 H16 C28 I4 O12"
_cell_length_a       5.126230471621
_cell_length_b       9.06539944345339
_cell_length_c       17.961870659065585
_cell_angle_alpha    90.00014798606561
_cell_angle_beta     89.99971984226701
_cell_angle_gamma    94.03515176347729

_space_group_name_H-M_alt    "P 1"
_space_group_IT_number       1

loop_
  _space_group_symop_operation_xyz
  'x, y, z'

loop_
  _atom_site_type_symbol
  _atom_site_label
  _atom_site_symmetry_multiplicity
  _atom_site_fract_x
  _atom_site_fract_y
  _atom_site_fract_z
  _atom_site_occupancy
  U   U1        1.0  0.999998242626461  0.500017375303898  0.5000032382332902  1.0000
  U   U2        1.0  3.444228134704443e-06  0.9999807681886567  2.3293637027999992e-06  1.0000
  H   H1        1.0  0.8343249955205535  0.2631467666766057  0.6825944235486358  1.0000
  H   H2        1.0  0.16567392659411687  0.23685372640467514  0.1825946087659033  1.0000
  H   H3        1.0  0.16568245770053383  0.7368455242812928  0.317409404271828  1.0000
  H   H4        1.0  0.8343213254558749  0.7631507080874016  0.8174058786616951  1.0000
  H   H5        1.0  0.2269609036131115  0.550954934702304  0.7369240072140213  1.0000
  H   H6        1.0  0.7730368190319724  0.9490442497556802  0.23692251835674222  1.0000
  H   H7        1.0  0.7730448633898206  0.4490395649596479  0.2630725830555604  1.0000
  H   H8        1.0  0.22695413359493702  0.05095686133499561  0.7630724017227875  1.0000
  H   H9        1.0  0.6290138456793741  0.33077404010284533  0.912090751083866  1.0000
  H   H10       1.0  0.3709911244121571  0.1692285818859602  0.4120916765438308  1.0000
  H   H11       1.0  0.3709836222948297  0.6692326090050714  0.08791196328319727  1.0000
  H   H12       1.0  0.6290188096257693  0.8307681353373296  0.5879071406638728  1.0000
  H   H13       1.0  0.8954340021771827  0.21235699137044153  0.818207171549808  1.0000
  H   H14       1.0  0.10456278324300429  0.28764520339138505  0.3182080650134365  1.0000
  H   H15       1.0  0.1045644899722618  0.7876419198600005  0.18179832648587535  1.0000
  H   H16       1.0  0.8954379248772356  0.7123559224426684  0.6817940926128612  1.0000
  C   C1        1.0  0.7159955789532049  0.31446417727582343  0.7243624605311109  1.0000
  C   C2        1.0  0.283998477223129  0.1855342817697974  0.22436408458055002  1.0000
  C   C3        1.0  0.28401018800315114  0.6855303223983642  0.27563969708732117  1.0000
  C   C4        1.0  0.7159965100041034  0.8144679410543818  0.775635289376005  1.0000
  C   C5        1.0  0.48816011634777107  0.4412135981059536  0.6221016379768043  1.0000
  C   C6        1.0  0.5118317486819564  0.058784405735927685  0.12210055275546236  1.0000
  C   C7        1.0  0.5118478665560885  0.5587831161779634  0.3778999629066674  1.0000
  C   C8        1.0  0.48815516928873853  0.9412155936359177  0.8778965942656636  1.0000
  C   C9        1.0  0.37076708618356946  0.47593707539009245  0.7551858759848283  1.0000
  C   C10       1.0  0.6292263218704264  0.024060413242587203  0.25518291235508866  1.0000
  C   C11       1.0  0.6292326950430577  0.5240563096099818  0.2448140546974641  1.0000
  C   C12       1.0  0.3707667142786378  0.9759418066275317  0.7448125644586197  1.0000
  C   C13       1.0  0.5246301234515586  0.4086581914384197  0.7019874799700287  1.0000
  C   C14       1.0  0.4753604049132321  0.09134016339953631  0.20198593139413384  1.0000
  C   C15       1.0  0.475371344035139  0.5913329848465949  0.2980146776491849  1.0000
  C   C16       1.0  0.5246330284699637  0.9086653739724329  0.7980112156261325  1.0000
  C   C17       1.0  0.5981605352009041  0.3525989609724078  0.853283994356644  1.0000
  C   C18       1.0  0.40184280567816444  0.14739787052344872  0.3532837348827299  1.0000
  C   C19       1.0  0.4018399080965834  0.6473999531937481  0.14671704979861028  1.0000
  C   C20       1.0  0.5981594563420103  0.852599940748135  0.6467139688612275  1.0000
  C   C21       1.0  0.7486805411516856  0.2856832052937932  0.7997927583442742  1.0000
  C   C22       1.0  0.25131575787980864  0.21431227356544016  0.29979446555638123  1.0000
  C   C23       1.0  0.2513215884105334  0.7143135001560736  0.2002099560130118  1.0000
  C   C24       1.0  0.7486806507894103  0.7856855288745523  0.7002054651311622  1.0000
  C   C25       1.0  0.41233571610614916  0.4492569491363767  0.8304886767483947  1.0000
  C   C26       1.0  0.5876702221449435  0.050741996810586415  0.330486919268658  1.0000
  C   C27       1.0  0.5876629084872816  0.5507430679194556  0.16951348087862061  1.0000
  C   C28       1.0  0.41232631895893224  0.9492569114572335  0.6695107844799748  1.0000
  I   I1        1.0  0.21130731489625282  0.5643529659654191  0.9115622958809336  1.0000
  I   I2        1.0  0.7887118259061978  0.9356547619803807  0.41156021095805057  1.0000
  I   I3        1.0  0.7887085075990895  0.4356603446409864  0.08843707806851597  1.0000
  I   I4        1.0  0.21128560698483065  0.06433530256990141  0.5884369360492554  1.0000
  O   O1        1.0  0.279740139883387  0.4987931621696333  0.6012353966177171  1.0000
  O   O2        1.0  0.7202548199092361  0.0012113879289258997  0.10123227691461516  1.0000
  O   O3        1.0  0.720276574357193  0.5012113047302409  0.39876843120436667  1.0000
  O   O4        1.0  0.2797319656267874  0.9987875056150841  0.8987670970454144  1.0000
  O   O5        1.0  0.9305962016343018  0.6870587016400763  0.5242330684787857  1.0000
  O   O6        1.0  0.06939416764011955  0.8129461656332994  0.02423126027647979  1.0000
  O   O7        1.0  0.0694287143114565  0.3129490945362932  0.47576908913516275  1.0000
  O   O8        1.0  0.9305817057460929  0.18705934522920134  0.9757658867559227  1.0000
  O   O9        1.0  0.6685307930297952  0.412372269635668  0.5760717673434212  1.0000
  O   O10       1.0  0.33145873445487684  0.0876321610692301  0.07607096971126737  1.0000
  O   O11       1.0  0.3314787788664901  0.5876377146409625  0.4239298335477029  1.0000
  O   O12       1.0  0.6685298698038409  0.9123656295802149  0.9239250638374653  1.0000
