data_image0
_chemical_formula_structural       Ag4H10C20N6O8
_chemical_formula_sum              "Ag4 H10 C20 N6 O8"
_cell_length_a       5.149679413499722
_cell_length_b       10.313889365807865
_cell_length_c       10.619446945331102
_cell_angle_alpha    87.4171471386572
_cell_angle_beta     79.58222868729005
_cell_angle_gamma    75.58455673532168

_space_group_name_H-M_alt    "P 1"
_space_group_IT_number       1

loop_
  _space_group_symop_operation_xyz
  'x, y, z'

loop_
  _atom_site_type_symbol
  _atom_site_label
  _atom_site_symmetry_multiplicity
  _atom_site_fract_x
  _atom_site_fract_y
  _atom_site_fract_z
  _atom_site_occupancy
  Ag  Ag1       1.0  0.8406439602143934  0.17746454025805034  0.937985681385662  1.0000
  Ag  Ag2       1.0  0.01868656332360541  0.8225626280291889  0.43851600204547475  1.0000
  Ag  Ag3       1.0  0.08155911383009613  0.45896127113942237  0.09860017190907659  1.0000
  Ag  Ag4       1.0  0.5400317402101038  0.5408905679796021  0.5979235169407956  1.0000
  H   H1        1.0  0.1510176930068852  0.0710367287145672  0.7437107790132487  1.0000
  H   H2        1.0  0.22272948028648185  0.9287375071032858  0.2433360580348065  1.0000
  H   H3        1.0  0.4655019894306563  0.8807734738438668  0.6225173391917096  1.0000
  H   H4        1.0  0.34735995388106033  0.11910103392077079  0.12214751820196308  1.0000
  H   H5        1.0  0.007602714690143824  0.11264806366985877  0.4756872968597463  1.0000
  H   H6        1.0  0.12058234212961619  0.8874589509292362  0.9752102642400972  1.0000
  H   H7        1.0  0.7266237372966131  0.308695032563989  0.5965358707361261  1.0000
  H   H8        1.0  0.03513402918886055  0.6912115206739811  0.09571214439246489  1.0000
  H   H9        1.0  0.6069397882152715  0.7052914908171175  0.8711248269747002  1.0000
  H   H10       1.0  0.3123014509084073  0.29462808081484576  0.37203257585823474  1.0000
  C   C1        1.0  0.5752318332427038  0.49844244044105324  0.9304447920024401  1.0000
  C   C2        1.0  0.07338489045685044  0.5017022328616321  0.43053855936823743  1.0000
  C   C3        1.0  0.8471613208128019  0.4605100069061263  0.8482600543414661  1.0000
  C   C4        1.0  0.3075248547145011  0.5396610233599546  0.3484232121039739  1.0000
  C   C5        1.0  0.007945821823121146  0.5404516652972615  0.7773270410111053  1.0000
  C   C6        1.0  0.548259713853021  0.4596249126477686  0.2777027940102315  1.0000
  C   C7        1.0  0.9664068081137176  0.6876066899787291  0.7620956639765382  1.0000
  C   C8        1.0  0.6541262589283576  0.3124297386120105  0.26315457153647515  1.0000
  C   C9        1.0  0.21508283249287533  0.3297835529977604  0.7418497012722439  1.0000
  C   C10       1.0  0.5449962693781175  0.6702350692206167  0.2416394175660486  1.0000
  C   C11       1.0  0.40583292130841636  0.21024929591411018  0.6812679794045379  1.0000
  C   C12       1.0  0.6165265958831869  0.7896916857715794  0.18086296212833017  1.0000
  C   C13       1.0  0.34124980961056656  0.08515766117914582  0.6873159387728407  1.0000
  C   C14       1.0  0.4270455220340569  0.9147119613744433  0.18700421709670675  1.0000
  C   C15       1.0  0.5165527941695842  0.9774032367096697  0.6180007780458965  1.0000
  C   C16       1.0  0.4946505458144515  0.022461408488062797  0.11762069829348577  1.0000
  C   C17       1.0  0.8184041115240603  0.1060519267393474  0.537688118200208  1.0000
  C   C18       1.0  0.924857188771803  0.8939530755543572  0.037194536124211176  1.0000
  C   C19       1.0  0.6562476106949761  0.216882623877936  0.6063220904107425  1.0000
  C   C20       1.0  0.8733790861055016  0.7830976490666188  0.10578015117017257  1.0000
  N   N1        1.0  0.9820185842338774  0.3289971891652428  0.8250638387820075  1.0000
  N   N2        1.0  0.311086516050537  0.6711600785129546  0.3249515203182796  1.0000
  N   N3        1.0  0.23667423041531083  0.4566351903824354  0.7126118008452025  1.0000
  N   N4        1.0  0.6932148114488258  0.54336188745868  0.21268243088994856  1.0000
  N   N5        1.0  0.7516038348168125  0.9872134107293746  0.5419676172788783  1.0000
  N   N6        1.0  0.7393327075686217  0.012729387819085504  0.04150078080869687  1.0000
  O   O1        1.0  0.47684118581283746  0.40261324136609733  0.9831337401567524  1.0000
  O   O2        1.0  0.8787441154029381  0.5975800424033579  0.4826538578763079  1.0000
  O   O3        1.0  0.45224604333235174  0.6213798888822167  0.9438062197704723  1.0000
  O   O4        1.0  0.07342518740772878  0.37875542167773085  0.4443676015923756  1.0000
  O   O5        1.0  0.7318140145753779  0.7637796763990676  0.8181542787823161  1.0000
  O   O6        1.0  0.4956429524849568  0.23617262342139606  0.3192739399913265  1.0000
  O   O7        1.0  0.14432779299032475  0.7370770115009009  0.6975728415522227  1.0000
  O   O8        1.0  0.8819243024291054  0.26297550939183617  0.19910541122886366  1.0000
