data_image0
_chemical_formula_structural       Na2Cu2H38C22N2O18
_chemical_formula_sum              "Na2 Cu2 H38 C22 N2 O18"
_cell_length_a       9.161489697137991
_cell_length_b       10.256798982067272
_cell_length_c       10.83317179936753
_cell_angle_alpha    65.06294084931149
_cell_angle_beta     74.56181971892404
_cell_angle_gamma    86.14708346106198

_space_group_name_H-M_alt    "P 1"
_space_group_IT_number       1

loop_
  _space_group_symop_operation_xyz
  'x, y, z'

loop_
  _atom_site_type_symbol
  _atom_site_label
  _atom_site_symmetry_multiplicity
  _atom_site_fract_x
  _atom_site_fract_y
  _atom_site_fract_z
  _atom_site_occupancy
  Na  Na1       1.0  0.06245986029495042  0.1835329648967843  0.4014360130500593  1.0000
  Na  Na2       1.0  0.9375371247150568  0.8164513353224905  0.5985609819790768  1.0000
  Cu  Cu1       1.0  0.4584982202369118  0.14481140621720098  0.40422515094495287  1.0000
  Cu  Cu2       1.0  0.5415102809307444  0.85518096383867  0.5957807159939534  1.0000
  H   H1        1.0  0.5551772493749497  0.35823139421621863  0.43503609469153304  1.0000
  H   H2        1.0  0.44482248018219656  0.6417725741078472  0.5649669703774833  1.0000
  H   H3        1.0  0.6693651886143002  0.4358049421085538  0.04686913542793291  1.0000
  H   H4        1.0  0.3306345139482474  0.5641979501002011  0.9531343780867945  1.0000
  H   H5        1.0  0.5072464441559463  0.4481931670860817  0.17659561079388916  1.0000
  H   H6        1.0  0.4927487246619153  0.5518095907301087  0.8234080510610087  1.0000
  H   H7        1.0  0.8168118430374207  0.3321376363953235  0.22454139682885463  1.0000
  H   H8        1.0  0.18319023464125916  0.6678696200247387  0.7754597901447798  1.0000
  H   H9        1.0  0.74145656838337  0.495989864731733  0.21970536742725963  1.0000
  H   H10       1.0  0.2585399234963647  0.504020440874221  0.7802939717522152  1.0000
  H   H11       1.0  0.47897619638067834  0.3120877594836813  0.00036497882481961453  1.0000
  H   H12       1.0  0.5210339216043921  0.6879240849850559  0.9996371355936731  1.0000
  H   H13       1.0  0.3446308457025538  0.33798373798772735  0.14035737703274984  1.0000
  H   H14       1.0  0.6553722845612243  0.6620203199614283  0.859644888898913  1.0000
  H   H15       1.0  0.23580355574971892  0.957107265675546  0.33292055105737034  1.0000
  H   H16       1.0  0.7642040632937251  0.04289452126397459  0.6670668714282686  1.0000
  H   H17       1.0  0.2499567423542501  0.16056661607527895  0.0866586484359004  1.0000
  H   H18       1.0  0.7500477411509934  0.8394459764242796  0.9133333433167652  1.0000
  H   H19       1.0  0.4050946283505823  0.048764414667338885  0.11956162876634836  1.0000
  H   H20       1.0  0.5949165771766688  0.9512450840591244  0.8804273585198035  1.0000
  H   H21       1.0  0.6664604775697712  0.15370417260102442  0.047034647812949935  1.0000
  H   H22       1.0  0.33354149319220744  0.8462987495728952  0.9529664985909251  1.0000
  H   H23       1.0  0.7719669169855764  0.1872237570508375  0.1461816702569507  1.0000
  H   H24       1.0  0.22803270406235754  0.8127759217044286  0.8538241057712243  1.0000
  H   H25       1.0  0.5300361118523967  0.9386816061381821  0.2690500447817357  1.0000
  H   H26       1.0  0.4699568194764511  0.06132209358103319  0.7309491155041388  1.0000
  H   H27       1.0  0.7282801468727982  0.9255324155422926  0.24882864368576932  1.0000
  H   H28       1.0  0.27171839565710343  0.07446935578366978  0.7511746674774855  1.0000
  H   H29       1.0  0.7550149710030923  0.25716444327743193  0.5029958110107913  1.0000
  H   H30       1.0  0.24498589583875946  0.7428394506745447  0.4970005674449284  1.0000
  H   H31       1.0  0.824768640917938  0.2824476671400901  0.6106350468990628  1.0000
  H   H32       1.0  0.17524672202218033  0.7175468556872389  0.38935731875797325  1.0000
  H   H33       1.0  0.11969791687097603  0.3920680398552179  0.6991907834821379  1.0000
  H   H34       1.0  0.8802945317401766  0.6079162004337205  0.30081094576871686  1.0000
  H   H35       1.0  0.20683441859021207  0.9762548561015839  0.6086026081799715  1.0000
  H   H36       1.0  0.793162585982728  0.023730728727237204  0.3914067788717901  1.0000
  H   H37       1.0  0.044831314597026106  0.991269458242314  0.6991533666514016  1.0000
  H   H38       1.0  0.9551659932864499  0.008727785145587998  0.30084008138179286  1.0000
  C   C1        1.0  0.6061180183367015  0.38501138794438106  0.15924690059410568  1.0000
  C   C2        1.0  0.3938827622130391  0.6149894265861207  0.8407599949618572  1.0000
  C   C3        1.0  0.7102373802719129  0.3832129086489005  0.24820328478612202  1.0000
  C   C4        1.0  0.2897635617145582  0.6167943774659079  0.7518018372718772  1.0000
  C   C5        1.0  0.4237258546065093  0.26236643709706436  0.11457693036150836  1.0000
  C   C6        1.0  0.5762728784780508  0.737642822358751  0.885420490152825  1.0000
  C   C7        1.0  0.33341898650414253  0.1266840540596448  0.15026377281522943  1.0000
  C   C8        1.0  0.6665853334410415  0.8733221264253853  0.8497336611406399  1.0000
  C   C9        1.0  0.6616602382733421  0.1457145614906281  0.15257847128087573  1.0000
  C   C10       1.0  0.3383395193400602  0.8542904531638553  0.8474223109898064  1.0000
  C   C11       1.0  0.6317721758983623  0.9918574101592059  0.266812853303307  1.0000
  C   C12       1.0  0.36822294105363806  0.008143135856578  0.7331880367377722  1.0000
  C   C13       1.0  0.06589805322313681  0.4389528808143552  0.6124467228905388  1.0000
  C   C14       1.0  0.9340898886379209  0.5610323011973292  0.38755470625476823  1.0000
  C   C15       1.0  0.1405274678201991  0.4385414191432205  0.4820286544736734  1.0000
  C   C16       1.0  0.859461741521045  0.5614492031049422  0.5179721004165642  1.0000
  C   C17       1.0  0.28788869140898754  0.3661086366126582  0.4688904088510811  1.0000
  C   C18       1.0  0.7121050490227817  0.6338821944902904  0.5311147835805413  1.0000
  C   C19       1.0  0.9251367366571089  0.4994313548662036  0.6326548266396657  1.0000
  C   C20       1.0  0.07486051458301551  0.500563810753306  0.36734410416649876  1.0000
  C   C21       1.0  0.8462669148250798  0.49871053531443016  0.7750805368696876  1.0000
  C   C22       1.0  0.1537337900492091  0.5012869019456829  0.22491853226031824  1.0000
  N   N1        1.0  0.5433355827635895  0.24032185746759893  0.19045982554251137  1.0000
  N   N2        1.0  0.45666870806367416  0.7596833064718994  0.8095417255643087  1.0000
  O   O1        1.0  0.644748617779861  0.30842312669839334  0.3980049992106274  1.0000
  O   O2        1.0  0.3552522426920035  0.6915809459629257  0.6020023853608195  1.0000
  O   O3        1.0  0.25867338417739216  0.0628380704083256  0.2974623428576281  1.0000
  O   O4        1.0  0.741331940202862  0.9371625955582702  0.7025269780082724  1.0000
  O   O5        1.0  0.0946002817985132  0.973569146734981  0.6170234092088763  1.0000
  O   O6        1.0  0.9054023932730005  0.0264165130067582  0.38298006006573365  1.0000
  O   O7        1.0  0.6139625168000864  0.0017575587885260964  0.39766173230876933  1.0000
  O   O8        1.0  0.3860327864599071  0.9982505944966673  0.6023406044938755  1.0000
  O   O9        1.0  0.8225912263539499  0.21464713005195787  0.5693164083115365  1.0000
  O   O10       1.0  0.17742092643418056  0.7853547912801276  0.430670865833939  1.0000
  O   O11       1.0  0.2924447006359969  0.2730792000858101  0.4160576917395461  1.0000
  O   O12       1.0  0.7075615937530771  0.7269150837412826  0.5839368049504472  1.0000
  O   O13       1.0  0.39151764886297263  0.39546189128272147  0.5101505491245534  1.0000
  O   O14       1.0  0.6084639732408307  0.6045426006939606  0.4898517436831186  1.0000
  O   O15       1.0  0.7365344368824226  0.4073435816851898  0.8493346063546741  1.0000
  O   O16       1.0  0.2634730747134739  0.5926538859006385  0.1506536927375138  1.0000
  O   O17       1.0  0.8977843663508482  0.5916064788742049  0.8038554365688313  1.0000
  O   O18       1.0  0.10220076443797414  0.4084024071888095  0.19614426331862234  1.0000
