data_image0
_chemical_formula_structural       Cd2H22C28N4O10
_chemical_formula_sum              "Cd2 H22 C28 N4 O10"
_cell_length_a       6.872545767813994
_cell_length_b       9.71123304493953
_cell_length_c       11.339248482916275
_cell_angle_alpha    91.61101036327497
_cell_angle_beta     91.39950436627693
_cell_angle_gamma    72.33941202604788

_space_group_name_H-M_alt    "P 1"
_space_group_IT_number       1

loop_
  _space_group_symop_operation_xyz
  'x, y, z'

loop_
  _atom_site_type_symbol
  _atom_site_label
  _atom_site_symmetry_multiplicity
  _atom_site_fract_x
  _atom_site_fract_y
  _atom_site_fract_z
  _atom_site_occupancy
  Cd  Cd1       1.0  0.4899776347630007  0.8090459092679939  0.9510861320689514  1.0000
  Cd  Cd2       1.0  0.5100358015939153  0.19094960583335308  0.04892280580614279  1.0000
  H   H1        1.0  0.2551863106406315  0.5998561321601201  0.9501812429482327  1.0000
  H   H2        1.0  0.7448075569906932  0.4001512610021081  0.0498116902586148  1.0000
  H   H3        1.0  0.13139826707583074  0.7142329844074811  0.8568092045231168  1.0000
  H   H4        1.0  0.8686097689295167  0.2857786739093201  0.1431833121159372  1.0000
  H   H5        1.0  0.5573573246636059  0.5654567405835352  0.1721144535976862  1.0000
  H   H6        1.0  0.44264622562934625  0.4345453572555444  0.8278802674325192  1.0000
  H   H7        1.0  0.20722007390775593  0.005264478788362199  0.1799811157749289  1.0000
  H   H8        1.0  0.7927791027509911  0.9947360981722042  0.8200225879587606  1.0000
  H   H9        1.0  0.1989039887364399  0.8921873386354874  0.4015074599997561  1.0000
  H   H10       1.0  0.8010822796141497  0.1078039760319029  0.5984870905746718  1.0000
  H   H11       1.0  0.9341819827062848  0.5825828796353962  0.6539444275981552  1.0000
  H   H12       1.0  0.06585332024445727  0.4174251869995588  0.346059223659516  1.0000
  H   H13       1.0  0.013252243960771196  0.2925359539310577  0.9428448698661143  1.0000
  H   H14       1.0  0.9867436461686764  0.7074562834223672  0.0571477013922177  1.0000
  H   H15       1.0  0.3807170701427084  0.7632651049116248  0.5483967334308701  1.0000
  H   H16       1.0  0.6192792800775777  0.23672605330197885  0.45159586926651935  1.0000
  H   H17       1.0  0.5220153708777744  0.40842124942481933  0.2925673344781643  1.0000
  H   H18       1.0  0.47799022422623244  0.5915688634808943  0.7074260224413748  1.0000
  H   H19       1.0  0.14176588080587743  0.3787227212284918  0.5265660524336866  1.0000
  H   H20       1.0  0.8582431601357356  0.6212695359373868  0.4734271622954864  1.0000
  H   H21       1.0  0.28391852856402977  0.1320475661252871  0.6106359881279033  1.0000
  H   H22       1.0  0.7160522134529613  0.8679458916824316  0.3893578825349806  1.0000
  C   C1        1.0  0.45873457751812924  0.6695613130421734  0.20227209379007857  1.0000
  C   C2        1.0  0.5412539897277568  0.3304388016636752  0.7977247437449434  1.0000
  C   C3        1.0  0.27900164964287905  0.8971208812962177  0.2118578551331325  1.0000
  C   C4        1.0  0.72098892279886  0.10288301832041923  0.7881467678780326  1.0000
  C   C5        1.0  0.8117260404159837  0.5690210548540905  0.8749645462743914  1.0000
  C   C6        1.0  0.18828180739856037  0.4309857120767334  0.12503523169534958  1.0000
  C   C7        1.0  0.2762809295336408  0.843145265832874  0.3219767555138517  1.0000
  C   C8        1.0  0.7237270928007504  0.15684912695042638  0.6780314381423905  1.0000
  C   C9        1.0  0.9545925289168692  0.4500393502384343  0.804713884144597  1.0000
  C   C10       1.0  0.045384666997442445  0.5499626461048805  0.1952786685363535  1.0000
  C   C11       1.0  0.4418757192497152  0.5984691143123443  0.4085529633295907  1.0000
  C   C12       1.0  0.5581302451344997  0.4015214316893179  0.5914465634429362  1.0000
  C   C13       1.0  0.9962894794100876  0.473949977572758  0.6879976141352202  1.0000
  C   C14       1.0  0.003703046518566577  0.5260512641242913  0.3119999940560731  1.0000
  C   C15       1.0  0.0393041351908323  0.31289874849154137  0.8517354007790843  1.0000
  C   C16       1.0  0.9606932391608756  0.687104570921676  0.1482611573768651  1.0000
  C   C17       1.0  0.42983581403785104  0.6481595249558868  0.5259474540070741  1.0000
  C   C18       1.0  0.5701613127991723  0.351830925343002  0.4740504685748022  1.0000
  C   C19       1.0  0.5120771190756274  0.4498920743454491  0.38307416200368033  1.0000
  C   C20       1.0  0.48792472836287715  0.5500971590524628  0.6169219498898713  1.0000
  C   C21       1.0  0.11124803379107821  0.3597442655289457  0.6174335821906283  1.0000
  C   C22       1.0  0.8887610887873477  0.6402591402407296  0.38256452728114715  1.0000
  C   C23       1.0  0.16000301865013708  0.19936976098117043  0.7825140812914314  1.0000
  C   C24       1.0  0.8400038643568662  0.8006328224783987  0.21748763812451702  1.0000
  C   C25       1.0  0.19125019285635864  0.22219382435330462  0.6639022893153097  1.0000
  C   C26       1.0  0.8087517139060196  0.7778033867729591  0.336099719483002  1.0000
  C   C27       1.0  0.2619314213130579  0.056622330826861876  0.8369161829345089  1.0000
  C   C28       1.0  0.7380865839519543  0.9433796976184612  0.1630933155267371  1.0000
  N   N1        1.0  0.3931702036743659  0.7876762180154914  0.13854099458952618  1.0000
  N   N2        1.0  0.6068006504208155  0.21232527939142906  0.8614596543856976  1.0000
  N   N3        1.0  0.3899971699106998  0.6979614471970167  0.3150828057056145  1.0000
  N   N4        1.0  0.6100129337321577  0.30203358228384053  0.6849191337837439  1.0000
  O   O1        1.0  0.7107154813570772  0.9446618998957987  0.0496512660698443  1.0000
  O   O2        1.0  0.2892567312112106  0.0553253744382118  0.9503622685078525  1.0000
  O   O3        1.0  0.2688802848878852  0.6667515001072176  0.8869968286809568  1.0000
  O   O4        1.0  0.7311214158679036  0.3332675751306837  0.1130087997495579  1.0000
  O   O5        1.0  0.7722095380096616  0.6987991445985813  0.8387133414167635  1.0000
  O   O6        1.0  0.2278281932168298  0.3012068209544339  0.1612912276891834  1.0000
  O   O7        1.0  0.7255886446731452  0.5393795187016864  0.964886095666067  1.0000
  O   O8        1.0  0.2744165257920698  0.4606306759342901  0.03511625864663159  1.0000
  O   O9        1.0  0.32307909379235156  0.9433500628590892  0.7732454350975998  1.0000
  O   O10       1.0  0.6769140043053241  0.0566581392973475  0.22675898284508383  1.0000
