data_image0
_chemical_formula_structural       Cu2Hg2H12C20N8Cl4O8
_chemical_formula_sum              "Cu2 Hg2 H12 C20 N8 Cl4 O8"
_cell_length_a       7.229372735527735
_cell_length_b       9.623531655566659
_cell_length_c       11.09884166116549
_cell_angle_alpha    79.54358243449963
_cell_angle_beta     71.011410222287
_cell_angle_gamma    67.97371393558886

_space_group_name_H-M_alt    "P 1"
_space_group_IT_number       1

loop_
  _space_group_symop_operation_xyz
  'x, y, z'

loop_
  _atom_site_type_symbol
  _atom_site_label
  _atom_site_symmetry_multiplicity
  _atom_site_fract_x
  _atom_site_fract_y
  _atom_site_fract_z
  _atom_site_occupancy
  Cu  Cu1       1.0  0.500002209448951  3.0966605640003675e-07  0.5000003574359013  1.0000
  Cu  Cu2       1.0  0.9999981586913413  0.5000011669868485  0.9999989035106579  1.0000
  Hg  Hg1       1.0  9.684644340745534e-07  0.99999908885232  0.9999997116998499  1.0000
  Hg  Hg2       1.0  1.4655020022721695e-06  0.49999842312163884  0.4999994665112694  1.0000
  H   H1        1.0  0.6344234676503294  0.8963740064515376  0.9207357848761362  1.0000
  H   H2        1.0  0.4515413473668846  0.6037714641617812  0.5791982182157083  1.0000
  H   H3        1.0  0.3655819088365036  0.10362545392414554  0.07926365062358086  1.0000
  H   H4        1.0  0.548462108491293  0.3962268538679228  0.42080519247178205  1.0000
  H   H5        1.0  0.9821555040879847  0.14533818481009325  0.6710025532648698  1.0000
  H   H6        1.0  0.798035035590644  0.354852976813021  0.8291027863856185  1.0000
  H   H7        1.0  0.017855318902689953  0.8546579171116166  0.32899467564706697  1.0000
  H   H8        1.0  0.20196453530369488  0.6451408585759  0.17089809424710714  1.0000
  H   H9        1.0  0.8203058233912376  0.1485389742125847  0.4988699942790616  1.0000
  H   H10       1.0  0.46733312483701195  0.35134321868360274  0.0010679453460654186  1.0000
  H   H11       1.0  0.17969466680432342  0.8514616087562531  0.5011293442092465  1.0000
  H   H12       1.0  0.5326643225091557  0.6486551107570622  0.9989326916085445  1.0000
  C   C1        1.0  0.5921020785644875  0.9492112000842994  0.7314667299860101  1.0000
  C   C2        1.0  0.2726974583363174  0.5510038675271078  0.7684369691025308  1.0000
  C   C3        1.0  0.4078994440796324  0.05078824820655831  0.26853509486006993  1.0000
  C   C4        1.0  0.7273025302977203  0.4489967266067866  0.23155994394752338  1.0000
  C   C5        1.0  0.6774113327704897  0.9522697888487882  0.8266110622465986  1.0000
  C   C6        1.0  0.4561698614547042  0.547898791147155  0.6733265260535432  1.0000
  C   C7        1.0  0.3225907500861922  0.047727423581243  0.17338845900029295  1.0000
  C   C8        1.0  0.5438282065506715  0.45210066064075966  0.326674362184292  1.0000
  C   C9        1.0  0.8682655058815529  0.08960736108501521  0.6887217541678435  1.0000
  C   C10       1.0  0.6462166466696929  0.41050891851450194  0.8112832622914681  1.0000
  C   C11       1.0  0.13174146326640818  0.9103887287518618  0.31127786409046365  1.0000
  C   C12       1.0  0.35377930857730183  0.5894871718141844  0.1887156593775784  1.0000
  C   C13       1.0  0.7821385535970082  0.09013314302850263  0.5926278120938447  1.0000
  C   C14       1.0  0.46457229818479845  0.4098637918265099  0.9073061791353892  1.0000
  C   C15       1.0  0.2178620976071458  0.9098651884976263  0.4073725487498975  1.0000
  C   C16       1.0  0.5354259894802099  0.5901311838229193  0.09269100242043746  1.0000
  C   C17       1.0  0.43257347662848433  0.8764155190491678  0.7498456849280045  1.0000
  C   C18       1.0  0.05888932671037142  0.6240486939930464  0.7501089416586167  1.0000
  C   C19       1.0  0.5674237510580513  0.12358728652998256  0.25015865870860665  1.0000
  C   C20       1.0  0.941111253257347  0.3759541348359862  0.24989058719338422  1.0000
  N   N1        1.0  0.6458912769638947  0.0183586233393598  0.6156290142161608  1.0000
  N   N2        1.0  0.2796696933463568  0.4817671558976501  0.8842817748574843  1.0000
  N   N3        1.0  0.35410667194379675  0.9816396949362556  0.3843740481766957  1.0000
  N   N4        1.0  0.72032718120186  0.5182356820109606  0.11571560466713739  1.0000
  N   N5        1.0  0.8154144898190272  0.02176454811591101  0.8050182855564001  1.0000
  N   N6        1.0  0.6419449335510665  0.47838695497912226  0.6949733505743579  1.0000
  N   N7        1.0  0.18459014691091347  0.9782326564002239  0.19498307281511973  1.0000
  N   N8        1.0  0.3580527939013789  0.5216102565311262  0.3050261345806574  1.0000
  Cl  Cl1       1.0  0.23231923421401035  0.2990851323221123  0.5908963181406505  1.0000
  Cl  Cl2       1.0  0.1221915133510551  0.20107015287348426  0.908959796300685  1.0000
  Cl  Cl3       1.0  0.7676816677709012  0.7009131936214957  0.40910525542221166  1.0000
  Cl  Cl4       1.0  0.8778092988616919  0.7989259272099364  0.09104158689848418  1.0000
  O   O1        1.0  0.3641467597197801  0.8932426036723841  0.6520044319379605  1.0000
  O   O2        1.0  0.9095078684610202  0.6071643265047443  0.8479250877689208  1.0000
  O   O3        1.0  0.6358481648742541  0.10676020423813533  0.34799928729314894  1.0000
  O   O4        1.0  0.09048725241747485  0.3928441333853955  0.15207108664167626  1.0000
  O   O5        1.0  0.3739043427948444  0.8084255050706802  0.8540138082040512  1.0000
  O   O6        1.0  0.03640617891654336  0.6921059626162673  0.6459621632685922  1.0000
  O   O7        1.0  0.6260951753987957  0.1915795707842207  0.14598559880889178  1.0000
  O   O8        1.0  0.9635898134019174  0.30790361403859373  0.35403547514435013  1.0000
