data_image0
_chemical_formula_structural       K2Zn2H16C11N2Cl4O8
_chemical_formula_sum              "K2 Zn2 H16 C11 N2 Cl4 O8"
_cell_length_a       7.313750574962261
_cell_length_b       7.313767753718979
_cell_length_c       10.315926791602173
_cell_angle_alpha    100.42481652928836
_cell_angle_beta     100.42469835759505
_cell_angle_gamma    92.8013022540392

_space_group_name_H-M_alt    "P 1"
_space_group_IT_number       1

loop_
  _space_group_symop_operation_xyz
  'x, y, z'

loop_
  _atom_site_type_symbol
  _atom_site_label
  _atom_site_symmetry_multiplicity
  _atom_site_fract_x
  _atom_site_fract_y
  _atom_site_fract_z
  _atom_site_occupancy
  K   K1        1.0  0.13566246280831248  0.8643363407258136  0.500000497964983  1.0000
  K   K2        1.0  0.5746356985629006  0.4253635543139822  0.5000001723708252  1.0000
  Zn  Zn1       1.0  0.07726233475902688  0.4251997171838439  0.7123658508825698  1.0000
  Zn  Zn2       1.0  0.5748001267393263  0.9227368243498902  0.287634024534178  1.0000
  H   H1        1.0  0.4781036704692737  0.9581419139098416  0.9231615373909817  1.0000
  H   H2        1.0  0.04185640982026939  0.5218946295754989  0.07683814325494609  1.0000
  H   H3        1.0  0.5885385169654995  0.7574408257664799  0.9598905607994507  1.0000
  H   H4        1.0  0.242558955812278  0.4114597017381313  0.04010902709821808  1.0000
  H   H5        1.0  0.7268037119003877  0.13925373343067798  0.753407287725544  1.0000
  H   H6        1.0  0.8607429306925383  0.2731990201299936  0.24659278957253858  1.0000
  H   H7        1.0  0.494185560520087  0.0423671572977184  0.7148072472597703  1.0000
  H   H8        1.0  0.9576330784794109  0.5058146414987377  0.2851940541116065  1.0000
  H   H9        1.0  0.9767970999794927  0.9286686978991484  0.8396670199014267  1.0000
  H   H10       1.0  0.07133270605184087  0.023203911832474895  0.16033295407422798  1.0000
  H   H11       1.0  0.8954676340992407  0.8130210544588365  0.9584711360041352  1.0000
  H   H12       1.0  0.1869808166967175  0.1045348036894325  0.04152905491554999  1.0000
  H   H13       1.0  0.7703012896434132  0.11982312263146608  0.054851747522100425  1.0000
  H   H14       1.0  0.8801764421475795  0.22969813456744245  0.9451472521919299  1.0000
  H   H15       1.0  0.7089175923243258  0.7507146222161082  0.7490193825770389  1.0000
  H   H16       1.0  0.24928480999646038  0.2910852762595156  0.2509806551099061  1.0000
  C   C1        1.0  0.5321294768070004  0.8291217921260596  0.8785778829659847  1.0000
  C   C2        1.0  0.17087722237838676  0.4678697357653334  0.12142184663140645  1.0000
  C   C3        1.0  0.37742746349530865  0.7022522847239755  0.7781821738888723  1.0000
  C   C4        1.0  0.2977467229316559  0.622573151636878  0.22181679276646085  1.0000
  C   C5        1.0  0.6383845245052413  0.0078292176594985  0.7159917430705534  1.0000
  C   C6        1.0  0.9921694764847259  0.36161689205179204  0.2840093591889925  1.0000
  C   C7        1.0  0.6681024516667692  0.9261137540715226  0.5754152731954177  1.0000
  C   C8        1.0  0.0738849862940043  0.33189968263739184  0.4245857370700676  1.0000
  C   C9        1.0  0.8726646580917715  0.9280252090789386  0.904003646321925  1.0000
  C   C10       1.0  0.07197556411411199  0.12733683869255688  0.09599639921481899  1.0000
  C   C11       1.0  0.8860540180007916  0.11394733375338009  3.001207673029175e-07  1.0000
  N   N1        1.0  0.6876280105757004  0.8755002538450043  0.809888412388318  1.0000
  N   N2        1.0  0.12449877597407519  0.31237386480137996  0.1901125404695847  1.0000
  Cl  Cl1       1.0  0.8054815344414974  0.4675199313738218  0.7920643433445774  1.0000
  Cl  Cl2       1.0  0.5324794553809866  0.1945174328036359  0.20793678583257247  1.0000
  Cl  Cl3       1.0  0.19807520193004538  0.1646884231360417  0.7696065528613971  1.0000
  Cl  Cl4       1.0  0.8353141560450225  0.8019252833315347  0.23039448802689572  1.0000
  O   O1        1.0  0.24604606726693848  0.6389580372447766  0.829007937929596  1.0000
  O   O2        1.0  0.3610418256211644  0.7539533184961513  0.17099297827684268  1.0000
  O   O3        1.0  0.3883949040876118  0.6679550698369708  0.6561426930974291  1.0000
  O   O4        1.0  0.3320444707130718  0.6116035950592716  0.34385796618170156  1.0000
  O   O5        1.0  0.5865221954041998  0.011219645333490298  0.4843074974075279  1.0000
  O   O6        1.0  0.988778857468844  0.4134780158088204  0.5156925016178349  1.0000
  O   O7        1.0  0.7670228848710607  0.7924465845170372  0.5592466477391226  1.0000
  O   O8        1.0  0.20755284101679183  0.23297788360370925  0.44075310076843977  1.0000
