data_image0
_chemical_formula_structural       Al8P12H36C12O36
_chemical_formula_sum              "Al8 P12 H36 C12 O36"
_cell_length_a       8.630634583003829
_cell_length_b       13.944017010465135
_cell_length_c       13.944022114867504
_cell_angle_alpha    120.0000513354869
_cell_angle_beta     89.99998599114195
_cell_angle_gamma    90.00009995290128

_space_group_name_H-M_alt    "P 1"
_space_group_IT_number       1

loop_
  _space_group_symop_operation_xyz
  'x, y, z'

loop_
  _atom_site_type_symbol
  _atom_site_label
  _atom_site_symmetry_multiplicity
  _atom_site_fract_x
  _atom_site_fract_y
  _atom_site_fract_z
  _atom_site_occupancy
  Al  Al1       1.0  0.5132632506982945  0.6666659861402806  0.3333325494661209  1.0000
  Al  Al2       1.0  0.013263558921835302  0.333332426101691  0.6666654029172675  1.0000
  Al  Al3       1.0  0.4434309080100079  0.09538873967585443  0.6074265906033246  1.0000
  Al  Al4       1.0  0.44343143806231927  0.5120377251363877  0.9046125426305238  1.0000
  Al  Al5       1.0  0.9434312252068441  0.9046112231249097  0.512035491650124  1.0000
  Al  Al6       1.0  0.4434313514068935  0.3925747356764261  0.48796295343156254  1.0000
  Al  Al7       1.0  0.9434308874711806  0.6074251166948132  0.09538818230375062  1.0000
  Al  Al8       1.0  0.9434306601282217  0.48796319716098674  0.3925750244439072  1.0000
  P   P1        1.0  0.3003185482913366  0.8636038093055162  0.5180021544669771  1.0000
  P   P2        1.0  0.3003160106189  0.6543988500170244  0.13639572856119733  1.0000
  P   P3        1.0  0.8003166492012923  0.13639639547986343  0.6543997011223226  1.0000
  P   P4        1.0  0.3003203604840294  0.4820012458458223  0.3456018332830908  1.0000
  P   P5        1.0  0.8003159884253677  0.518004087794992  0.8636049544425006  1.0000
  P   P6        1.0  0.800321613389059  0.3456016240375063  0.48200038369741083  1.0000
  P   P7        1.0  0.7705954617973846  0.71742020395493  0.5322828914262414  1.0000
  P   P8        1.0  0.7705991246663118  0.8148644980470509  0.2825797836540502  1.0000
  P   P9        1.0  0.27060258859953734  0.282580614124363  0.814867118353895  1.0000
  P   P10       1.0  0.7705986534334954  0.46771501387440406  0.18513393028744216  1.0000
  P   P11       1.0  0.2705960085938059  0.5322828472186816  0.7174210843088035  1.0000
  P   P12       1.0  0.2705955673718989  0.18513521186213908  0.46771736576433637  1.0000
  H   H1        1.0  0.2041760912043813  0.8510671761374624  0.6721291972234836  1.0000
  H   H2        1.0  0.20417731059431796  0.8210624455767289  0.1489330781298931  1.0000
  H   H3        1.0  0.7041777010560893  0.14893295401668621  0.8210625406409021  1.0000
  H   H4        1.0  0.20417660791896003  0.3278698692261699  0.17893728534820497  1.0000
  H   H5        1.0  0.7041784342931124  0.6721297351266455  0.851066970026167  1.0000
  H   H6        1.0  0.7041755233215382  0.17893771012173684  0.3278697981944063  1.0000
  H   H7        1.0  0.37557937406479885  0.7690692280604167  0.6130487838786748  1.0000
  H   H8        1.0  0.3755795552074233  0.8439806333418858  0.23093177168404821  1.0000
  H   H9        1.0  0.8755800407775141  0.23092990384018455  0.8439796467467247  1.0000
  H   H10       1.0  0.37558008296070977  0.3869495587219163  0.15601955181167423  1.0000
  H   H11       1.0  0.8755805953839869  0.6130493831415436  0.7690689773558148  1.0000
  H   H12       1.0  0.8755788663600799  0.15602002120720465  0.3869493830754607  1.0000
  H   H13       1.0  0.19389279439508303  0.7204874889221956  0.545680922119864  1.0000
  H   H14       1.0  0.19389299477893474  0.8251939577229379  0.2795116953951719  1.0000
  H   H15       1.0  0.6938935888012594  0.2795116297752996  0.8251940868077908  1.0000
  H   H16       1.0  0.19389365012017376  0.4543177205973307  0.17480580402737897  1.0000
  H   H17       1.0  0.6938928268081953  0.5456817290424283  0.7204884511195075  1.0000
  H   H18       1.0  0.6938935139733362  0.17480619175651657  0.45431759107373887  1.0000
  H   H19       1.0  0.7980002161964422  0.7790241184781832  0.7263342725729699  1.0000
  H   H20       1.0  0.7979982362173885  0.9473102193879656  0.22097748773001052  1.0000
  H   H21       1.0  0.297997911771624  0.22097694371885954  0.9473097692767354  1.0000
  H   H22       1.0  0.7980007936789519  0.2736662312547651  0.05268980512448001  1.0000
  H   H23       1.0  0.2979986588862218  0.726334016151334  0.7790238736406678  1.0000
  H   H24       1.0  0.29800128277884147  0.05268892913341714  0.2736664828629003  1.0000
  H   H25       1.0  0.6192253228888305  0.7075929809826677  0.6709509178114671  1.0000
  H   H26       1.0  0.6192246001663833  0.9633581569890383  0.2924077949494476  1.0000
  H   H27       1.0  0.11922436487787988  0.2924075117633933  0.9633589208801893  1.0000
  H   H28       1.0  0.6192260717756924  0.32904846694493983  0.036640451934026375  1.0000
  H   H29       1.0  0.11922495007784313  0.6709517097574033  0.7075931338278918  1.0000
  H   H30       1.0  0.11922644588285893  0.03664030948984016  0.329047932744416  1.0000
  H   H31       1.0  0.6426953993768834  0.8470972226507738  0.6986827210992103  1.0000
  H   H32       1.0  0.6426943546218169  0.8515857428756491  0.15290242946165467  1.0000
  H   H33       1.0  0.1426952333514819  0.1529025291106905  0.8515861036424822  1.0000
  H   H34       1.0  0.642697054098477  0.3013159692352048  0.1484133151405942  1.0000
  H   H35       1.0  0.1426948466287143  0.6986830881405124  0.8470977186229474  1.0000
  H   H36       1.0  0.1426964941248556  0.14841354670967627  0.3013165973957754  1.0000
  C   C1        1.0  0.26442883815642665  0.7944896178924736  0.5948715613427992  1.0000
  C   C2        1.0  0.2644300818830772  0.8003820238006796  0.20550994780966642  1.0000
  C   C3        1.0  0.7644294380531136  0.20550916386530096  0.8003814009118811  1.0000
  C   C4        1.0  0.26442952464454095  0.40512714180535886  0.19961892626700714  1.0000
  C   C5        1.0  0.7644288306269047  0.5948724031209309  0.7944905270811232  1.0000
  C   C6        1.0  0.7644283489677194  0.1996185388833921  0.4051278415370659  1.0000
  C   C7        1.0  0.701276152966912  0.7675495879895137  0.6706071080781228  1.0000
  C   C8        1.0  0.701276430762249  0.9030573241234948  0.23245060346472707  1.0000
  C   C9        1.0  0.20127619602852323  0.23245147052973886  0.9030583723230735  1.0000
  C   C10       1.0  0.7012768056839108  0.3293931602153606  0.09694264784200608  1.0000
  C   C11       1.0  0.2012756830793165  0.6706063735985167  0.7675497888336196  1.0000
  C   C12       1.0  0.20127727631290068  0.09694215429409773  0.32939302098571227  1.0000
  O   O1        1.0  0.387622594311587  0.7929241421979896  0.4118202936032205  1.0000
  O   O2        1.0  0.3876223888046084  0.6188960166750875  0.20707643607116918  1.0000
  O   O3        1.0  0.8876208810003163  0.2070775959352105  0.6188964525215326  1.0000
  O   O4        1.0  0.3876211524472027  0.5881792853658679  0.38110338701788743  1.0000
  O   O5        1.0  0.8876234532793035  0.4118196625978924  0.7929235227730587  1.0000
  O   O6        1.0  0.887621132911491  0.38110392212642785  0.5881790614601811  1.0000
  O   O7        1.0  0.39189364059778603  0.9698584458890026  0.5985203004431838  1.0000
  O   O8        1.0  0.39189442925381  0.6286619043661901  0.030142050749446897  1.0000
  O   O9        1.0  0.891894938215721  0.030141992451369302  0.6286619874710765  1.0000
  O   O10       1.0  0.39189519971786524  0.40147981969310115  0.37133848595923513  1.0000
  O   O11       1.0  0.8918945152877386  0.598520436314473  0.9698585010402494  1.0000
  O   O12       1.0  0.8918943063548496  0.3713379323524251  0.4014793796463465  1.0000
  O   O13       1.0  0.14325831055980132  0.8992584242212801  0.49102784770331437  1.0000
  O   O14       1.0  0.1432591117373576  0.5917699810527637  0.10074137140892249  1.0000
  O   O15       1.0  0.6432586350804571  0.10074155781839504  0.5917713324015139  1.0000
  O   O16       1.0  0.143257775496437  0.5089709636781734  0.4082302944533466  1.0000
  O   O17       1.0  0.6432591258581725  0.4910275433923843  0.8992574582551498  1.0000
  O   O18       1.0  0.6432567684793471  0.4082299339184771  0.5089717132134481  1.0000
  O   O19       1.0  0.6371128170666368  0.7132375425101928  0.4610567231828213  1.0000
  O   O20       1.0  0.6371117416084359  0.7478178678331204  0.2867619892956982  1.0000
  O   O21       1.0  0.13710720956569133  0.28676228820127386  0.7478167688890807  1.0000
  O   O22       1.0  0.6371102946707552  0.5389429882442869  0.2521817082013057  1.0000
  O   O23       1.0  0.1371120972704674  0.4610570046181904  0.7132380481684847  1.0000
  O   O24       1.0  0.13710951920437964  0.2521812130452616  0.538942810885672  1.0000
  O   O25       1.0  0.8478862653655883  0.6043219843366785  0.49628629661543033  1.0000
  O   O26       1.0  0.8478855328999515  0.8919640543441716  0.3956766667426094  1.0000
  O   O27       1.0  0.34787862681466925  0.39567789808319276  0.8919619971868186  1.0000
  O   O28       1.0  0.8478838824216056  0.5037124788732684  0.10803648920731485  1.0000
  O   O29       1.0  0.34788693628367184  0.4962859909596488  0.6043217482420999  1.0000
  O   O30       1.0  0.34788061429492967  0.10803836225582582  0.5037170251593537  1.0000
  O   O31       1.0  0.8999858278092958  0.7977351401009259  0.5391438934732021  1.0000
  O   O32       1.0  0.8999869732943608  0.7414103352103963  0.20226480198564184  1.0000
  O   O33       1.0  0.3999869501922931  0.20226505795190514  0.7414106563835219  1.0000
  O   O34       1.0  0.899987724500761  0.4608558230297534  0.2585909895829133  1.0000
  O   O35       1.0  0.3999850976941843  0.5391447141310337  0.7977351018470173  1.0000
  O   O36       1.0  0.3999870850617953  0.25859134140790724  0.4608562948190809  1.0000
