data_image0
_chemical_formula_structural       Zn2H24C44S6N2O28
_chemical_formula_sum              "Zn2 H24 C44 S6 N2 O28"
_cell_length_a       13.95474084038068
_cell_length_b       15.318887676060442
_cell_length_c       15.127709792102388
_cell_angle_alpha    89.23600783028752
_cell_angle_beta     89.99541582199186
_cell_angle_gamma    90.01009804840791

_space_group_name_H-M_alt    "P 1"
_space_group_IT_number       1

loop_
  _space_group_symop_operation_xyz
  'x, y, z'

loop_
  _atom_site_type_symbol
  _atom_site_label
  _atom_site_symmetry_multiplicity
  _atom_site_fract_x
  _atom_site_fract_y
  _atom_site_fract_z
  _atom_site_occupancy
  Zn  Zn1       1.0  0.604584480860076  0.5000189182015119  0.5000342451814248  1.0000
  Zn  Zn2       1.0  0.396498211908117  0.5000191805454292  0.49999031965192126  1.0000
  H   H1        1.0  0.5095817437098376  0.22566406253135807  0.3625799128516078  1.0000
  H   H2        1.0  0.5090691772604429  0.7743835652379759  0.6374046324778604  1.0000
  H   H3        1.0  0.5163816282154343  0.2169072050493384  0.6463154157968846  1.0000
  H   H4        1.0  0.5170241344391968  0.7831498919884936  0.3536799542364051  1.0000
  H   H5        1.0  0.6294927512614236  0.4284844783349655  0.9411705807270394  1.0000
  H   H6        1.0  0.365827390245677  0.4243382214644741  0.0626441654377174  1.0000
  H   H7        1.0  0.6295288034963278  0.5714603197475865  0.05884724056962651  1.0000
  H   H8        1.0  0.3657597705527493  0.5754636942712568  0.9374443255454067  1.0000
  H   H9        1.0  0.06788382091931308  0.6407933548342301  0.5082211791649982  1.0000
  H   H10       1.0  0.9322510110480733  0.3998813939560931  0.400343550235597  1.0000
  H   H11       1.0  0.06787286333796058  0.35916670241178394  0.49182379627690404  1.0000
  H   H12       1.0  0.9322658464764898  0.6000566868486601  0.5996972839752317  1.0000
  H   H13       1.0  0.24652960273438398  0.6349241674976227  0.5082776811198784  1.0000
  H   H14       1.0  0.7534393558739509  0.4054545516225901  0.4031702952780095  1.0000
  H   H15       1.0  0.2465192858643448  0.36508094394984886  0.4917412984456463  1.0000
  H   H16       1.0  0.7534535150028886  0.5944797247588129  0.5968751374949264  1.0000
  H   H17       1.0  0.4636074146856472  0.053680433654456294  0.7998263222183725  1.0000
  H   H18       1.0  0.4650203443063673  0.9461608704481534  0.19998634961533673  1.0000
  H   H19       1.0  0.6695179940945905  0.9556975241102065  0.8184501438975859  1.0000
  H   H20       1.0  0.6707719375249607  0.04422321495361809  0.1821148522726261  1.0000
  H   H21       1.0  0.6145297066097655  0.35489990047768316  0.6406636325884065  1.0000
  H   H22       1.0  0.3938535775837408  0.34587972909553594  0.3661390894597432  1.0000
  H   H23       1.0  0.6147664637887472  0.6449931624368545  0.35934991055846416  1.0000
  H   H24       1.0  0.39373892544055167  0.6538969547224625  0.6339183011466859  1.0000
  C   C1        1.0  0.5016464211384175  0.5045919525338078  0.664884351129011  1.0000
  C   C2        1.0  0.5016899781460749  0.4953574133934921  0.33516853337646074  1.0000
  C   C3        1.0  0.5306491061551739  0.9506140939783024  0.6618526469669633  1.0000
  C   C4        1.0  0.531384914578851  0.04946674634093989  0.33820597351657977  1.0000
  C   C5        1.0  0.5724985600630816  0.4622185462791109  0.9053818611879054  1.0000
  C   C6        1.0  0.4237089040485245  0.45771324655461143  0.09672113202194771  1.0000
  C   C7        1.0  0.5725323401419472  0.5377141894551088  0.09464889970385572  1.0000
  C   C8        1.0  0.42365540121660666  0.5421165670467121  0.9033596535547801  1.0000
  C   C9        1.0  0.5744401621545874  0.46326751965591473  0.8132719888451023  1.0000
  C   C10       1.0  0.4262345135663493  0.4552122628109103  0.1889240419351523  1.0000
  C   C11       1.0  0.5744998017134433  0.5366251952357927  0.1867590816974456  1.0000
  C   C12       1.0  0.4261639246481648  0.5446390465856722  0.8111540791540577  1.0000
  C   C13       1.0  0.501097869943969  0.5045404204721535  0.7640889536796323  1.0000
  C   C14       1.0  0.5011650550070073  0.49533830023375464  0.23596629733629018  1.0000
  C   C15       1.0  0.4969204634576272  0.5008774250969026  0.9511007258804371  1.0000
  C   C16       1.0  0.4969338493604027  0.4990269788056167  0.048968087835625305  1.0000
  C   C17       1.0  0.10451640079903508  0.5781359059891072  0.5053105011142094  1.0000
  C   C18       1.0  0.8956284573221466  0.44346583548448143  0.44551536129818464  1.0000
  C   C19       1.0  0.10451215880001999  0.42183276015506993  0.4947240261240751  1.0000
  C   C20       1.0  0.8956408893055892  0.5564629864270428  0.5545359253443607  1.0000
  C   C21       1.0  0.2038037237306725  0.5755445580723729  0.5048190478251016  1.0000
  C   C22       1.0  0.7963353268461048  0.44593245656705705  0.44661570345999024  1.0000
  C   C23       1.0  0.20379463183172666  0.4244498306687063  0.49521609223736374  1.0000
  C   C24       1.0  0.7963470275411664  0.5539974567497552  0.5534282055849148  1.0000
  C   C25       1.0  0.052776305870437995  0.49997957597231857  0.5000225116345334  1.0000
  C   C26       1.0  0.9471727142556076  0.4999642035453888  0.5000263692176645  1.0000
  C   C27       1.0  0.502595215713697  0.6732049490073065  0.4948910518067748  1.0000
  C   C28       1.0  0.5024975877704563  0.32684103737642534  0.50510181909344  1.0000
  C   C29       1.0  0.5139011826896008  0.18716709461639877  0.4233432104636776  1.0000
  C   C30       1.0  0.5136133910510168  0.8128905530625518  0.5766612906014643  1.0000
  C   C31       1.0  0.5096606715319963  0.22926862120053218  0.5043231293120487  1.0000
  C   C32       1.0  0.5097340836168768  0.7707882626756587  0.495657411793708  1.0000
  C   C33       1.0  0.515486016908376  0.1825541483752531  0.5839102967743202  1.0000
  C   C34       1.0  0.5158638143868187  0.81751056859936  0.416081682155678  1.0000
  C   C35       1.0  0.5208614051787065  0.0909512015924321  0.5839302546407269  1.0000
  C   C36       1.0  0.5212403240772829  0.909113862280698  0.41609499534457234  1.0000
  C   C37       1.0  0.5237017558999851  0.046454087981914007  0.5010939182416507  1.0000
  C   C38       1.0  0.5237271921651326  0.9536009797875521  0.49895397414203296  1.0000
  C   C39       1.0  0.5242215164345935  0.0960989922389786  0.42013688201889476  1.0000
  C   C40       1.0  0.523878887604674  0.903963279631057  0.5799182544187858  1.0000
  C   C41       1.0  0.5244533883661049  0.04022342573306051  0.6654515208337557  1.0000
  C   C42       1.0  0.525232861080056  0.9598562393321473  0.3345724785556499  1.0000
  C   C43       1.0  0.5142924920623457  0.0857468124869243  0.7528206437304946  1.0000
  C   C44       1.0  0.5156140983311843  0.9142986194524454  0.2471958754413635  1.0000
  S   S1        1.0  0.5524687988531838  0.8860737196002617  0.7605517999898977  1.0000
  S   S2        1.0  0.5537638073188518  0.1141140544318233  0.2396855976087764  1.0000
  S   S3        1.0  0.674161045362311  0.4036472702403415  0.7663702745288745  1.0000
  S   S4        1.0  0.331097900174825  0.39124694714436004  0.2398011902008221  1.0000
  S   S5        1.0  0.6743089566975511  0.5961382522178267  0.2336423593363222  1.0000
  S   S6        1.0  0.3309824125419709  0.6085174251828036  0.7602973310234802  1.0000
  N   N1        1.0  0.2526367040158135  0.5000029374342958  0.5000099432695819  1.0000
  N   N2        1.0  0.7478583707400829  0.49996456757185104  0.5000176587847491  1.0000
  O   O1        1.0  0.5754366182797097  0.5346410792842704  0.6259192692003952  1.0000
  O   O2        1.0  0.4277691735504304  0.5260825402176507  0.3725884150653656  1.0000
  O   O3        1.0  0.5754281350713129  0.46530554846231814  0.374176976181019  1.0000
  O   O4        1.0  0.42770852390246716  0.47395773733166646  0.6274100189908156  1.0000
  O   O5        1.0  0.5726152397842199  0.6314950810598888  0.4614740193221111  1.0000
  O   O6        1.0  0.4284761084271195  0.363260622249399  0.4714781736549086  1.0000
  O   O7        1.0  0.5724830253480562  0.3685550363301359  0.5385739180574518  1.0000
  O   O8        1.0  0.42856235187581143  0.636758568792395  0.5284840551462865  1.0000
  O   O9        1.0  0.5531511939643464  0.15459290861082306  0.7706696645014688  1.0000
  O   O10       1.0  0.5548435476335101  0.8456081198397457  0.2294824166452187  1.0000
  O   O11       1.0  0.4627266275385437  0.8618991732557433  0.7995251585558449  1.0000
  O   O12       1.0  0.6256370774333531  0.8229734680024876  0.7406446421071067  1.0000
  O   O13       1.0  0.5999205971107954  0.95568080241042  0.8271741198295928  1.0000
  O   O14       1.0  0.4642443588599505  0.138628989368037  0.2005056541146075  1.0000
  O   O15       1.0  0.6271234541839589  0.17694062113017855  0.2599701625883242  1.0000
  O   O16       1.0  0.6012209729716814  0.04451399890992041  0.17307707974581632  1.0000
  O   O17       1.0  0.7346675787874588  0.46099261504963357  0.7147794363096197  1.0000
  O   O18       1.0  0.7144850744830862  0.35289853516842123  0.83751776826864  1.0000
  O   O19       1.0  0.6215923127462516  0.3362974693026358  0.7043371851618332  1.0000
  O   O20       1.0  0.2687827390330355  0.444908430407466  0.2921069712123981  1.0000
  O   O21       1.0  0.2921590331905008  0.3383584291620281  0.1710193013979762  1.0000
  O   O22       1.0  0.389822288526794  0.32668559509167494  0.30296075610976203  1.0000
  O   O23       1.0  0.7346853509093589  0.5387108907668434  0.28525002539557676  1.0000
  O   O24       1.0  0.7147503077067369  0.6468160544428374  0.16250023151437182  1.0000
  O   O25       1.0  0.6218581859393453  0.6635561661533914  0.2956696023636098  1.0000
  O   O26       1.0  0.2686531818760898  0.5547996814675781  0.7080739361460716  1.0000
  O   O27       1.0  0.29207318459444304  0.6614340834944556  0.8290801086770969  1.0000
  O   O28       1.0  0.3896754760069355  0.6730954653533201  0.6970838835449911  1.0000
