data_image0
_chemical_formula_structural       Zn4H48C68N8O20
_chemical_formula_sum              "Zn4 H48 C68 N8 O20"
_cell_length_a       8.574932605
_cell_length_b       8.49097465360399
_cell_length_c       22.2072
_cell_angle_alpha    90.0
_cell_angle_beta     90.0
_cell_angle_gamma    97.5285332362876

_space_group_name_H-M_alt    "P 1"
_space_group_IT_number       1

loop_
  _space_group_symop_operation_xyz
  'x, y, z'

loop_
  _atom_site_type_symbol
  _atom_site_label
  _atom_site_symmetry_multiplicity
  _atom_site_fract_x
  _atom_site_fract_y
  _atom_site_fract_z
  _atom_site_occupancy
  Zn  Zn1       1.0  0.13178858997896734  0.3931357098279875  0.7028319644079418  1.0000
  Zn  Zn2       1.0  0.3911146879203571  0.1323270472202509  0.2976854353542961  1.0000
  Zn  Zn3       1.0  0.8911165244597257  0.6323258464880226  0.20231411434129143  1.0000
  Zn  Zn4       1.0  0.6317920550762964  0.8931380729806833  0.797167585287653  1.0000
  H   H1        1.0  0.4543850832154064  0.653168633483979  0.6257857811880854  1.0000
  H   H2        1.0  0.6547124704570848  0.4540056763646447  0.37357928959976766  1.0000
  H   H3        1.0  0.1547144566662482  0.9540032876707727  0.126424312835475  1.0000
  H   H4        1.0  0.9543809187490809  0.15317221013948776  0.8742160200295431  1.0000
  H   H5        1.0  0.39091363787759553  0.49358618232823664  0.5354542670845461  1.0000
  H   H6        1.0  0.4967300990978671  0.3912290313937561  0.4640229295003451  1.0000
  H   H7        1.0  0.9967273582086804  0.8912195149300433  0.0359806729349046  1.0000
  H   H8        1.0  0.89091529975466  0.993601613058985  0.9645520371771283  1.0000
  H   H9        1.0  0.27070150371527296  0.46117146098474393  0.4326011383695345  1.0000
  H   H10       1.0  0.4643065761733993  0.2703111677761925  0.5669535105731498  1.0000
  H   H11       1.0  0.9643035938303867  0.7703087790823275  0.9330491912532892  1.0000
  H   H12       1.0  0.7706937487417987  0.961195207446977  0.0674020137613027  1.0000
  H   H13       1.0  0.1192481998498138  0.6671497540399971  0.3922979934435702  1.0000
  H   H14       1.0  0.6685231512542201  0.1186809318470665  0.607700655643214  1.0000
  H   H15       1.0  0.1685204727036833  0.6186785431531945  0.8923011455744075  1.0000
  H   H16       1.0  0.6192383380169345  0.1671723380817696  0.1077006556432138  1.0000
  H   H17       1.0  0.0801814720517271  0.9011888890235156  0.45438461399906066  1.0000
  H   H18       1.0  0.9012997396664204  0.0798072630600259  0.5460355200115288  1.0000
  H   H19       1.0  0.4012999431949282  0.5798001225195932  0.9539649302928765  1.0000
  H   H20       1.0  0.5801674951583493  0.4012067212187276  0.045610432652473804  1.0000
  H   H21       1.0  0.1293008517488161  0.0571207595968346  0.5515004142800564  1.0000
  H   H22       1.0  0.05632478012467599  0.1291801368325451  0.4490611153139526  1.0000
  H   H23       1.0  0.5563294114119374  0.6291824999852409  0.0509379840772368  1.0000
  H   H24       1.0  0.6292939752595217  0.557124310711167  0.9484932814582693  1.0000
  H   H25       1.0  0.9434495002446467  0.6736312727547258  0.7134830145178128  1.0000
  H   H26       1.0  0.6710851685704213  0.9450270495093918  0.28659263662235906  1.0000
  H   H27       1.0  0.1710853561655412  0.4450258743183397  0.213407363377641  1.0000
  H   H28       1.0  0.44344588102462984  0.1736277216403863  0.7865169854821872  1.0000
  H   H29       1.0  0.7810217819148447  0.8207460664854125  0.6438033610720879  1.0000
  H   H30       1.0  0.819640124709025  0.7830734269176958  0.35612278900536865  1.0000
  H   H31       1.0  0.31964365675123924  0.283071063765  0.1438785619078473  1.0000
  H   H32       1.0  0.2810191747620721  0.3207413274094364  0.8561975395367298  1.0000
  H   H33       1.0  0.9060904990435077  0.5193994008312333  0.49983608919629324  1.0000
  H   H34       1.0  0.5193630198136675  0.9042740254058756  0.500318815519293  1.0000
  H   H35       1.0  0.019366397733193708  0.4042704742915434  0.9996816347851123  1.0000
  H   H36       1.0  0.40608960777984754  0.0193899099086892  0.00016571202132810003  1.0000
  H   H37       1.0  0.06222942987496081  0.3840074125765228  0.5754539068410267  1.0000
  H   H38       1.0  0.382923185762543  0.06045061607729  0.4249320040347301  1.0000
  H   H39       1.0  0.8829276629271163  0.5604517912683491  0.0750675456608647  1.0000
  H   H40       1.0  0.5622308040462728  0.8840026479593706  0.9245451925501628  1.0000
  H   H41       1.0  0.3801781677151936  0.606490056713838  0.7379737202348764  1.0000
  H   H42       1.0  0.6062668961698208  0.3803710619926194  0.2624081379012182  1.0000
  H   H43       1.0  0.1062694988697075  0.880373425145315  0.23759096148996414  1.0000
  H   H44       1.0  0.8801786680085684  0.1064936333693538  0.7620267300695289  1.0000
  H   H45       1.0  0.439078823606728  0.4397727079406764  0.7265247307179621  1.0000
  H   H46       1.0  0.4428695854800324  0.4441372790106755  0.27269264022478984  1.0000
  H   H47       1.0  0.9428711137740322  0.9441337023551668  0.2273064591663996  1.0000
  H   H48       1.0  0.9390763036317652  0.9397738831317284  0.7734730177600042  1.0000
  C   C1        1.0  0.2228164903349139  0.11003851090688242  0.6661254007709232  1.0000
  C   C2        1.0  0.10860943148719572  0.2218530244674497  0.3340313051622914  1.0000
  C   C3        1.0  0.6086222261039183  0.7218553876201455  0.1659632911848377  1.0000
  C   C4        1.0  0.7228293517431724  0.6100503777527069  0.8338795525775424  1.0000
  C   C5        1.0  0.2646061987453763  0.9833827670208423  0.6240935372311682  1.0000
  C   C6        1.0  0.9828805511398288  0.2640161590391444  0.3760037285204804  1.0000
  C   C7        1.0  0.4828844741523213  0.7640197101534767  0.1239962714795197  1.0000
  C   C8        1.0  0.7646052246034571  0.4833839677530706  0.8759024100291768  1.0000
  C   C9        1.0  0.3606662881764536  0.869717409223185  0.6451389639396227  1.0000
  C   C10       1.0  0.8697325277534631  0.3600652336585171  0.3546872185597465  1.0000
  C   C11       1.0  0.3697355260298636  0.8600616570030013  0.1453141323534695  1.0000
  C   C12       1.0  0.8606629816546914  0.3697186099554132  0.8548587845383508  1.0000
  C   C13       1.0  0.3794967556819556  0.7392709052810533  0.6101593176987663  1.0000
  C   C14       1.0  0.740340067510772  0.3791831003513551  0.38952186678194783  1.0000
  C   C15       1.0  0.24033778453674873  0.8791747718492786  0.11048083504449123  1.0000
  C   C16       1.0  0.8794899505904182  0.2392721060132814  0.8898402319968285  1.0000
  C   C17       1.0  0.30729611139726404  0.7167756636421032  0.5528130516228984  1.0000
  C   C18       1.0  0.7182034973542955  0.3071736175045744  0.4470072769191944  1.0000
  C   C19       1.0  0.21820354676012244  0.8071652890024978  0.0529958752116428  1.0000
  C   C20       1.0  0.8072871948401003  0.21678755602910374  0.9471878489859124  1.0000
  C   C21       1.0  0.3242112819885961  0.5826405388038509  0.5167900500738511  1.0000
  C   C22       1.0  0.5850825881118666  0.3243218437962058  0.4828591627940497  1.0000
  C   C23       1.0  0.08508162545044944  0.8243147032557661  0.0171448899456053  1.0000
  C   C24       1.0  0.8242046978112825  0.0826524311908514  0.9832117511437701  1.0000
  C   C25       1.0  0.2579208346626842  0.5653853959645119  0.4600724089484487  1.0000
  C   C26       1.0  0.5678434484189268  0.2577282780719372  0.539626337404087  1.0000
  C   C27       1.0  0.06784512638272132  0.7577235134547848  0.9603754638135342  1.0000
  C   C28       1.0  0.7579088819037949  0.06540085223643641  0.0399284916603619  1.0000
  C   C29       1.0  0.1706064830178775  0.6822095437662841  0.4372199106596071  1.0000
  C   C30       1.0  0.6836965182995984  0.1701517458780586  0.5627265031161031  1.0000
  C   C31       1.0  0.1836986586314353  0.6701505451458232  0.9372752981015183  1.0000
  C   C32       1.0  0.6705843427950384  0.1822273759614887  0.0627778378183663  1.0000
  C   C33       1.0  0.1498511036403016  0.8129922408528929  0.4718753377283065  1.0000
  C   C34       1.0  0.8136915074221065  0.14948477720501074  0.5282863215533666  1.0000
  C   C35       1.0  0.3136914694967814  0.649484764434419  0.971714579055444  1.0000
  C   C36       1.0  0.6498343319990384  0.31300650916317363  0.028121059836451  1.0000
  C   C37       1.0  0.21704059331190004  0.8345074141378037  0.530154184228536  1.0000
  C   C38       1.0  0.8350986873414143  0.21675310514150686  0.4699129111279206  1.0000
  C   C39       1.0  0.3350993532379647  0.7167495284859984  0.030088890089700702  1.0000
  C   C40       1.0  0.7170353294471854  0.3345204944864407  0.9698426636406199  1.0000
  C   C41       1.0  0.19860668271194729  0.9666622069200699  0.5673835512806633  1.0000
  C   C42       1.0  0.9664004525906478  0.1982933691979269  0.4328677185777607  1.0000
  C   C43       1.0  0.46640593736957925  0.6982909805040549  0.0671318311178339  1.0000
  C   C44       1.0  0.6986046091716389  0.4666729113454267  0.9326132965884923  1.0000
  C   C45       1.0  0.45809977923761375  0.9023340840456984  0.7006331279945216  1.0000
  C   C46       1.0  0.9016076869611782  0.4577988378851998  0.2990313952231674  1.0000
  C   C47       1.0  0.40161114760562816  0.9577988251146081  0.2009686047768326  1.0000
  C   C48       1.0  0.9581019954201012  0.402332908854639  0.7993664217010733  1.0000
  C   C49       1.0  0.9327775673391729  0.6452793802243519  0.665753899636151  1.0000
  C   C50       1.0  0.6432978462911976  0.9336701362189217  0.3343361612449982  1.0000
  C   C51       1.0  0.143302148946816  0.4336737128744304  0.1656638387550018  1.0000
  C   C52       1.0  0.43277394811915565  0.1452758291100125  0.834246100363849  1.0000
  C   C53       1.0  0.8416093838369535  0.7244344523433242  0.6270934651824618  1.0000
  C   C54       1.0  0.7232207208751619  0.8426877179995387  0.3728903238589254  1.0000
  C   C55       1.0  0.2232258814753436  0.342688918731767  0.1271114773586959  1.0000
  C   C56       1.0  0.3416053022488867  0.22442733734406775  0.8729074354263491  1.0000
  C   C57       1.0  0.8323670826870355  0.6796589901224908  0.5663262365359003  1.0000
  C   C58       1.0  0.6791298226139588  0.8324166016491787  0.433674213768505  1.0000
  C   C59       1.0  0.17913320053348514  0.3324130505348464  0.06632713714471092  1.0000
  C   C60       1.0  0.33236751173598833  0.1796506871615904  0.9336746640729103  1.0000
  C   C61       1.0  0.9116271161904026  0.5551356629236965  0.5467334918404845  1.0000
  C   C62       1.0  0.5545195087155861  0.9104264787459755  0.4533939443063488  1.0000
  C   C63       1.0  0.054522578389743614  0.4104205517083558  0.0466060556936512  1.0000
  C   C64       1.0  0.4116230346023357  0.0551285479244399  0.9532674087683263  1.0000
  C   C65       1.0  0.9982422147205771  0.48141670327513714  0.5881484383443194  1.0000
  C   C66       1.0  0.4802371893012989  0.9971548063279984  0.4121037321229153  1.0000
  C   C67       1.0  0.9802367648585815  0.49715125521366593  0.0878949169638688  1.0000
  C   C68       1.0  0.49824389268436425  0.9814119386579848  0.9118515616556806  1.0000
  N   N1        1.0  0.010231207278557997  0.5263180894299495  0.6465632767750975  1.0000
  N   N2        1.0  0.5243574025509902  0.0101119294904279  0.35367358334234217  1.0000
  N   N3        1.0  0.024362337630726916  0.5101142926431239  0.1463259663532526  1.0000
  N   N4        1.0  0.5102296166459156  0.026314538315610005  0.8534362729204972  1.0000
  N   N5        1.0  0.7429538547840338  0.7662376345377169  0.5276973233906119  1.0000
  N   N6        1.0  0.766998202307363  0.7439799852270212  0.47223963399257946  1.0000
  N   N7        1.0  0.2669987854789966  0.2439728702277577  0.027761716920636604  1.0000
  N   N8        1.0  0.242955912390947  0.2662328954617409  0.9723035772181987  1.0000
  O   O1        1.0  0.2034952998376269  0.0781928231895535  0.7207603840195986  1.0000
  O   O2        1.0  0.07662453420870462  0.2009104486936266  0.2794872834035829  1.0000
  O   O3        1.0  0.5766332137649286  0.7009080599997617  0.2205140675096331  1.0000
  O   O4        1.0  0.7035093274358104  0.5782046900353777  0.7792288086746666  1.0000
  O   O5        1.0  0.34515458182397657  0.4875988556562731  0.7365120321337245  1.0000
  O   O6        1.0  0.48842230176137497  0.3471307073084447  0.26446963147087393  1.0000
  O   O7        1.0  0.9884266248032746  0.84713069453786  0.2355290176159102  1.0000
  O   O8        1.0  0.8451523700943753  0.9876024067706056  0.7634870672574651  1.0000
  O   O9        1.0  0.2039376263086439  0.2457120460705653  0.6416603624049841  1.0000
  O   O10       1.0  0.2435111331315198  0.2044173114586343  0.3584125869087487  1.0000
  O   O11       1.0  0.7435204291784743  0.7044196746113303  0.1415856118736301  1.0000
  O   O12       1.0  0.7039424990497309  0.7457072814534129  0.8583378363773875  1.0000
  O   O13       1.0  0.46244359308344235  0.7884881560785644  0.739697935804607  1.0000
  O   O14       1.0  0.7884669738641179  0.4617773214217849  0.2600953744731456  1.0000
  O   O15       1.0  0.2884710509992914  0.9617820604977609  0.2399041752224491  1.0000
  O   O16       1.0  0.962450319902949  0.2884857929258758  0.7603043157174271  1.0000
  O   O17       1.0  0.5423654585086268  0.033597931138189104  0.7068702943189606  1.0000
  O   O18       1.0  0.031589168085112404  0.542734531350554  0.2926010483086543  1.0000
  O   O19       1.0  0.5315969069718562  0.0427309802362217  0.2073989516913457  1.0000
  O   O20       1.0  0.0423721762690121  0.5336050461374526  0.7931265535502021  1.0000
