data_image0
_chemical_formula_structural       Cu10H40C32N12O36
_chemical_formula_sum              "Cu10 H40 C32 N12 O36"
_cell_length_a       10.644846696672499
_cell_length_b       12.018694058378047
_cell_length_c       11.978904429129763
_cell_angle_alpha    90.01043976664921
_cell_angle_beta     104.46879819940827
_cell_angle_gamma    90.04197842333855

_space_group_name_H-M_alt    "P 1"
_space_group_IT_number       1

loop_
  _space_group_symop_operation_xyz
  'x, y, z'

loop_
  _atom_site_type_symbol
  _atom_site_label
  _atom_site_symmetry_multiplicity
  _atom_site_fract_x
  _atom_site_fract_y
  _atom_site_fract_z
  _atom_site_occupancy
  Cu  Cu1       1.0  0.5000229269957117  0.5001284762023133  0.4999999031480796  1.0000
  Cu  Cu2       1.0  0.999997953959202  0.0001239758057352  2.9469446936023088e-05  1.0000
  Cu  Cu3       1.0  0.7071025563544779  0.6923748329653137  0.11531096969154919  1.0000
  Cu  Cu4       1.0  0.7930763521983837  0.19245441796721252  0.3846082788655352  1.0000
  Cu  Cu5       1.0  0.29307794237778506  0.3075709592802768  0.8844460525078262  1.0000
  Cu  Cu6       1.0  0.20675337510475333  0.8075104313259658  0.615526641974455  1.0000
  Cu  Cu7       1.0  0.8789131565279079  0.8365254716304165  0.5190328395861529  1.0000
  Cu  Cu8       1.0  0.6210387540975474  0.336589741504298  0.9811456687897219  1.0000
  Cu  Cu9       1.0  0.12096374453908249  0.1634967887006695  0.48093820188922354  1.0000
  Cu  Cu10      1.0  0.37911538084051  0.6634276289623456  0.018959398752052405  1.0000
  H   H1        1.0  0.794081117931647  0.5916200341020428  0.6000665463873673  1.0000
  H   H2        1.0  0.7058099694159238  0.0916556689713346  0.8996775888057015  1.0000
  H   H3        1.0  0.20610994002628052  0.4082151291103742  0.40000421815015835  1.0000
  H   H4        1.0  0.2939030939409903  0.9081826487322857  0.10019321271959572  1.0000
  H   H5        1.0  0.9150047201607379  0.6499242026579992  0.6798886641370956  1.0000
  H   H6        1.0  0.5847497936072442  0.14977178939876976  0.8200857648223732  1.0000
  H   H7        1.0  0.08480323833015999  0.35026197548819493  0.3204008376478598  1.0000
  H   H8        1.0  0.4153163163564458  0.8504036059567072  0.17964977418551342  1.0000
  H   H9        1.0  0.3861639912205419  0.2514649664459796  0.42190759020465407  1.0000
  H   H10       1.0  0.1139812499167121  0.7516933000184238  0.0782411508518948  1.0000
  H   H11       1.0  0.6138037338410101  0.7484491427094968  0.5778884854371782  1.0000
  H   H12       1.0  0.8860725766037446  0.24824084136958646  0.9219440729116071  1.0000
  H   H13       1.0  0.5179392791015758  0.2991871413258593  0.4062622279374041  1.0000
  H   H14       1.0  0.982133380637798  0.7992460100793222  0.09377433558597673  1.0000
  H   H15       1.0  0.48192465188865447  0.7008975013228774  0.5935297639501727  1.0000
  H   H16       1.0  0.017969233770379796  0.20085205397710126  0.9063609141483298  1.0000
  H   H17       1.0  0.6755792480552926  0.4571083667170939  0.7548669757530958  1.0000
  H   H18       1.0  0.8250583037585101  0.9569991894322456  0.7456007353105248  1.0000
  H   H19       1.0  0.32451345320671265  0.5429813792239386  0.24532865825224084  1.0000
  H   H20       1.0  0.17494290062754203  0.0430946667237251  0.2543723372515103  1.0000
  H   H21       1.0  0.27642319123408743  0.4028804255155549  0.6189681334692594  1.0000
  H   H22       1.0  0.22424170317726322  0.902912498610661  0.881116236227804  1.0000
  H   H23       1.0  0.7238363143447513  0.5969439034964239  0.38066219204736024  1.0000
  H   H24       1.0  0.7755707197463123  0.09692589565495519  0.11924185547947272  1.0000
  H   H25       1.0  0.9661154252563904  0.6044405124820216  0.061835300829557086  1.0000
  H   H26       1.0  0.5342343382393083  0.10453776008052533  0.43845203425859575  1.0000
  H   H27       1.0  0.0339828642287188  0.39556434629743353  0.9381269999522032  1.0000
  H   H28       1.0  0.4656712610118562  0.8955178032561976  0.5616531774338043  1.0000
  H   H29       1.0  0.09728913467851899  0.7944579236771077  0.3441681376439973  1.0000
  H   H30       1.0  0.40317154149826007  0.2944510457684474  0.1561125812095696  1.0000
  H   H31       1.0  0.9030716601309121  0.20537313924073436  0.655954085847135  1.0000
  H   H32       1.0  0.5963861839942838  0.7053639238440182  0.8437525661806333  1.0000
  H   H33       1.0  0.049723442841155895  0.5737781220685035  0.4570693054194308  1.0000
  H   H34       1.0  0.45011155232755584  0.07400275325284159  0.042561140834713726  1.0000
  H   H35       1.0  0.9504976577786409  0.426460648851645  0.54366105646438  1.0000
  H   H36       1.0  0.5496391871023292  0.9262457017285042  0.9565459612702937  1.0000
  H   H37       1.0  0.0865322953351821  0.5850968396497294  0.3216725294062428  1.0000
  H   H38       1.0  0.4137986990894048  0.08512925872284433  0.17823908056906385  1.0000
  H   H39       1.0  0.9132931987034213  0.41452856889558387  0.6788128631081632  1.0000
  H   H40       1.0  0.5863612912911762  0.9144395858294769  0.821207765527994  1.0000
  C   C1        1.0  0.9035927728446608  0.7379832186072334  0.3214436101366187  1.0000
  C   C2        1.0  0.5967856682524301  0.23790259719206117  0.17858792112012617  1.0000
  C   C3        1.0  0.0965135521391574  0.2620399404937642  0.6784403548919968  1.0000
  C   C4        1.0  0.40307225129758006  0.7621304882182186  0.8215458212252003  1.0000
  C   C5        1.0  0.24463056005542677  0.6206694594358453  0.46669523168170457  1.0000
  C   C6        1.0  0.2553677778280132  0.12077145411679169  0.03349541157243861  1.0000
  C   C7        1.0  0.7553637614711876  0.3795184182613268  0.5333172097168841  1.0000
  C   C8        1.0  0.744593847162335  0.8793681455537621  0.9664153528798992  1.0000
  C   C9        1.0  0.5753401884363142  0.4339709003252139  0.7455448254796481  1.0000
  C   C10       1.0  0.9252188975685343  0.933861202946474  0.7547792124255394  1.0000
  C   C11       1.0  0.42472181689665683  0.5661521073231981  0.2545429096021081  1.0000
  C   C12       1.0  0.0748015733848177  0.06625263278026951  0.2452424315176742  1.0000
  C   C13       1.0  0.37208298236530624  0.40711194793885147  0.6770191336223804  1.0000
  C   C14       1.0  0.1284492982769265  0.9071519218549396  0.8232616289074172  1.0000
  C   C15       1.0  0.6280527133259143  0.5929103820030761  0.3227912832445341  1.0000
  C   C16       1.0  0.8715054783997614  0.09285457594045  0.1769389329146235  1.0000
  C   C17       1.0  0.8216426228175636  0.47393993124246236  0.005434278752297047  1.0000
  C   C18       1.0  0.6782965545550964  0.9738764211473593  0.4945738101821604  1.0000
  C   C19       1.0  0.17861687658798078  0.525931019211086  0.9944974139315547  1.0000
  C   C20       1.0  0.32146434930255907  0.0259918851544754  0.5055139299219604  1.0000
  C   C21       1.0  0.9523118397375041  0.5237977287378469  0.018858310362077094  1.0000
  C   C22       1.0  0.5477592817712492  0.0238093083721722  0.4811949634409841  1.0000
  C   C23       1.0  0.04790013943861741  0.4762263015781586  0.9810785901024914  1.0000
  C   C24       1.0  0.45206280793031794  0.9762254269071204  0.5189107006816869  1.0000
  C   C25       1.0  0.0442691335248142  0.7416665008686252  0.3931120179457537  1.0000
  C   C26       1.0  0.4560765876637091  0.2417376027918507  0.10703402913890156  1.0000
  C   C27       1.0  0.9557909185896208  0.2583225467461787  0.6069602401074051  1.0000
  C   C28       1.0  0.5438285082748563  0.7582106133960591  0.8929149514789643  1.0000
  C   C29       1.0  0.10162863543408211  0.6246952829519543  0.40645750650048024  1.0000
  C   C30       1.0  0.398444270498544  0.12477978158585049  0.09346092399887598  1.0000
  C   C31       1.0  0.8983714462505858  0.37525632339962567  0.5938341964295047  1.0000
  C   C32       1.0  0.6015570147019672  0.8751076979135205  0.9061657042976349  1.0000
  N   N1        1.0  0.400942229790914  0.3704191816599901  0.7852275556475163  1.0000
  N   N2        1.0  0.099312557871599  0.870601179730812  0.7149066661320802  1.0000
  N   N3        1.0  0.5990565898318038  0.6295573405068922  0.21456966209274234  1.0000
  N   N4        1.0  0.9007605230325595  0.12934462107880046  0.28532962993931926  1.0000
  N   N5        1.0  0.47901830965802367  0.4472233934925142  0.6486385739211897  1.0000
  N   N6        1.0  0.0216481322863018  0.9470891680464817  0.8517613427210762  1.0000
  N   N7        1.0  0.5211624778502255  0.5528913232519983  0.3513480995292397  1.0000
  N   N8        1.0  0.9782925304127232  0.053022150874923596  0.1483183528615584  1.0000
  N   N9        1.0  0.5301461643827353  0.3876616772834893  0.8283718359603113  1.0000
  N   N10       1.0  0.9701565587752726  0.8877218406861545  0.6717994877901532  1.0000
  N   N11       1.0  0.46980160051516157  0.6123930563155682  0.1716076026905284  1.0000
  N   N12       1.0  0.029936432885833097  0.1123029976600591  0.3282993682478264  1.0000
  O   O1        1.0  0.867168435988731  0.6420685747501266  0.5998400613496528  1.0000
  O   O2        1.0  0.6327264407316449  0.14195687063168796  0.9000985119449892  1.0000
  O   O3        1.0  0.13304837208747236  0.35779656328506354  0.4003750637794568  1.0000
  O   O4        1.0  0.3669567331475179  0.8578897521094007  0.09971048367070519  1.0000
  O   O5        1.0  0.8000132195707721  0.3731164894141017  0.9664634099178854  1.0000
  O   O6        1.0  0.6997270217284352  0.8730598230669457  0.5334896872533931  1.0000
  O   O7        1.0  0.20032353501722605  0.6267120631698899  0.033588302074441884  1.0000
  O   O8        1.0  0.299998500755251  0.12673440460834232  0.4664239777161542  1.0000
  O   O9        1.0  0.8781005989097609  0.6822208619196671  0.22889979806699765  1.0000
  O   O10       1.0  0.6223504775329401  0.1819231923115936  0.27093342321032304  1.0000
  O   O11       1.0  0.1221748677367316  0.3178847193829242  0.7709344888012523  1.0000
  O   O12       1.0  0.37739863891461317  0.8181314926210705  0.7292218112466458  1.0000
  O   O13       1.0  0.8183771172464561  0.7911343833147129  0.3587703697803378  1.0000
  O   O14       1.0  0.6820395724281171  0.29114154580009455  0.1412292641780937  1.0000
  O   O15       1.0  0.18159328996943458  0.2087406267778746  0.6410897495455216  1.0000
  O   O16       1.0  0.31796964013564377  0.7087235197860617  0.8589317467547204  1.0000
  O   O17       1.0  0.3062421148651282  0.5353928872796345  0.4448402029923386  1.0000
  O   O18       1.0  0.19374265025176376  0.0355120288080002  0.055576595060749384  1.0000
  O   O19       1.0  0.6939353042402984  0.4649839093423935  0.5550280305780716  1.0000
  O   O20       1.0  0.8060707307574404  0.9648322246452352  0.9445638734700026  1.0000
  O   O21       1.0  0.298509496763991  0.6978771171161284  0.5349491974225273  1.0000
  O   O22       1.0  0.20152317124276214  0.19790847201147696  0.9652884868698237  1.0000
  O   O23       1.0  0.7012664538837186  0.3023913958834115  0.4650492932345855  1.0000
  O   O24       1.0  0.7986346965813027  0.8022769508798931  0.03459287144989525  1.0000
  O   O25       1.0  0.045422561624519596  0.7900479605045091  0.500712771216719  1.0000
  O   O26       1.0  0.4547985387339608  0.2903351301444346  0.9994978929709077  1.0000
  O   O27       1.0  0.9543533384180379  0.21001170984414588  0.4992714975534867  1.0000
  O   O28       1.0  0.5453850903417035  0.7097088654029946  0.0005002644242252648  1.0000
  O   O29       1.0  0.7338266554031279  0.5310064204131492  0.031075612915316114  1.0000
  O   O30       1.0  0.7662075097049482  0.030975711618729897  0.46897567154474723  1.0000
  O   O31       1.0  0.26633127132389933  0.46884950991951513  0.9687414489508938  1.0000
  O   O32       1.0  0.2335918169934743  0.9689450375279947  0.5312442494696866  1.0000
  O   O33       1.0  0.42468632606671264  0.31550746910624383  0.3912582637616993  1.0000
  O   O34       1.0  0.0754024546597947  0.8156721829295748  0.10885095990182948  1.0000
  O   O35       1.0  0.575111158706413  0.6843741172690374  0.6083401458603959  1.0000
  O   O36       1.0  0.9247759010307347  0.18419628686161357  0.8915416951068805  1.0000
