data_image0
_chemical_formula_structural       Cu2H24C12Br4N16
_chemical_formula_sum              "Cu2 H24 C12 Br4 N16"
_cell_length_a       6.91140265513156
_cell_length_b       7.600797297572844
_cell_length_c       12.310039576607092
_cell_angle_alpha    102.13394470356687
_cell_angle_beta     89.9993004774885
_cell_angle_gamma    89.99992554756778

_space_group_name_H-M_alt    "P 1"
_space_group_IT_number       1

loop_
  _space_group_symop_operation_xyz
  'x, y, z'

loop_
  _atom_site_type_symbol
  _atom_site_label
  _atom_site_symmetry_multiplicity
  _atom_site_fract_x
  _atom_site_fract_y
  _atom_site_fract_z
  _atom_site_occupancy
  Cu  Cu1       1.0  6.453851114e-06  8.38522517199613e-07  0.9999976952598858  1.0000
  Cu  Cu2       1.0  0.4999923733862062  0.500013827349882  0.999999114584071  1.0000
  H   H1        1.0  0.541053880420364  0.986315499326494  0.6228828199946363  1.0000
  H   H2        1.0  0.04097654661417491  0.5136980207808575  0.3771455742283081  1.0000
  H   H3        1.0  0.4589678189699953  0.013685629019427398  0.37712729144890744  1.0000
  H   H4        1.0  0.9589843836264296  0.4863004012851063  0.6228658018278992  1.0000
  H   H5        1.0  0.6624781741756891  0.9239572208555912  0.7364256372202007  1.0000
  H   H6        1.0  0.16245084888500835  0.5760090130433397  0.2635907582811612  1.0000
  H   H7        1.0  0.33753339712421143  0.07602375196110961  0.26357854135148534  1.0000
  H   H8        1.0  0.8375317847063715  0.42396789282063446  0.736416128351884  1.0000
  H   H9        1.0  0.7293395609644832  0.7008548165491746  0.5600970392225264  1.0000
  H   H10       1.0  0.22930906249393251  0.7991357215675449  0.4398993897343786  1.0000
  H   H11       1.0  0.270673457309428  0.2991397253230019  0.43989676054329857  1.0000
  H   H12       1.0  0.7706808055901889  0.2008466418060664  0.5601000999023711  1.0000
  H   H13       1.0  0.47885525662243117  0.6571056299571508  0.5390081832890274  1.0000
  H   H14       1.0  0.9788396778233875  0.8429179922883917  0.4609998832282756  1.0000
  H   H15       1.0  0.5211490802543254  0.34290367720669207  0.4609916441225507  1.0000
  H   H16       1.0  0.021155977716496504  0.15708993929442266  0.5390030105005934  1.0000
  H   H17       1.0  0.5979051819855528  0.5976125180301607  0.6549609293933614  1.0000
  H   H18       1.0  0.09789809863962519  0.9023863375200134  0.3450383163287967  1.0000
  H   H19       1.0  0.4020904736941517  0.40237933994100666  0.3450317007436823  1.0000
  H   H20       1.0  0.9021047913774896  0.09760410001424447  0.654962248244786  1.0000
  H   H21       1.0  0.43937850684743307  0.0194325857651805  0.9017640438698821  1.0000
  H   H22       1.0  0.939368918587249  0.48058844760059566  0.0982362805311112  1.0000
  H   H23       1.0  0.5606388520453508  0.98057542053143  0.0982307361561965  1.0000
  H   H24       1.0  0.06061805570224981  0.5194438186114567  0.9017576677383234  1.0000
  C   C1        1.0  0.550262930588076  0.8830076703627296  0.6730643363954201  1.0000
  C   C2        1.0  0.05021527147138021  0.6170032902248579  0.3269474069465233  1.0000
  C   C3        1.0  0.4497529813529296  0.11698813499425852  0.3269385675125491  1.0000
  C   C4        1.0  0.9497659152022068  0.38299247779801243  0.6730595538973533  1.0000
  C   C5        1.0  0.5903022031103405  0.6975802711916258  0.6025857090653872  1.0000
  C   C6        1.0  0.09028274832666482  0.8024360480766076  0.3974207878318623  1.0000
  C   C7        1.0  0.40970213383150883  0.3024169471329613  0.3974100717840017  1.0000
  C   C8        1.0  0.9097114603503516  0.1975651550300341  0.6025812100830308  1.0000
  C   C9        1.0  0.33233125167711824  0.9559875548179165  0.8416461615561275  1.0000
  C   C10       1.0  0.8323117365821844  0.5440283923783085  0.1583488855217254  1.0000
  C   C11       1.0  0.6676788728378185  0.0440150911238888  0.1583454677524827  1.0000
  C   C12       1.0  0.1676795783808558  0.4559890487586244  0.8416455260180983  1.0000
  Br  Br1       1.0  0.21216447795996632  0.8009461022629476  0.08318323870491179  1.0000
  Br  Br2       1.0  0.7121683904982135  0.6990538884568875  0.9168145658696288  1.0000
  Br  Br3       1.0  0.7878499871768128  0.19905516808540813  0.9168114568749033  1.0000
  Br  Br4       1.0  0.2878562027534101  0.30094596892524805  0.0831872527738824  1.0000
  N   N1        1.0  0.144539994438162  0.9338695276077047  0.8583415998228858  1.0000
  N   N2        1.0  0.6445395767684517  0.566122779530822  0.14162721084734636  1.0000
  N   N3        1.0  0.8554686833237143  0.0661197361148567  0.14164012422666164  1.0000
  N   N4        1.0  0.35545463212629613  0.4338907515654569  0.8583528700266285  1.0000
  N   N5        1.0  0.0660347212555621  0.8507216478473009  0.7595191947769918  1.0000
  N   N6        1.0  0.5660217307379584  0.6492866360667832  0.2404872102810671  1.0000
  N   N7        1.0  0.9339725093217909  0.1492700606438362  0.24048966257102225  1.0000
  N   N8        1.0  0.43397103101136036  0.3507226262674051  0.759517485347061  1.0000
  N   N9        1.0  0.2000720635728115  0.8222414131194496  0.6838844537757609  1.0000
  N   N10       1.0  0.7000385146638664  0.6777679308937506  0.3161244270387371  1.0000
  N   N11       1.0  0.7999409545811177  0.17774628069998497  0.31612143197250486  1.0000
  N   N12       1.0  0.2999412251256857  0.32223053599496854  0.6838820807753053  1.0000
  N   N13       1.0  0.36751353495948547  0.8880753914445234  0.734042598029724  1.0000
  N   N14       1.0  0.8674653927177544  0.6119456920759988  0.2659723894306509  1.0000
  N   N15       1.0  0.6325096113724841  0.11192443604520007  0.265962466069297  1.0000
  N   N16       1.0  0.1325085594694997  0.38806486365750464  0.7340381649660657  1.0000
