data_image0
_chemical_formula_structural       Cu2Hg2H22C30N6Cl8
_chemical_formula_sum              "Cu2 Hg2 H22 C30 N6 Cl8"
_cell_length_a       7.2724749091567515
_cell_length_b       9.082500657049861
_cell_length_c       13.311955174100088
_cell_angle_alpha    84.29357109026968
_cell_angle_beta     82.82123818327256
_cell_angle_gamma    86.25617829814944

_space_group_name_H-M_alt    "P 1"
_space_group_IT_number       1

loop_
  _space_group_symop_operation_xyz
  'x, y, z'

loop_
  _atom_site_type_symbol
  _atom_site_label
  _atom_site_symmetry_multiplicity
  _atom_site_fract_x
  _atom_site_fract_y
  _atom_site_fract_z
  _atom_site_occupancy
  Cu  Cu1       1.0  0.6108660370664651  0.23541392285559234  0.20814422835127286  1.0000
  Cu  Cu2       1.0  0.389133689791933  0.7645859470219564  0.7918539029806906  1.0000
  Hg  Hg1       1.0  0.06256029528346121  0.11103778514682722  0.3311909003654847  1.0000
  Hg  Hg2       1.0  0.9374354488670422  0.8889598930085185  0.6688099311448993  1.0000
  H   H1        1.0  0.4894660641148151  0.07485825942208632  0.4175484164314439  1.0000
  H   H2        1.0  0.5105351262015037  0.9251393695276773  0.5824460100590583  1.0000
  H   H3        1.0  0.29308102998475494  0.148614555071731  0.5763019691427471  1.0000
  H   H4        1.0  0.706916348927308  0.8513775454525714  0.42369312721766744  1.0000
  H   H5        1.0  0.18042354634524574  0.4165482849968072  0.5830252253751949  1.0000
  H   H6        1.0  0.8195657240480757  0.5834405152146048  0.41697069777922735  1.0000
  H   H7        1.0  0.27237237479334203  0.5976367897455076  0.4358683371530887  1.0000
  H   H8        1.0  0.7276208623931453  0.4023564599173923  0.5641322397417454  1.0000
  H   H9        1.0  0.4015593089378413  0.746479563397642  0.3021207890872972  1.0000
  H   H10       1.0  0.5984404995936926  0.25351920256060373  0.6978781655701168  1.0000
  H   H11       1.0  0.5279722937769621  0.8719190212096989  0.13694972040065068  1.0000
  H   H12       1.0  0.47202876642220565  0.12808308993818673  0.8630534135476962  1.0000
  H   H13       1.0  0.6940267711163272  0.7241793219160755  0.0007031331173052839  1.0000
  H   H14       1.0  0.3059810360601176  0.2758261018460858  0.9993007752920133  1.0000
  H   H15       1.0  0.8329532886812672  0.5632270251681177  0.8947120140503698  1.0000
  H   H16       1.0  0.16705070709092243  0.43677287016858923  0.10529256422886135  1.0000
  H   H17       1.0  0.9770504976493868  0.3642766252936411  0.7908562533380203  1.0000
  H   H18       1.0  0.022957190996045495  0.6357298899151616  0.20914458160340388  1.0000
  H   H19       1.0  0.9603090877848218  0.0981388331802791  0.8639754066288603  1.0000
  H   H20       1.0  0.03969454443693372  0.9018654653609773  0.13602362820612504  1.0000
  H   H21       1.0  0.8062816627498889  0.04447217173550651  0.042607715987216487  1.0000
  H   H22       1.0  0.1937177417445639  0.9555332468414619  0.9573915490498306  1.0000
  C   C1        1.0  0.43928201239242537  0.18907985887206996  0.4258941492585463  1.0000
  C   C2        1.0  0.5607136457563442  0.8109177901803832  0.5741014319194875  1.0000
  C   C3        1.0  0.3305880361432898  0.23133156997867127  0.5133142513423578  1.0000
  C   C4        1.0  0.669412000793102  0.7686627470419013  0.48668199623704556  1.0000
  C   C5        1.0  0.2687450316194458  0.37929323493343503  0.5170367545293287  1.0000
  C   C6        1.0  0.7312468396969933  0.6206988940086619  0.48296099661357755  1.0000
  C   C7        1.0  0.3198085342084838  0.4814136015827087  0.4346497006320148  1.0000
  C   C8        1.0  0.6801860074182429  0.518580748013214  0.5653499517773568  1.0000
  C   C9        1.0  0.4294699609620381  0.4320172425628073  0.3497599808942695  1.0000
  C   C10       1.0  0.5705299415286046  0.567980423633685  0.6502405471360787  1.0000
  C   C11       1.0  0.492612102761278  0.5270057086602193  0.2576455937933275  1.0000
  C   C12       1.0  0.5073863890440649  0.4729919532074404  0.7423535353020723  1.0000
  C   C13       1.0  0.47326251035832473  0.6814674835870919  0.24300666798050224  1.0000
  C   C14       1.0  0.526739968483504  0.31853350302498024  0.7569941879433768  1.0000
  C   C15       1.0  0.5459052937516307  0.751689565260307  0.14973589702582044  1.0000
  C   C16       1.0  0.4540998676864517  0.2483136461631475  0.8502676102119934  1.0000
  C   C17       1.0  0.6386011177169096  0.6692515260134401  0.07391210179866187  1.0000
  C   C18       1.0  0.3614040560071388  0.3307516895675633  0.9260921554866284  1.0000
  C   C19       1.0  0.6539571379163434  0.5150711169013746  0.09330980743949621  1.0000
  C   C20       1.0  0.3460507017893947  0.4849331863112666  0.9066919241053667  1.0000
  C   C21       1.0  0.7461368312234099  0.40871420714603346  0.024344643803047492  1.0000
  C   C22       1.0  0.2538680403800059  0.5912934324273068  0.975657820275394  1.0000
  C   C23       1.0  0.8311382229459737  0.44759244545026894  0.9261254326587005  1.0000
  C   C24       1.0  0.16886969843289992  0.5524107538430699  0.07387712221161279  1.0000
  C   C25       1.0  0.911234075687567  0.33556405272083384  0.8678542059166359  1.0000
  C   C26       1.0  0.08877102432070672  0.66443913791484  0.1321455510837808  1.0000
  C   C27       1.0  0.902772922918885  0.18829290473213686  0.9082887982559311  1.0000
  C   C28       1.0  0.09722656324870367  0.8117114099255289  0.0917112901065664  1.0000
  C   C29       1.0  0.8170056305709252  0.1573548848994264  0.007008491635673407  1.0000
  C   C30       1.0  0.1829949070601273  0.8426549703138236  0.9929918792244121  1.0000
  N   N1        1.0  0.4858957139255581  0.28661988785793824  0.34616395825274526  1.0000
  N   N2        1.0  0.5141041394212279  0.7133777617083298  0.6538335695876896  1.0000
  N   N3        1.0  0.5795665614980906  0.44989145861543983  0.1827572356649654  1.0000
  N   N4        1.0  0.42043457604561507  0.5501084155909338  0.8172422946019395  1.0000
  N   N5        1.0  0.742243866033988  0.2645987503621683  0.06387844895593986  1.0000
  N   N6        1.0  0.2577582456286364  0.7354089013413017  0.9361249674900022  1.0000
  Cl  Cl1       1.0  0.7543159139350735  0.013103451895951  0.2546409547368711  1.0000
  Cl  Cl2       1.0  0.24568103273920627  0.9868975548188108  0.7453610558745322  1.0000
  Cl  Cl3       1.0  0.3178193762746062  0.12734419683771853  0.1615339088945191  1.0000
  Cl  Cl4       1.0  0.6821832290556175  0.872654569463073  0.8384663435378242  1.0000
  Cl  Cl5       1.0  0.956948493818274  0.36760977739716344  0.31200538269683153  1.0000
  Cl  Cl6       1.0  0.043050042802313726  0.6323867680785253  0.6879923195815891  1.0000
  Cl  Cl7       1.0  0.15497210298990885  0.8789132603626585  0.4188118937830224  1.0000
  Cl  Cl8       1.0  0.8450277626428503  0.12108439336116561  0.5811863841048889  1.0000
