data_image0
_chemical_formula_structural       Zn2H36C54N8O10
_chemical_formula_sum              "Zn2 H36 C54 N8 O10"
_cell_length_a       8.802319782600318
_cell_length_b       10.946577127669729
_cell_length_c       14.466126996576682
_cell_angle_alpha    110.66943521794606
_cell_angle_beta     98.32563278048362
_cell_angle_gamma    98.89554796005581

_space_group_name_H-M_alt    "P 1"
_space_group_IT_number       1

loop_
  _space_group_symop_operation_xyz
  'x, y, z'

loop_
  _atom_site_type_symbol
  _atom_site_label
  _atom_site_symmetry_multiplicity
  _atom_site_fract_x
  _atom_site_fract_y
  _atom_site_fract_z
  _atom_site_occupancy
  Zn  Zn1       1.0  0.13386497921502638  0.7822464946518577  0.37669326042956897  1.0000
  Zn  Zn2       1.0  0.8661360442369385  0.21775376350424844  0.6233066226295493  1.0000
  H   H1        1.0  0.38782520852915775  0.465790404738719  0.2811337070137441  1.0000
  H   H2        1.0  0.6121720920521695  0.5342037992075459  0.718865609051285  1.0000
  H   H3        1.0  0.554364907544013  0.3211109584336711  0.1862187505322623  1.0000
  H   H4        1.0  0.4456265857505031  0.6788781739987613  0.8137794292410803  1.0000
  H   H5        1.0  0.3014375409701132  0.32037046278376374  0.9075460202206075  1.0000
  H   H6        1.0  0.6985624422646238  0.6796297441357878  0.09245653960276458  1.0000
  H   H7        1.0  0.1431861812628412  0.4697038447323009  0.0025128126001092714  1.0000
  H   H8        1.0  0.8568169218196002  0.530300451127445  0.99748695879385  1.0000
  H   H9        1.0  0.16684310938029517  0.864378333326684  0.755027258101741  1.0000
  H   H10       1.0  0.8331542141874452  0.13562088169792466  0.2449720679585141  1.0000
  H   H11       1.0  0.2848585842940778  0.0379734783428063  0.9291921665255884  1.0000
  H   H12       1.0  0.7151381354467361  0.9620277066426864  0.0708090459745136  1.0000
  H   H13       1.0  0.6495197142771829  0.20814315155496385  0.8124692219284526  1.0000
  H   H14       1.0  0.3504759105061765  0.7918540656060458  0.18752804355658276  1.0000
  H   H15       1.0  0.5172444852170628  0.04478558981033128  0.6367212874403236  1.0000
  H   H16       1.0  0.4827525368392075  0.9552126425794539  0.36327636090818055  1.0000
  H   H17       1.0  0.02531916207473733  0.7884358504439674  0.16123307858409672  1.0000
  H   H18       1.0  0.9746836768397245  0.21155741266037603  0.8387670679815996  1.0000
  H   H19       1.0  0.2476330823294788  0.10740100307100418  0.4365539042140227  1.0000
  H   H20       1.0  0.752362347245139  0.8926002145696259  0.5634437664284491  1.0000
  H   H21       1.0  0.2115745295119495  0.2093344284355823  0.2849743802208451  1.0000
  H   H22       1.0  0.7884202740533155  0.7906598128570651  0.7150199250028848  1.0000
  H   H23       1.0  0.06763223915784522  0.7955469397286591  0.016681731322464092  1.0000
  H   H24       1.0  0.9323674203829952  0.20444333824720223  0.9833138989305682  1.0000
  H   H25       1.0  0.032864786379661816  0.20876461832637014  0.1514916800397472  1.0000
  H   H26       1.0  0.9671371202282799  0.7912257061948081  0.848502742432693  1.0000
  H   H27       1.0  0.5235205670676351  0.7146163863206211  0.3381309941330883  1.0000
  H   H28       1.0  0.4764794669256176  0.2853888223559692  0.6618722666435062  1.0000
  H   H29       1.0  0.7956771900338212  0.8293873943646871  0.29393413697843584  1.0000
  H   H30       1.0  0.20432240837313032  0.17061185788394076  0.7060646722592239  1.0000
  H   H31       1.0  0.922773372688262  0.6180451250860131  0.4756508106663162  1.0000
  H   H32       1.0  0.07722824900096012  0.38196211873938063  0.5243517468535543  1.0000
  H   H33       1.0  0.4401577826881891  0.7091249392416401  0.4869788392292875  1.0000
  H   H34       1.0  0.55984704614675  0.29088528039093825  0.5130289255612368  1.0000
  H   H35       1.0  0.7277009502825039  0.41434664637584  0.4382415074350092  1.0000
  H   H36       1.0  0.2723052758253529  0.5856645884855138  0.561766640218991  1.0000
  C   C1        1.0  0.1702454338656736  0.5769116606752646  0.20606026400737673  1.0000
  C   C2        1.0  0.8297597814050378  0.42309164316718295  0.7939407676421624  1.0000
  C   C3        1.0  0.257659730200757  0.4781593303905039  0.14813554441732174  1.0000
  C   C4        1.0  0.7423428293846612  0.5218418963878831  0.8518681762952128  1.0000
  C   C5        1.0  0.3711713841773161  0.43362495846196214  0.19931471814052054  1.0000
  C   C6        1.0  0.6288279960344809  0.5663732831879428  0.8006844862593425  1.0000
  C   C7        1.0  0.46266509181057813  0.3528239815516159  0.14677923862358003  1.0000
  C   C8        1.0  0.5373346740329981  0.6471712795386891  0.8532184744986538  1.0000
  C   C9        1.0  0.4382481395516394  0.3117944224659012  0.04120842315287379  1.0000
  C   C10       1.0  0.5617500052341882  0.6882077684270698  0.9587938631686868  1.0000
  C   C11       1.0  0.5453845878277619  0.2359295923183636  0.9852963432118642  1.0000
  C   C12       1.0  0.4546158603733802  0.7640686912467984  0.014700875381727504  1.0000
  C   C13       1.0  0.31993110890623916  0.3513869057451585  0.9894859525248094  1.0000
  C   C14       1.0  0.6800687632400724  0.6486133384595901  0.010513843466611663  1.0000
  C   C15       1.0  0.23135127519447005  0.435570383952303  0.04257318404779651  1.0000
  C   C16       1.0  0.7686529284351096  0.5644289241017617  0.95742597346063  1.0000
  C   C17       1.0  0.2484525265987401  0.851382918982928  0.5817707900153478  1.0000
  C   C18       1.0  0.7515448525132129  0.14861627739908556  0.4182299179608862  1.0000
  C   C19       1.0  0.33409066635439183  0.9460175704106745  0.6862480661494885  1.0000
  C   C20       1.0  0.6659032310684837  0.0539815934385572  0.3137516896656791  1.0000
  C   C21       1.0  0.2709789661147682  0.9418603761758318  0.7688995551331176  1.0000
  C   C22       1.0  0.7290183852250821  0.05813882952747921  0.2311004618851271  1.0000
  C   C23       1.0  0.3375152908076445  0.03790872203438771  0.8654316902851562  1.0000
  C   C24       1.0  0.6624831840657492  0.9620905069415786  0.13456772284278895  1.0000
  C   C25       1.0  0.47421779078419496  0.13412898447676716  0.8810789904233758  1.0000
  C   C26       1.0  0.5257806007728832  0.8658702724630983  0.11891834983061503  1.0000
  C   C27       1.0  0.5430534986594538  0.13336342499400897  0.7993780405594535  1.0000
  C   C28       1.0  0.4569408906979292  0.8666377414100667  0.20062230684727927  1.0000
  C   C29       1.0  0.4709077858319263  0.04192309966390439  0.7019810495024927  1.0000
  C   C30       1.0  0.529085479991906  0.9580780434675162  0.29801990179453247  1.0000
  C   C31       1.0  0.0794375957911058  0.889249706782152  0.21522902850648507  1.0000
  C   C32       1.0  0.9205624160197275  0.11074655558557112  0.7847689804115205  1.0000
  C   C33       1.0  0.19467107120138388  0.05773982917789768  0.3565351184977885  1.0000
  C   C34       1.0  0.8053259230827764  0.942258412533185  0.6434618388927261  1.0000
  C   C35       1.0  0.1767470997737561  0.1088799326613952  0.2826661925733518  1.0000
  C   C36       1.0  0.8232488550971623  0.8911143225826094  0.717328199718068  1.0000
  C   C37       1.0  0.054686627510463395  0.0018375247586704  0.0955410950985893  1.0000
  C   C38       1.0  0.945316100315566  0.99815577563087  0.9044562876351564  1.0000
  C   C39       1.0  0.03448031810316368  0.8842147204414484  0.010136887724932691  1.0000
  C   C40       1.0  0.9655218066999325  0.11577661467844538  0.989857139585304  1.0000
  C   C41       1.0  0.020842985392043496  0.11764637380600357  0.08541920968750819  1.0000
  C   C42       1.0  0.979161005632065  0.8823429680191666  0.9145757820825294  1.0000
  C   C43       1.0  0.6463550743880121  0.7133152546851562  0.35925393412748013  1.0000
  C   C44       1.0  0.35364649175699014  0.2866920077828324  0.6407472414764186  1.0000
  C   C45       1.0  0.7809791120307708  0.76703006723573  0.3371964316603098  1.0000
  C   C46       1.0  0.21902100608279804  0.23297117824643712  0.6628036601268974  1.0000
  C   C47       1.0  0.8516621083176757  0.6554241943205239  0.4287788941397252  1.0000
  C   C48       1.0  0.1483416255598158  0.34458205748757104  0.5712249236357252  1.0000
  C   C49       1.0  0.46597173368785866  0.6175462409250584  0.4924576375236924  1.0000
  C   C50       1.0  0.5340307647636636  0.38246396012609557  0.5075492621734625  1.0000
  C   C51       1.0  0.5948699919285332  0.5703614155619048  0.45900246468780637  1.0000
  C   C52       1.0  0.40513382526527414  0.4296448082822835  0.5410034259616054  1.0000
  C   C53       1.0  0.629360357587487  0.4532405240556939  0.4661713146443986  1.0000
  C   C54       1.0  0.3706460033992016  0.5467717493682756  0.5338343649734227  1.0000
  N   N1        1.0  0.13391041811810572  0.9210072450372238  0.3132971218446841  1.0000
  N   N2        1.0  0.866088056755288  0.0789919839387423  0.6867022912832681  1.0000
  N   N3        1.0  0.10385803859306009  0.0007078831890297001  0.1931680973355938  1.0000
  N   N4        1.0  0.8961426048168094  0.999286399896512  0.8068287161005615  1.0000
  N   N5        1.0  0.9074968032823989  0.7306986348525867  0.3812954031440867  1.0000
  N   N6        1.0  0.09250076625259852  0.2693015814494473  0.6187042187119544  1.0000
  N   N7        1.0  0.6931008067034271  0.642234664951232  0.4169706644967944  1.0000
  N   N8        1.0  0.30690416179603375  0.3577715728443208  0.5830353132203143  1.0000
  O   O1        1.0  0.23417538158320647  0.639679629280117  0.30244689677248  1.0000
  O   O2        1.0  0.7658265749792648  0.3603196322286236  0.6975534685165385  1.0000
  O   O3        1.0  0.05014306981484405  0.5974632266138826  0.16173613304751916  1.0000
  O   O4        1.0  0.9498673497197317  0.40254318347275847  0.8382626794701906  1.0000
  O   O5        1.0  0.15263411383396172  0.7471809166572709  0.5701947431125375  1.0000
  O   O6        1.0  0.8473641706163875  0.2528172923986744  0.4298057561356075  1.0000
  O   O7        1.0  0.2801673457101971  0.8874449570777757  0.5088269424605159  1.0000
  O   O8        1.0  0.7198311569353065  0.11255426257689288  0.4911731616254258  1.0000
  O   O9        1.0  0.6868935889376574  0.2575124239099438  0.022787302902763384  1.0000
  O   O10       1.0  0.3131055127490825  0.7424898461834883  0.9772102337805747  1.0000
