data_image0
_chemical_formula_structural       Zn6H42C66Br6O24
_chemical_formula_sum              "Zn6 H42 C66 Br6 O24"
_cell_length_a       18.73973387581681
_cell_length_b       18.717043828206958
_cell_length_c       18.673818369888078
_cell_angle_alpha    109.64630442938264
_cell_angle_beta     109.1379268680239
_cell_angle_gamma    109.64152648153126

_space_group_name_H-M_alt    "P 1"
_space_group_IT_number       1

loop_
  _space_group_symop_operation_xyz
  'x, y, z'

loop_
  _atom_site_type_symbol
  _atom_site_label
  _atom_site_symmetry_multiplicity
  _atom_site_fract_x
  _atom_site_fract_y
  _atom_site_fract_z
  _atom_site_occupancy
  Zn  Zn1       1.0  0.05076549959651553  0.4954674038646731  0.057920312078010724  1.0000
  Zn  Zn2       1.0  0.9308017875357918  0.49747565004805966  0.929919056138559  1.0000
  Zn  Zn3       1.0  0.9333426332458926  0.9370982920791566  0.5043125270079332  1.0000
  Zn  Zn4       1.0  0.059879821082184  0.06485628816148652  0.5091383182375112  1.0000
  Zn  Zn5       1.0  0.5027032175972084  0.9346016917300805  0.9393633624696635  1.0000
  Zn  Zn6       1.0  0.4993744843428729  0.05956475563829852  0.06203428519457082  1.0000
  H   H1        1.0  0.8992643214661837  0.20934878218602657  0.6295946743266185  1.0000
  H   H2        1.0  0.3451579666296425  0.9349129543485902  0.15964692042608422  1.0000
  H   H3        1.0  0.2772373000811754  0.7724070305223023  0.18058522536382768  1.0000
  H   H4        1.0  0.21836024819503314  0.8264662997738556  0.15540077260473584  1.0000
  H   H5        1.0  0.9729705599204763  0.5957974416619934  0.26124729803321145  1.0000
  H   H6        1.0  0.9490464188047978  0.6969872167708857  0.3636298173152993  1.0000
  H   H7        1.0  0.10030238169758128  0.8344202501476304  0.17738758249109313  1.0000
  H   H8        1.0  0.68343409789761  0.345653429937137  0.9450725751399389  1.0000
  H   H9        1.0  0.059040774514024036  0.3628405325722356  0.7715300128071763  1.0000
  H   H10       1.0  0.5822011461820651  0.22311192296830748  0.9490517867441074  1.0000
  H   H11       1.0  0.801838987945807  0.09939563730858232  0.9906642326391337  1.0000
  H   H12       1.0  0.8699021778266811  0.18722902822143794  0.8981078335275114  1.0000
  H   H13       1.0  0.9227959974350879  0.0968791863578886  0.28645848312109473  1.0000
  H   H14       1.0  0.6139286408811486  0.0340652937847707  0.32589620672237635  1.0000
  H   H15       1.0  0.5658650314805413  0.9261579625068423  0.23575121021720952  1.0000
  H   H16       1.0  0.13264108412061404  0.25555729837318353  0.7859916011044207  1.0000
  H   H17       1.0  0.30465403823322385  0.12156803064814173  0.9217173603502999  1.0000
  H   H18       1.0  0.3752715601850697  0.9272380910765038  0.7006571262625769  1.0000
  H   H19       1.0  0.28487336895819493  0.8419364672568508  0.6905437980044695  1.0000
  H   H20       1.0  0.9175546277884479  0.0878242206414228  0.7686234081146212  1.0000
  H   H21       1.0  0.8451425090436756  0.1970384210357778  0.7522040607028657  1.0000
  H   H22       1.0  0.11856597567759761  0.5977926104649215  0.8291700107290937  1.0000
  H   H23       1.0  0.24972234233086976  0.6999229806828355  0.8370988765400188  1.0000
  H   H24       1.0  0.405332994275014  0.8828615917311853  0.18721118496268466  1.0000
  H   H25       1.0  0.16161795436956802  0.9566633964440358  0.3291402765736819  1.0000
  H   H26       1.0  0.12199870409149591  0.9990612515760804  0.26195780581799977  1.0000
  H   H27       1.0  0.09976140115308138  0.007086167159627601  0.34954333187517517  1.0000
  H   H28       1.0  0.7857316942932471  0.003920071383099402  0.848182320772928  1.0000
  H   H29       1.0  0.6807687089229192  0.9739581025967115  0.8389899132003438  1.0000
  H   H30       1.0  0.717838137708945  0.03730950910748731  0.7928479691694222  1.0000
  H   H31       1.0  0.7655860000219618  0.07631383447645854  0.09518875637617434  1.0000
  H   H32       1.0  0.8284610274085509  0.18325440329165593  0.18769980222165128  1.0000
  H   H33       1.0  0.8785541379414424  0.11955088235542631  0.1661613880494457  1.0000
  H   H34       1.0  0.6423224695825526  0.836437764983451  0.2518683736707317  1.0000
  H   H35       1.0  0.7208201842116964  0.8674963193048345  0.3579649302473982  1.0000
  H   H36       1.0  0.612999191954195  0.846550054129061  0.3352250502939498  1.0000
  H   H37       1.0  0.1239644777132156  0.10539628393750892  0.7830187967074239  1.0000
  H   H38       1.0  0.2268746476972794  0.18972354734719235  0.8769468184435142  1.0000
  H   H39       1.0  0.20035599657060033  0.18221758993652065  0.7729948331507687  1.0000
  H   H40       1.0  0.1095612105446122  0.1858186519168967  0.9167877330682331  1.0000
  H   H41       1.0  0.15471072305867045  0.3019010362532485  0.9738526541028351  1.0000
  H   H42       1.0  0.05828408693085412  0.23222891601859894  0.9672930837846606  1.0000
  C   C1        1.0  0.08884024781856688  0.6067042053839488  0.967303863015964  1.0000
  C   C2        1.0  0.9494382630774396  0.14919064416196906  0.7693567696924789  1.0000
  C   C3        1.0  0.9090166654623246  0.20857935169870256  0.7594777199798559  1.0000
  C   C4        1.0  0.9982931491590322  0.29208721597710513  0.837758377941981  1.0000
  C   C5        1.0  0.22930861884984932  0.7478237045973871  0.04440165957688441  1.0000
  C   C6        1.0  0.16192629927528665  0.6709147383507104  0.9669786404365581  1.0000
  C   C7        1.0  0.17030198450073197  0.65640789738724  0.8917329068894304  1.0000
  C   C8        1.0  0.24421548601732473  0.7143727330500981  0.8960518381703865  1.0000
  C   C9        1.0  0.3116933405858546  0.7925489422474072  0.9747639058228756  1.0000
  C   C10       1.0  0.3005162438285609  0.8079531675108952  0.04770746564425806  1.0000
  C   C11       1.0  0.3412078347896569  0.8712384716539676  0.14446442418645228  1.0000
  C   C12       1.0  0.006667446727398458  0.36914971742725566  0.9051278247899505  1.0000
  C   C13       1.0  0.2609062656258204  0.8025205447533567  0.14099777916905504  1.0000
  C   C14       1.0  0.007530638015026753  0.7500542280792788  0.2018522983773182  1.0000
  C   C15       1.0  6.717346197862119e-05  0.672480515795101  0.19961031314725378  1.0000
  C   C16       1.0  0.9798966387567701  0.6557740016371911  0.2605828587099523  1.0000
  C   C17       1.0  0.9673573236550652  0.713448362777669  0.3192140545264762  1.0000
  C   C18       1.0  0.9802324367502423  0.7939327170322631  0.32448195679284453  1.0000
  C   C19       1.0  0.0012220769265881956  0.8102200034696242  0.26431705159764374  1.0000
  C   C20       1.0  0.024246214569238693  0.8774997399528746  0.23555233198209882  1.0000
  C   C21       1.0  0.0329429472995813  0.8087397967460535  0.1650754414662927  1.0000
  C   C22       1.0  0.788896393095115  0.2309575125602947  0.9472253857065951  1.0000
  C   C23       1.0  0.8440682984610461  0.3790524897123008  0.9597533778871964  1.0000
  C   C24       1.0  0.7757081669063979  0.3004939400542029  0.949023038346546  1.0000
  C   C25       1.0  0.6970799469865768  0.2933797244044457  0.9448119617107339  1.0000
  C   C26       1.0  0.6390541964120404  0.22334681261656195  0.9451323484581453  1.0000
  C   C27       1.0  0.6523182170758516  0.15268584198659604  0.9415519953110307  1.0000
  C   C28       1.0  0.7268627434819379  0.15699157137975567  0.9387815723291411  1.0000
  C   C29       1.0  0.7786381414457466  0.10951148868186783  0.9347014409597778  1.0000
  C   C30       1.0  0.8503804720915581  0.1953757163769225  0.9482899491229873  1.0000
  C   C31       1.0  0.9079802588814727  0.03173266346224322  0.3943787516618044  1.0000
  C   C32       1.0  0.9750229211201143  0.08975831770693081  0.6286060958419031  1.0000
  C   C33       1.0  0.13975230009111778  0.028426258067682408  0.6252845194251437  1.0000
  C   C34       1.0  0.008636594205057769  0.6093283888729958  0.13340289275754458  1.0000
  C   C35       1.0  0.975372085137984  0.859990279202215  0.3914469936487421  1.0000
  C   C36       1.0  0.38036047551154434  0.018329603817477405  0.9101473620133191  1.0000
  C   C37       1.0  0.38884530340540385  0.8575387319201867  0.9808756397218092  1.0000
  C   C38       1.0  0.6358181172689115  0.04320531288962572  0.14016433361565817  1.0000
  C   C39       1.0  0.5958062285200184  0.08451322174495603  0.9525777604589081  1.0000
  C   C40       1.0  0.7583045730832082  0.013748454366698602  0.32357959317311463  1.0000
  C   C41       1.0  0.8413866523547142  0.03997014013765471  0.3329036644188152  1.0000
  C   C42       1.0  0.8581884328383111  0.07478808883665523  0.2803015813997689  1.0000
  C   C43       1.0  0.7952121385381118  0.07950564485304311  0.21855835782355365  1.0000
  C   C44       1.0  0.7111613527675261  0.05161107658708631  0.21036337890224385  1.0000
  C   C45       1.0  0.027858052654892284  0.3006466773538038  0.7694813587908628  1.0000
  C   C46       1.0  0.6967513339990462  0.02269577981070371  0.2664301531771118  1.0000
  C   C47       1.0  0.6276728468094532  0.985904923485876  0.2892970999733748  1.0000
  C   C48       1.0  0.6948806120966466  0.9691027581298713  0.3488382734911897  1.0000
  C   C49       1.0  0.24313436933173466  0.9778165123500531  0.685356970414098  1.0000
  C   C50       1.0  0.20728255586301708  0.031675107672676006  0.6988752843537045  1.0000
  C   C51       1.0  0.2312377268917842  0.08496932850882641  0.7867628998314374  1.0000
  C   C52       1.0  0.2873903937034754  0.08050620870680801  0.8544291943998631  1.0000
  C   C53       1.0  0.3219847560703498  0.024411611681557605  0.8395385784954996  1.0000
  C   C54       1.0  0.29900426571533956  0.9739269643599756  0.7528958398477813  1.0000
  C   C55       1.0  0.3097863875034221  0.9053708203944026  0.6932083225394194  1.0000
  C   C56       1.0  0.9392757873455861  0.21773140946361025  0.6927672875851131  1.0000
  C   C57       1.0  0.24461365881192168  0.9084310233111097  0.6166308369937852  1.0000
  C   C58       1.0  0.9804327270742377  0.1576965363544431  0.7029705698740472  1.0000
  C   C59       1.0  0.06888272824913601  0.24241257940524016  0.7797154761898853  1.0000
  C   C60       1.0  0.039351527583392026  0.23262788559730302  0.8473665123020738  1.0000
  C   C61       1.0  0.10699283033235943  0.9658967530489024  0.2980036762678182  1.0000
  C   C62       1.0  0.7385188470964437  0.026224357309914112  0.8485152031715942  1.0000
  C   C63       1.0  0.8182232734086199  0.11628671651304504  0.1638275401926563  1.0000
  C   C64       1.0  0.6661041938523482  0.8740346770239287  0.32249216766780364  1.0000
  C   C65       1.0  0.1940677919728557  0.14403783988946373  0.806430926327792  1.0000
  C   C66       1.0  0.09348555888913525  0.23854104162716547  0.930822330159792  1.0000
  Br  Br1       1.0  0.9253302489972981  0.8961056535403176  0.18731229776624048  1.0000
  Br  Br2       1.0  0.9629911039556233  0.7661544952599401  0.040712206145847966  1.0000
  Br  Br3       1.0  0.9601936859248356  0.2573190763848957  0.060371051179856805  1.0000
  Br  Br4       1.0  0.7324793058250662  0.03661139269341621  0.4755833260655109  1.0000
  Br  Br5       1.0  0.2923121393386623  0.9460663645963053  0.5482141352839278  1.0000
  Br  Br6       1.0  0.13197290684124158  0.79847685195157  0.5368950999250331  1.0000
  O   O1        1.0  0.11122348654920708  0.586977378534485  0.02668220734499731  1.0000
  O   O2        1.0  0.989063657975379  0.08210195145443323  0.4213523307593904  1.0000
  O   O3        1.0  0.9217686297159131  0.008256948934565902  0.5980624609525053  1.0000
  O   O4        1.0  0.024794509230915206  0.11749057332914253  0.5997082514976954  1.0000
  O   O5        1.0  0.061592296668962376  0.9737164427293051  0.597165971629728  1.0000
  O   O6        1.0  0.16515383602840217  0.08122932365343163  0.5977554386329658  1.0000
  O   O7        1.0  0.922260391312918  0.833331989971903  0.4185791613321966  1.0000
  O   O8        1.0  0.025204972050076387  0.9396730839155084  0.41760138843967803  1.0000
  O   O9        1.0  0.4030544929986847  0.9616523559046188  0.8861448724290427  1.0000
  O   O10       1.0  0.4056836602306221  0.07049948604113611  0.9906123505890323  1.0000
  O   O11       1.0  0.41463193546535854  0.831378656142519  0.9260713774337433  1.0000
  O   O12       1.0  0.009859924941160664  0.5767734579086509  0.909692194559888  1.0000
  O   O13       1.0  0.42539382893877337  0.9366986450594582  0.0413237485627959  1.0000
  O   O14       1.0  0.6079396788129969  0.9867704927233805  0.06198589951112875  1.0000
  O   O15       1.0  0.6019644025740404  0.08975504455422369  0.16406379766301882  1.0000
  O   O16       1.0  0.5763226598460633  0.004444911114802602  0.9075721486809984  1.0000
  O   O17       1.0  0.5726381678494546  0.11103453028974294  0.008173019748774397  1.0000
  O   O18       1.0  0.06258250794314796  0.4023890897292902  0.9863355581465357  1.0000
  O   O19       1.0  0.9584062919050638  0.39871616446514224  0.8771418610589523  1.0000
  O   O20       1.0  0.9214884829793278  0.4071817330086276  0.016197473930802248  1.0000
  O   O21       1.0  0.8215322443307259  0.41181402237417347  0.9115822006820907  1.0000
  O   O22       1.0  0.057982803398893314  0.57931083036182  0.1604129364260559  1.0000
  O   O23       1.0  0.9661489642491503  0.5902894223096101  0.054855681565122286  1.0000
  O   O24       1.0  0.8804368126326808  0.9760617748958114  0.4173045003620857  1.0000
