data_image0
_chemical_formula_structural       Al4H44C60N4O20
_chemical_formula_sum              "Al4 H44 C60 N4 O20"
_cell_length_a       6.93414225101521
_cell_length_b       17.20118473264564
_cell_length_c       19.208318228045158
_cell_angle_alpha    71.11218348277309
_cell_angle_beta     89.99968293518897
_cell_angle_gamma    89.99974148462165

_space_group_name_H-M_alt    "P 1"
_space_group_IT_number       1

loop_
  _space_group_symop_operation_xyz
  'x, y, z'

loop_
  _atom_site_type_symbol
  _atom_site_label
  _atom_site_symmetry_multiplicity
  _atom_site_fract_x
  _atom_site_fract_y
  _atom_site_fract_z
  _atom_site_occupancy
  Al  Al1       1.0  0.08378814667632642  0.4981710585277525  0.5008213605663913  1.0000
  Al  Al2       1.0  0.5837894158482014  0.5018203517574235  0.49918324782583307  1.0000
  Al  Al3       1.0  0.6319855851459836  0.9997851623333599  0.997799844508947  1.0000
  Al  Al4       1.0  0.1319989987216772  0.00021555075352349974  0.0021980764436904006  1.0000
  H   H1        1.0  0.5441932227695361  0.6918277272433498  0.29721966754143375  1.0000
  H   H2        1.0  0.0441892527295096  0.30816026517771183  0.7027734636713773  1.0000
  H   H3        1.0  0.3232883553933732  0.7687063306261022  0.18055430168187311  1.0000
  H   H4        1.0  0.8232958209387463  0.23129730478049748  0.8194510831306446  1.0000
  H   H5        1.0  0.12190437763857893  0.5795575147521249  0.6771999433428421  1.0000
  H   H6        1.0  0.6218974647451175  0.42042819432563755  0.3228156347902101  1.0000
  H   H7        1.0  0.4375657848167834  0.872546093828099  0.7299355717103495  1.0000
  H   H8        1.0  0.9375672074208624  0.1274462027560048  0.27006698831579  1.0000
  H   H9        1.0  0.6119739674125596  0.9142186684681448  0.8250182602197144  1.0000
  H   H10       1.0  0.11197394140985038  0.0857764152834264  0.1749841029223234  1.0000
  H   H11       1.0  0.20887945698741112  0.8553303845814496  0.9348297978379705  1.0000
  H   H12       1.0  0.13815706139173764  0.7230956801882299  0.025568282009047  1.0000
  H   H13       1.0  0.38567163096307416  0.7294685592151279  0.9979331587155827  1.0000
  H   H14       1.0  0.21685123898842565  0.6748956264190511  0.9615843869916747  1.0000
  H   H15       1.0  0.7088371909140037  0.1446905381522754  0.0651454238675058  1.0000
  H   H16       1.0  0.6381246452472809  0.27694095813848196  0.9744234304466132  1.0000
  H   H17       1.0  0.8856359743925423  0.2705651334374224  0.002065980527511601  1.0000
  H   H18       1.0  0.7167996072329359  0.32512361366423187  0.03842324566240761  1.0000
  H   H19       1.0  0.31583334024712423  0.708621156856367  0.8519126801866008  1.0000
  H   H20       1.0  0.8158117137352506  0.29138134512012204  0.14808612563683002  1.0000
  H   H21       1.0  0.2981902186409399  0.6234372946212828  0.771360393235355  1.0000
  H   H22       1.0  0.7981757783148568  0.37655880392210855  0.22864175680300042  1.0000
  H   H23       1.0  0.569436765899539  0.8076865406617838  0.1789350427436318  1.0000
  H   H24       1.0  0.06944366399772411  0.19230761520809375  0.8210651746946526  1.0000
  H   H25       1.0  0.31263134760859407  0.8418775821226487  0.22907516434562333  1.0000
  H   H26       1.0  0.8126322392778748  0.15812780869263318  0.7709302246602547  1.0000
  H   H27       1.0  0.32477798291135673  0.6685180610892443  0.4065339666744451  1.0000
  H   H28       1.0  0.2858346526314861  0.7893717602363424  0.43959839165424347  1.0000
  H   H29       1.0  0.0586679112068822  0.7674572989876792  0.4060055553241638  1.0000
  H   H30       1.0  0.213628687571557  0.844222259933609  0.34851791561581547  1.0000
  H   H31       1.0  0.8247510421967094  0.33148461732195494  0.5934675751691286  1.0000
  H   H32       1.0  0.7858693177391133  0.21061828529822435  0.5604158849202107  1.0000
  H   H33       1.0  0.558682819047263  0.2325230493697319  0.5940040743142275  1.0000
  H   H34       1.0  0.7136781873494655  0.15577171087145558  0.6515002700622149  1.0000
  H   H35       1.0  0.29717810649690074  0.6530222519322706  0.29673629080464536  1.0000
  H   H36       1.0  0.7971833165645777  0.34698199303321786  0.7032674724806611  1.0000
  H   H37       1.0  0.5627678528622582  0.6806653493544558  0.6020124027024352  1.0000
  H   H38       1.0  0.0627525973353329  0.31932688142663307  0.39798508390175874  1.0000
  H   H39       1.0  0.4192376603038923  0.7870809392872002  0.6482775596191106  1.0000
  H   H40       1.0  0.9192448002921055  0.21291390361432858  0.351722812242194  1.0000
  H   H41       1.0  0.3304219168260972  0.5845523704805798  0.5274773223747005  1.0000
  H   H42       1.0  0.8304279029398104  0.4154493601262956  0.47251707558632455  1.0000
  H   H43       1.0  0.3840720410243179  0.8963228027885393  0.0478733168669905  1.0000
  H   H44       1.0  0.8840686263458294  0.10367710643900806  0.9521292694849279  1.0000
  C   C1        1.0  0.33580920074394527  0.4230245317690873  0.41636972412023715  1.0000
  C   C2        1.0  0.8358177270452957  0.5769612391266674  0.5836351761720097  1.0000
  C   C3        1.0  0.33627039924212454  0.3875773340756225  0.6127539170323858  1.0000
  C   C4        1.0  0.8362780556405623  0.6124175818345137  0.38724489937001755  1.0000
  C   C5        1.0  0.0208652698384597  0.7149942659994151  0.28682810229921074  1.0000
  C   C6        1.0  0.5208654367973722  0.2850059227882085  0.7131781859240292  1.0000
  C   C7        1.0  0.8465434182323579  0.6803045812088653  0.3161508972275584  1.0000
  C   C8        1.0  0.34655408139494176  0.3196971050314233  0.6838517233169766  1.0000
  C   C9        1.0  0.6829328586793083  0.7151694667378263  0.2747524977946441  1.0000
  C   C10       1.0  0.18293743431429021  0.28482461040943013  0.7252442966537416  1.0000
  C   C11       1.0  0.6972592503106795  0.7802914921977615  0.2092038897921711  1.0000
  C   C12       1.0  0.19725625827560117  0.21970859239867477  0.7907923127231982  1.0000
  C   C13       1.0  0.8747318480001098  0.8153017907956936  0.18003513663368412  1.0000
  C   C14       1.0  0.37473167145734726  0.1847012146809277  0.8199718414188766  1.0000
  C   C15       1.0  0.0356257414007857  0.7804512957382171  0.22143073805951735  1.0000
  C   C16       1.0  0.535632770223181  0.21954830517649526  0.7785738881276528  1.0000
  C   C17       1.0  0.2512442671483157  0.7846634673402946  0.22501364756632822  1.0000
  C   C18       1.0  0.751261526637265  0.21534432079309335  0.7749868553511875  1.0000
  C   C19       1.0  0.23635252120678268  0.7105383813840545  0.3007058976754493  1.0000
  C   C20       1.0  0.7363687667760955  0.28946629859023426  0.6992984811938711  1.0000
  C   C21       1.0  0.0028136141037577995  0.6197758829262625  0.6801878783874074  1.0000
  C   C22       1.0  0.5028015946843284  0.3802101369612528  0.31982233816734146  1.0000
  C   C23       1.0  0.8409234571550144  0.6251678403829714  0.6353855348196974  1.0000
  C   C24       1.0  0.3409123756718344  0.37482414156194466  0.36461823360490797  1.0000
  C   C25       1.0  0.6869068802633649  0.6769089182490404  0.6378155541680146  1.0000
  C   C26       1.0  0.18688941102593756  0.32307968762204087  0.36219004981183645  1.0000
  C   C27       1.0  0.6937893802005777  0.7258396657479905  0.6837081480185604  1.0000
  C   C28       1.0  0.19377501626379262  0.27415787750566517  0.31629356324562957  1.0000
  C   C29       1.0  0.8570852818828956  0.7192070658668612  0.7310589610004071  1.0000
  C   C30       1.0  0.35705880074013413  0.28078782075657216  0.268943128410946  1.0000
  C   C31       1.0  0.0121261147114069  0.6650265976873087  0.7292127079270402  1.0000
  C   C32       1.0  0.5121143248958832  0.33496700316670297  0.2707925204527514  1.0000
  C   C33       1.0  0.5431848851489391  0.7827506924112126  0.6843073848919518  1.0000
  C   C34       1.0  0.04317282645836681  0.21724328839423623  0.3156934121052259  1.0000
  C   C35       1.0  0.5533699070064914  0.8298122995976552  0.7293490246507234  1.0000
  C   C36       1.0  0.05336667697285691  0.1701820591048815  0.2706523086255714  1.0000
  C   C37       1.0  0.7139906248369458  0.8239678989742738  0.7776165430747144  1.0000
  C   C38       1.0  0.21397530795903213  0.1760333304471899  0.2223812837382582  1.0000
  C   C39       1.0  0.8665765975899475  0.7674807241729837  0.7788612951065732  1.0000
  C   C40       1.0  0.3665647878364595  0.23251746485381367  0.22113802226520113  1.0000
  C   C41       1.0  0.029581513140144004  0.7613181321301353  0.8257271534830224  1.0000
  C   C42       1.0  0.5295687958421739  0.23868792267250433  0.1742659143598217  1.0000
  C   C43       1.0  0.18468838110469932  0.7083596271408436  0.8208776180265219  1.0000
  C   C44       1.0  0.6846718892532736  0.2916404550121641  0.17912189477217313  1.0000
  C   C45       1.0  0.1759224264515922  0.6617298899111078  0.7753209652688184  1.0000
  C   C46       1.0  0.6759071968887439  0.338269022175794  0.22468185869706764  1.0000
  C   C47       1.0  0.728337643166519  0.8721181597675739  0.8236240993805665  1.0000
  C   C48       1.0  0.2283239801420009  0.1278815011856693  0.176374817009247  1.0000
  C   C49       1.0  0.8876806392823225  0.8675781580373465  0.8695686444051917  1.0000
  C   C50       1.0  0.38766351461116244  0.13242429243148723  0.1304284330569701  1.0000
  C   C51       1.0  0.04099664266849599  0.8112385319250279  0.8723350416495849  1.0000
  C   C52       1.0  0.5409697543331049  0.18877101365158205  0.12765634990977756  1.0000
  C   C53       1.0  0.3811749759420309  0.11423577586489837  0.8890670970068938  1.0000
  C   C54       1.0  0.8811668488867214  0.8857476419969784  0.11093446667585738  1.0000
  C   C55       1.0  0.3836033303323134  0.07993197288359258  0.08235300928467379  1.0000
  C   C56       1.0  0.8836158100413415  0.9200705059714093  0.9176374802418154  1.0000
  C   C57       1.0  0.23656903150033065  0.7291941511844013  0.9787358479217334  1.0000
  C   C58       1.0  0.7365300969421897  0.27083307898232073  0.0212590919975284  1.0000
  C   C59       1.0  0.2113616662876225  0.7834356547523312  0.39113122742629974  1.0000
  C   C60       1.0  0.7113909323379132  0.21655891900154234  0.608882013869554  1.0000
  N   N1        1.0  0.20037859439216985  0.8049539151560906  0.91780659607511  1.0000
  N   N2        1.0  0.7003424401732233  0.19506348306455118  0.082178539254592  1.0000
  N   N3        1.0  0.3138782938068799  0.7239046682141036  0.365664560312581  1.0000
  N   N4        1.0  0.8138715414685221  0.2761007216013524  0.6343408273049532  1.0000
  O   O1        1.0  0.4990779385399549  0.414838274531789  0.5836237804118767  1.0000
  O   O2        1.0  0.9990724318963656  0.5851547384868069  0.41638145435604196  1.0000
  O   O3        1.0  0.17118719897514012  0.4385085944488693  0.4387517425235217  1.0000
  O   O4        1.0  0.6712079482224312  0.5614817771643884  0.5612522231605936  1.0000
  O   O5        1.0  0.16984182283226804  0.41217523266777784  0.5864446176910859  1.0000
  O   O6        1.0  0.6698392179434834  0.5878221462151529  0.4135543743049439  1.0000
  O   O7        1.0  0.998254899171826  0.5549256311111463  0.5649353512623135  1.0000
  O   O8        1.0  0.4982312423382354  0.445065819368523  0.43507263815393327  1.0000
  O   O9        1.0  0.33263762165407934  0.5520607020443861  0.49439746551745867  1.0000
  O   O10       1.0  0.8326381240368121  0.44793362823244826  0.5056030056350523  1.0000
  O   O11       1.0  0.21813978940628692  0.058574884675024884  0.06583189480810601  1.0000
  O   O12       1.0  0.7181530565386325  0.9414125377867821  0.9341720312963417  1.0000
  O   O13       1.0  0.5475531156820567  0.08673564566887385  0.913749359715503  1.0000
  O   O14       1.0  0.0475353082014891  0.9132540971699253  0.08624211192216791  1.0000
  O   O15       1.0  0.5461486752594027  0.06034660908837001  0.06063240393341119  1.0000
  O   O16       1.0  0.046166514398059605  0.9396649004660984  0.9393518314323971  1.0000
  O   O17       1.0  0.719508880343909  0.9134393749471316  0.08130104100262511  1.0000
  O   O18       1.0  0.21952835678838775  0.08657192609945949  0.9187011300500388  1.0000
  O   O19       1.0  0.38150792859146787  0.9485519770204643  0.008272592108944803  1.0000
  O   O20       1.0  0.8815016067424893  0.05144621255450219  0.9917234123477671  1.0000
