data_image0
_chemical_formula_structural       Mg6H36C63O24
_chemical_formula_sum              "Mg6 H36 C63 O24"
_cell_length_a       6.833188117638458
_cell_length_b       34.98988433160819
_cell_length_c       34.993901736064004
_cell_angle_alpha    119.5857118392845
_cell_angle_beta     93.7240952965809
_cell_angle_gamma    93.72470526126607

_space_group_name_H-M_alt    "P 1"
_space_group_IT_number       1

loop_
  _space_group_symop_operation_xyz
  'x, y, z'

loop_
  _atom_site_type_symbol
  _atom_site_label
  _atom_site_symmetry_multiplicity
  _atom_site_fract_x
  _atom_site_fract_y
  _atom_site_fract_z
  _atom_site_occupancy
  Mg  Mg1       1.0  0.07129997779998833  0.30702398386418395  0.633984668870795  1.0000
  Mg  Mg2       1.0  0.42278443715954256  0.634197370708357  0.3065969238226671  1.0000
  Mg  Mg3       1.0  0.7644692546404246  0.32699006500448047  0.6929905108295528  1.0000
  Mg  Mg4       1.0  0.788427989547266  0.6723563224306306  0.3657901749618731  1.0000
  Mg  Mg5       1.0  0.437277033324257  0.36599380659107794  0.6729726782353607  1.0000
  Mg  Mg6       1.0  0.11599818552445397  0.693409154888528  0.327623988928835  1.0000
  H   H1        1.0  0.08429097736843275  0.6158660908759261  0.43437107295381594  1.0000
  H   H2        1.0  0.6334341538261798  0.5634299248938748  0.439516677146365  1.0000
  H   H3        1.0  0.7560095634967825  0.5878328619028254  0.38927992648101656  1.0000
  H   H4        1.0  0.1114020367721694  0.5806044150241477  0.47558989784057815  1.0000
  H   H5        1.0  0.4961634370413465  0.5407126456108389  0.4799320288998815  1.0000
  H   H6        1.0  0.9609243303233798  0.5423123512221226  0.4933660167299367  1.0000
  H   H7        1.0  0.15309139345252026  0.47776132663771165  0.5426412259269568  1.0000
  H   H8        1.0  0.7542990641506293  0.4762534552122163  0.5782902359772137  1.0000
  H   H9        1.0  0.7268096222347822  0.4340235373664498  0.6158392438455209  1.0000
  H   H10       1.0  0.4047097578307444  0.39198404757122063  0.5899555685574639  1.0000
  H   H11       1.0  0.2787703652059791  0.4416663961445978  0.5654428729971457  1.0000
  H   H12       1.0  0.5047066140734559  0.5176519028890995  0.5274543616120511  1.0000
  H   H13       1.0  0.4685464613647882  0.8186286428118239  0.38425336385669356  1.0000
  H   H14       1.0  0.07041141545840196  0.8759874848761129  0.43651673769800686  1.0000
  H   H15       1.0  0.16799409376374552  0.8012861974694306  0.4121250025036717  1.0000
  H   H16       1.0  0.5314482966553555  0.8950997653935602  0.4195207261076916  1.0000
  H   H17       1.0  0.9564240617061445  0.9392655181079733  0.4590825881108317  1.0000
  H   H18       1.0  0.41970897173437305  0.9510730481366567  0.4576248121909217  1.0000
  H   H19       1.0  0.6759807821247821  0.0648992567975668  0.5221877650475476  1.0000
  H   H20       1.0  0.27858555343399877  0.1020401367889718  0.5238073836214809  1.0000
  H   H21       1.0  0.29335156383375255  0.18183737031142044  0.5660511429005836  1.0000
  H   H22       1.0  0.01301765878815083  0.19799413475870156  0.6081512301102023  1.0000
  H   H23       1.0  0.8376461583879404  0.12381000096620909  0.5584794950350724  1.0000
  H   H24       1.0  0.9879991467460344  0.009882366616984899  0.4822766301154005  1.0000
  H   H25       1.0  0.6503003780809921  0.5655359083688721  0.1813640571234245  1.0000
  H   H26       1.0  0.19496562162718342  0.5604946684709519  0.124045188079343  1.0000
  H   H27       1.0  0.36700208588556654  0.6107941532687067  0.19874078551590915  1.0000
  H   H28       1.0  0.6371045226390495  0.524319786600664  0.10489999081356433  1.0000
  H   H29       1.0  0.017865357432235482  0.5199484574770425  0.06076108632761661  1.0000
  H   H30       1.0  0.4693801094687302  0.5065539378084267  0.04891427569753412  1.0000
  H   H31       1.0  0.6116763718169695  0.4572753390818321  0.9350579963992017  1.0000
  H   H32       1.0  0.1770781780483689  0.4218492255909966  0.8979716370624046  1.0000
  H   H33       1.0  0.11171534250943443  0.3843104473137089  0.8182409663770187  1.0000
  H   H34       1.0  0.8151878260520891  0.4099417766177568  0.8017989365601464  1.0000
  H   H35       1.0  0.714283243215938  0.434602600007544  0.8760577733116149  1.0000
  H   H36       1.0  0.979008651125966  0.4723990092767353  0.9901486491211385  1.0000
  C   C1        1.0  0.49094501244435673  0.6141253843756617  0.38163824682209224  1.0000
  C   C2        1.0  0.29738860419693225  0.6222773755592074  0.3951641227110301  1.0000
  C   C3        1.0  0.2317741181274188  0.6088821533059275  0.42441980158619697  1.0000
  C   C4        1.0  0.34627097416068153  0.5872271568278367  0.4406942524158808  1.0000
  C   C5        1.0  0.5384103295518728  0.5800319886748115  0.42750170185153996  1.0000
  C   C6        1.0  0.6079834661581387  0.5933103702778909  0.3992433379486187  1.0000
  C   C7        1.0  0.26106897783149224  0.5720971371038673  0.4684747508762613  1.0000
  C   C8        1.0  0.34388987692480555  0.5483256961400187  0.4849036548575327  1.0000
  C   C9        1.0  0.24482466114164245  0.5303709751456227  0.5093394753065184  1.0000
  C   C10       1.0  0.04236508224883551  0.5283936916175094  0.510470971343608  1.0000
  C   C11       1.0  0.9176501365748068  0.5104857488149364  0.5308878092510838  1.0000
  C   C12       1.0  0.0018103656840154532  0.4843405226550673  0.5488452760982696  1.0000
  C   C13       1.0  0.905309959539693  0.4685577402573316  0.571597000426479  1.0000
  C   C14       1.0  0.9885701692995781  0.4410987202887854  0.5875654452382477  1.0000
  C   C15       1.0  0.8752573437350293  0.4246431875368443  0.6091872669895153  1.0000
  C   C16       1.0  0.9439572213814386  0.395942338485753  0.6230892018764179  1.0000
  C   C17       1.0  0.1385867698456451  0.3829606614001193  0.6152833001607759  1.0000
  C   C18       1.0  0.2551920314860824  0.40114447816841203  0.5949271960564031  1.0000
  C   C19       1.0  0.18316904017925148  0.4290000912482555  0.5814070350133277  1.0000
  C   C20       1.0  0.8110718850751015  0.38087670448695127  0.64569568504686  1.0000
  C   C21       1.0  0.16261760858508015  0.6447200458699741  0.3801919871423536  1.0000
  C   C22       1.0  0.8765180973052438  0.767464192352243  0.38587252948916984  1.0000
  C   C23       1.0  0.6748843839548615  0.7728956533067547  0.37776297572911244  1.0000
  C   C24       1.0  0.6229325378034218  0.8155839338737252  0.39119800330803395  1.0000
  C   C25       1.0  0.7593377954682341  0.8534810569549055  0.4128202507512811  1.0000
  C   C26       1.0  0.9586087641482237  0.8474054004339352  0.41994755199836936  1.0000
  C   C27       1.0  0.014600073893376479  0.8058449453507279  0.40667133723616905  1.0000
  C   C28       1.0  0.6896440655775323  0.8964344053299274  0.4279473711290224  1.0000
  C   C29       1.0  0.7964685384686093  0.9366252394482261  0.45158028344942375  1.0000
  C   C30       1.0  0.7153969588696187  0.9790213195033106  0.4694923758399981  1.0000
  C   C31       1.0  0.5149385827870391  0.9821070316402827  0.47150468739022966  1.0000
  C   C32       1.0  0.4079437558308144  0.020393380428295405  0.48953460502518437  1.0000
  C   C33       1.0  0.5181076780694412  0.0645085108404544  0.5156368585529734  1.0000
  C   C34       1.0  0.4372948231009134  0.10304237883480742  0.5314868767367711  1.0000
  C   C35       1.0  0.5479436447963622  0.14646960656243388  0.559014802764608  1.0000
  C   C36       1.0  0.4510838439480765  0.1845478408848393  0.5754903754704868  1.0000
  C   C37       1.0  0.5483189710720353  0.22716053599911137  0.6042163180511224  1.0000
  C   C38       1.0  0.755933962517588  0.2323666734653216  0.6171909771569304  1.0000
  C   C39       1.0  0.8543213192371157  0.19381346305530664  0.5990170779627844  1.0000
  C   C40       1.0  0.7545622947637156  0.1524301415417426  0.5711488306940353  1.0000
  C   C41       1.0  0.4303560349250121  0.26482888982838665  0.6192009954379144  1.0000
  C   C42       1.0  0.517691352654488  0.7354865611092624  0.3553005685716571  1.0000
  C   C43       1.0  0.1093052169105634  0.6183580454736203  0.2325507569935183  1.0000
  C   C44       1.0  0.9022382432046003  0.6047947609794165  0.2271038002783642  1.0000
  C   C45       1.0  0.80772083350049  0.5755347991664763  0.18442070230944543  1.0000
  C   C46       1.0  0.9063547666062848  0.5592810517452025  0.14653475580091432  1.0000
  C   C47       1.0  0.11164463553793529  0.5725017608125783  0.15262030014110203  1.0000
  C   C48       1.0  0.20903559494300347  0.6007903010893331  0.19418111000631907  1.0000
  C   C49       1.0  0.7939127435738557  0.5314612020179156  0.10356910858747176  1.0000
  C   C50       1.0  0.8605679313482071  0.5150002580723125  0.06338235258460406  1.0000
  C   C51       1.0  0.7372543524393297  0.4905511026595379  0.02097997130838554  1.0000
  C   C52       1.0  0.5337075251081205  0.4894538599121036  0.017886831635124344  1.0000
  C   C53       1.0  0.38837145966990516  0.4690644033028877  0.9796111398205554  1.0000
  C   C54       1.0  0.4541991247214199  0.45112147145235343  0.935468019748832  1.0000
  C   C55       1.0  0.3348119341541178  0.4284753528022022  0.8969441387328201  1.0000
  C   C56       1.0  0.4019076267537188  0.4125259930169066  0.8534900358615828  1.0000
  C   C57       1.0  0.26674376739498484  0.3909518421777635  0.8154548428511105  1.0000
  C   C58       1.0  0.32113511493413693  0.37702619275138016  0.772811469827559  1.0000
  C   C59       1.0  0.5235484085852632  0.384743797292451  0.7675652684106281  1.0000
  C   C60       1.0  0.6607333366148113  0.4050611511660095  0.8060656862123777  1.0000
  C   C61       1.0  0.602534318929763  0.41863963027927303  0.8474705692840699  1.0000
  C   C62       1.0  0.16556360647258836  0.3543780697640174  0.7351669728322107  1.0000
  C   C63       1.0  0.7822134655611706  0.6197526382978183  0.26449063574432335  1.0000
  O   O1        1.0  0.6463520084543647  0.3961605984283382  0.6557457815575986  1.0000
  O   O2        1.0  0.8648611665090299  0.3511813895509165  0.6548371771845324  1.0000
  O   O3        1.0  0.21614033675917455  0.3549438121415633  0.6261329174969033  1.0000
  O   O4        1.0  0.9974894732401511  0.6543362348222533  0.39540025657589695  1.0000
  O   O5        1.0  0.21539747426126624  0.6541585047905161  0.35063634970911306  1.0000
  O   O6        1.0  0.5674996343484366  0.6250405652326307  0.35355495813454507  1.0000
  O   O7        1.0  0.7367804751254069  0.5164736821590595  0.5315019193393837  1.0000
  O   O8        1.0  0.35895496267880844  0.514751727614879  0.5298427437068866  1.0000
  O   O9        1.0  0.2503995768821454  0.2595922276178513  0.6039030508667337  1.0000
  O   O10       1.0  0.5138883887176391  0.3036809755454117  0.6488253407852866  1.0000
  O   O11       1.0  0.8615317037174252  0.2712422976772261  0.6451365368802512  1.0000
  O   O12       1.0  0.34305215241354875  0.7410651207294736  0.3456077258359684  1.0000
  O   O13       1.0  0.56099120490223  0.6964973588418533  0.3459218038214901  1.0000
  O   O14       1.0  0.9420741592811835  0.7284456088503931  0.374919569727723  1.0000
  O   O15       1.0  0.22106591103777626  0.014962532438957503  0.4837239737937792  1.0000
  O   O16       1.0  0.8450090718563316  0.015142052725096306  0.48502196154743166  1.0000
  O   O17       1.0  0.9908723561052498  0.34432002636827264  0.7404249467298454  1.0000
  O   O18       1.0  0.21009912291130925  0.34517610818969774  0.6963109478024093  1.0000
  O   O19       1.0  0.5901367433441538  0.3738350478073401  0.728683631795917  1.0000
  O   O20       1.0  0.6019699863112606  0.6045014545013387  0.2588961104738772  1.0000
  O   O21       1.0  0.864381777108193  0.6493664349395589  0.3034887608466691  1.0000
  O   O22       1.0  0.2137312672882674  0.6464347100980138  0.2715624635821003  1.0000
  O   O23       1.0  0.2070117323262437  0.468489859895648  0.9851014989492126  1.0000
  O   O24       1.0  0.8308529586322564  0.4700226864226735  0.9848593596280037  1.0000
