data_image0
_chemical_formula_structural       La2H30C44S4N4O16
_chemical_formula_sum              "La2 H30 C44 S4 N4 O16"
_cell_length_a       8.904278497508825
_cell_length_b       11.987256816620324
_cell_length_c       12.811953410007844
_cell_angle_alpha    104.97181992982705
_cell_angle_beta     108.35619704054075
_cell_angle_gamma    101.32019919745917

_space_group_name_H-M_alt    "P 1"
_space_group_IT_number       1

loop_
  _space_group_symop_operation_xyz
  'x, y, z'

loop_
  _atom_site_type_symbol
  _atom_site_label
  _atom_site_symmetry_multiplicity
  _atom_site_fract_x
  _atom_site_fract_y
  _atom_site_fract_z
  _atom_site_occupancy
  La  La1       1.0  0.5437189537416599  0.4235811913431461  0.3566774582162182  1.0000
  La  La2       1.0  0.45628303584826574  0.5764212422561243  0.6433249304920211  1.0000
  H   H1        1.0  0.8855655059150538  0.30528886026885255  0.7762181584284065  1.0000
  H   H2        1.0  0.1144419247900501  0.6947091747848759  0.22378126295993891  1.0000
  H   H3        1.0  0.8129094963244298  0.1227429143602663  0.8421519647182835  1.0000
  H   H4        1.0  0.1870878565979907  0.8772547263027233  0.15785827692726428  1.0000
  H   H5        1.0  0.329804367899115  0.8594783737943318  0.6505648680212418  1.0000
  H   H6        1.0  0.6701922449797163  0.14051950309990957  0.3494351090643306  1.0000
  H   H7        1.0  0.24999823866372148  0.9816190897363413  0.5222489293375645  1.0000
  H   H8        1.0  0.750006913381199  0.018382446702865693  0.4777547517549935  1.0000
  H   H9        1.0  0.3035100438261722  0.1675586968821108  0.4804540778428292  1.0000
  H   H10       1.0  0.6964945063914173  0.8324355735176995  0.5195491822226332  1.0000
  H   H11       1.0  0.9304850982506708  0.6317054709523544  0.4976739918204629  1.0000
  H   H12       1.0  0.06951802596530143  0.3682900078389295  0.5023159663266555  1.0000
  H   H13       1.0  0.10507694325697507  0.8299974543692696  0.5165592120867686  1.0000
  H   H14       1.0  0.8949319510314028  0.169994512829625  0.4834288613644305  1.0000
  H   H15       1.0  0.008085482247111172  0.9218794301880281  0.3603073976357863  1.0000
  H   H16       1.0  0.9919208024222999  0.07812137950524088  0.6396893358764332  1.0000
  H   H17       1.0  0.7862013972510835  0.9073691146708284  0.17369351232535007  1.0000
  H   H18       1.0  0.21380261707509618  0.09263173329041759  0.8263003577276679  1.0000
  H   H19       1.0  0.5073708162859701  0.802531447682135  0.02033313627290309  1.0000
  H   H20       1.0  0.49263346459492413  0.19747301442078682  0.9796617123658681  1.0000
  H   H21       1.0  0.2449456201788749  0.6255781794587703  0.9301042516463556  1.0000
  H   H22       1.0  0.7550537827413917  0.3744289353444472  0.06989091061345926  1.0000
  H   H23       1.0  0.09118667662168178  0.42791333432730716  0.9286840800224285  1.0000
  H   H24       1.0  0.908806229593793  0.5720954804059416  0.0713123378297879  1.0000
  H   H25       1.0  0.22495631448579453  0.34530089709570433  0.08377386823853779  1.0000
  H   H26       1.0  0.775035733976857  0.6547087954076573  0.9162233526163561  1.0000
  H   H27       1.0  0.8318598009473703  0.3846186658496293  0.2665237334065936  1.0000
  H   H28       1.0  0.1681385815226619  0.6153781914333578  0.7334818648752446  1.0000
  H   H29       1.0  0.6778012640828308  0.257078170936083  0.21007115915028154  1.0000
  H   H30       1.0  0.3221948824029326  0.7429187434929146  0.7899308076001504  1.0000
  C   C1        1.0  0.7018264370883429  0.34538731433916325  0.6495914598252528  1.0000
  C   C2        1.0  0.2981774271712255  0.6546079282208765  0.35040876288185535  1.0000
  C   C3        1.0  0.7570180428605087  0.2752262144768238  0.714299401971985  1.0000
  C   C4        1.0  0.24298416829594063  0.724768056434918  0.28570253077869273  1.0000
  C   C5        1.0  0.6470704823490079  0.16393579222535237  0.6999595170606128  1.0000
  C   C6        1.0  0.35292734528343317  0.8360593477853936  0.30004161175666866  1.0000
  C   C7        1.0  0.6907502555951693  0.09276914863880137  0.7713415691962027  1.0000
  C   C8        1.0  0.3092517276793671  0.9072305200159078  0.22866245969466792  1.0000
  C   C9        1.0  0.5758498683824342  0.9869009935757801  0.7537067181857113  1.0000
  C   C10       1.0  0.4241466351041296  0.013094061739828099  0.24629720329910754  1.0000
  C   C11       1.0  0.4162781809344126  0.9443451090193092  0.6624316050763002  1.0000
  C   C12       1.0  0.5837218889976938  0.0556527387899948  0.3375715150897562  1.0000
  C   C13       1.0  0.3720529821344485  0.011317991654792095  0.5924786797804346  1.0000
  C   C14       1.0  0.6279475822342774  0.9886780725532273  0.4075233228311815  1.0000
  C   C15       1.0  0.4827205509789889  0.12353822424078938  0.6107271629314397  1.0000
  C   C16       1.0  0.5172757953451351  0.8764560385117758  0.3892718355683726  1.0000
  C   C17       1.0  0.4298402070809503  0.1968079341253315  0.5457692429380288  1.0000
  C   C18       1.0  0.5701623049891679  0.803189969806112  0.45423290032619684  1.0000
  C   C19       1.0  0.5331239907571897  0.3099940011528304  0.5678098092776409  1.0000
  C   C20       1.0  0.4668768401662505  0.6900056771968578  0.4321931719197353  1.0000
  C   C21       1.0  0.8896538585860725  0.6735445416492993  0.43201078470330856  1.0000
  C   C22       1.0  0.1103494634666973  0.32645451352761506  0.5679816881739798  1.0000
  C   C23       1.0  0.988182895288034  0.7854305905254645  0.4416572342783169  1.0000
  C   C24       1.0  0.011821675877300184  0.21456574664597375  0.5583356222584756  1.0000
  C   C25       1.0  0.9345285845964215  0.835166768366058  0.35605245003055336  1.0000
  C   C26       1.0  0.06547463437946993  0.16483223017678478  0.6439423270633641  1.0000
  C   C27       1.0  0.7804983905095925  0.7734737180495372  0.2611406548602845  1.0000
  C   C28       1.0  0.2195021584463603  0.22653062211414007  0.7388571952756564  1.0000
  C   C29       1.0  0.7132851765011025  0.8217914234676582  0.17187993006009344  1.0000
  C   C30       1.0  0.2867140285823666  0.17821211494992892  0.8281127174695515  1.0000
  C   C31       1.0  0.5584383592488109  0.7633820832126189  0.08642371475937682  1.0000
  C   C32       1.0  0.4415642685289711  0.23662140724201206  0.9135728439229709  1.0000
  C   C33       1.0  0.4617495213808526  0.6504392812875892  0.08201666170031531  1.0000
  C   C34       1.0  0.5382526400038685  0.3495632467017984  0.9179818866468851  1.0000
  C   C35       1.0  0.30073415375632345  0.587497789607795  0.9957003194559065  1.0000
  C   C36       1.0  0.6992686438146835  0.41251202329900855  0.004297881846177631  1.0000
  C   C37       1.0  0.21511791140357422  0.47765369532595503  0.9949082459599838  1.0000
  C   C38       1.0  0.7848802080451592  0.522356118604712  0.00508730071253167  1.0000
  C   C39       1.0  0.2896877972278419  0.4312891861086356  0.08128490733857063  1.0000
  C   C40       1.0  0.7103060635019247  0.568716042543997  0.9187100434769776  1.0000
  C   C41       1.0  0.5265065039396007  0.5974201085531305  0.16679633328747911  1.0000
  C   C42       1.0  0.47349331838397996  0.4025824199481887  0.8332008877449442  1.0000
  C   C43       1.0  0.6877997747998776  0.6612195682885086  0.2593781404665663  1.0000
  C   C44       1.0  0.31220163822429475  0.33878665904962446  0.7406172664840653  1.0000
  S   S1        1.0  0.8303175341403275  0.4834309028750922  0.6577543755673929  1.0000
  S   S2        1.0  0.16968388798122194  0.5165642835628078  0.3422468240415455  1.0000
  S   S3        1.0  0.6162806337390735  0.8989852026872924  0.84611478756419  1.0000
  S   S4        1.0  0.3837291797942228  0.10102325896303907  0.1539057944847572  1.0000
  N   N1        1.0  0.7437974599649237  0.6130925897566754  0.34389489304980003  1.0000
  N   N2        1.0  0.2561989396643369  0.38690998670760013  0.6560984168299201  1.0000
  N   N3        1.0  0.4400138861517889  0.4897856473189677  0.16573654645816302  1.0000
  N   N4        1.0  0.5599791105097651  0.5102176941592234  0.8342608475426873  1.0000
  O   O1        1.0  5.657383170643957e-05  0.5034347930412082  0.7369496210880088  1.0000
  O   O2        1.0  0.9999424705559079  0.4965513820239876  0.2630471764801997  1.0000
  O   O3        1.0  0.7600122213351811  0.5794816285266293  0.6996399552736747  1.0000
  O   O4        1.0  0.23999608053395605  0.42051348086337725  0.3003682985684577  1.0000
  O   O5        1.0  0.8140410606209798  0.4643153189396684  0.5347633481365507  1.0000
  O   O6        1.0  0.18596610152785337  0.5356853300344397  0.4652405776468243  1.0000
  O   O7        1.0  0.47008848720284396  0.8764239535290557  0.877782717933087  1.0000
  O   O8        1.0  0.5298919291370509  0.1235754365627244  0.1222208862078134  1.0000
  O   O9        1.0  0.614799676691632  0.7819778452866896  0.7652491333257814  1.0000
  O   O10       1.0  0.38520755295398607  0.21802149172279425  0.23477165511567222  1.0000
  O   O11       1.0  0.7744807660465937  0.9621238379657978  0.9421363128204591  1.0000
  O   O12       1.0  0.22550221323324138  0.03788260999519372  0.0578774884565973  1.0000
  O   O13       1.0  0.47815711593620586  0.386683312246035  0.5169944495379327  1.0000
  O   O14       1.0  0.5218409719355533  0.6133126769618258  0.48300929804773324  1.0000
  O   O15       1.0  0.7338980142583083  0.33779782645873263  0.27422358854281736  1.0000
  O   O16       1.0  0.2661031393069707  0.6621999738995471  0.7257821154611579  1.0000
