data_image0
_chemical_formula_structural       Ca2Zn2H12C20O20
_chemical_formula_sum              "Ca2 Zn2 H12 C20 O20"
_cell_length_a       6.1024256839933475
_cell_length_b       9.897939607001597
_cell_length_c       10.314439344923857
_cell_angle_alpha    90.00005537211696
_cell_angle_beta     94.60273199390485
_cell_angle_gamma    89.99996108677416

_space_group_name_H-M_alt    "P 1"
_space_group_IT_number       1

loop_
  _space_group_symop_operation_xyz
  'x, y, z'

loop_
  _atom_site_type_symbol
  _atom_site_label
  _atom_site_symmetry_multiplicity
  _atom_site_fract_x
  _atom_site_fract_y
  _atom_site_fract_z
  _atom_site_occupancy
  Ca  Ca1       1.0  0.24999998285530717  0.4908701670155367  0.7499995504618155  1.0000
  Ca  Ca2       1.0  0.7500029796337344  0.5091311856903789  0.2500019314661728  1.0000
  Zn  Zn1       1.0  0.7499975771166519  0.2263705716511737  0.7500000830835205  1.0000
  Zn  Zn2       1.0  0.24999885905235428  0.7736307810553812  0.2500000090705115  1.0000
  H   H1        1.0  0.8447292405764699  0.6324369374279402  0.8608247062279801  1.0000
  H   H2        1.0  0.6552675737968627  0.6324368636924191  0.6391672169010079  1.0000
  H   H3        1.0  0.15525804024767353  0.3675613843389698  0.1391602482664922  1.0000
  H   H4        1.0  0.34472294669935616  0.36756448900824523  0.36081891592611015  1.0000
  H   H5        1.0  0.8489831043556606  0.48096906791651145  0.8973196155797822  1.0000
  H   H6        1.0  0.6510134386832861  0.48096693816660974  0.6026808777839676  1.0000
  H   H7        1.0  0.1510099981930253  0.519034305413662  0.1026812320211832  1.0000
  H   H8        1.0  0.34898942986204423  0.5190303732951945  0.39732253791964206  1.0000
  H   H9        1.0  0.8496228953656556  0.09305661679684361  0.1008370044780165  1.0000
  H   H10       1.0  0.6503819304693224  0.09305478912593661  0.39916445700981024  1.0000
  H   H11       1.0  0.15037499623512224  0.9069447359114309  0.8991670609520882  1.0000
  H   H12       1.0  0.3496209380765194  0.906941512024595  0.6008389586933589  1.0000
  C   C1        1.0  0.5873896717615423  0.2898783908592152  0.0011013373927042083  1.0000
  C   C2        1.0  0.9126150512570986  0.28988059776207115  0.4988983615355948  1.0000
  C   C3        1.0  0.4126085016769282  0.7101219515347738  0.9988969267048232  1.0000
  C   C4        1.0  0.08739129182513491  0.7101187343197138  0.5011013980567682  1.0000
  C   C5        1.0  0.15973804321461668  0.1748327616197471  0.8817035243969329  1.0000
  C   C6        1.0  0.3402621914635375  0.17482854905857445  0.618296268491271  1.0000
  C   C7        1.0  0.8402549653888444  0.8251696014001554  0.11829925698096838  1.0000
  C   C8        1.0  0.6597409119461234  0.8251687624007219  0.3817023127688941  1.0000
  C   C9        1.0  0.5346128176566722  0.1409544778816851  0.00021605810067630576  1.0000
  C   C10       1.0  0.9653854339759466  0.14095161235459133  0.4997840552792923  1.0000
  C   C11       1.0  0.46538521486117895  0.8590499057589157  0.9997851066646817  1.0000
  C   C12       1.0  0.03461109614030989  0.8590467094171289  0.5002141030960416  1.0000
  C   C13       1.0  0.3363794970353312  0.08620926209435  0.9441565813505051  1.0000
  C   C14       1.0  0.1636141589993869  0.08620606915420843  0.5558446453362934  1.0000
  C   C15       1.0  0.663616892159297  0.9137951215465279  0.0558444776935332  1.0000
  C   C16       1.0  0.8363838735220029  0.9137912423074536  0.44415651942598794  1.0000
  C   C17       1.0  0.6951561182217036  0.053744403691808884  0.0558683106535796  1.0000
  C   C18       1.0  0.8048421736207773  0.05374154775369532  0.4441326937506673  1.0000
  C   C19       1.0  0.3048401770282112  0.9462579593275247  0.9441346821669611  1.0000
  C   C20       1.0  0.19515754919721218  0.9462547533958984  0.5558676098438013  1.0000
  O   O1        1.0  0.6627262612021526  0.34101977817820744  0.8976751627520442  1.0000
  O   O2        1.0  0.8372720180936073  0.3410155505922888  0.6023262814783195  1.0000
  O   O3        1.0  0.3372620053210724  0.6589866260856497  0.10232343390890719  1.0000
  O   O4        1.0  0.16273099136931524  0.6589837814905622  0.3976742335601031  1.0000
  O   O5        1.0  0.5711517106146502  0.3548121625878126  0.103893409817772  1.0000
  O   O6        1.0  0.928849472956266  0.3548071859731224  0.3961100017056935  1.0000
  O   O7        1.0  0.4288479652264314  0.6451922210525041  0.8961078606689058  1.0000
  O   O8        1.0  0.07115358348053043  0.6451901254866783  0.6038895464431633  1.0000
  O   O9        1.0  0.18435372745098283  0.3014520390330446  0.8839234667653243  1.0000
  O   O10       1.0  0.3156492445377594  0.3014488446840105  0.6160853497108079  1.0000
  O   O11       1.0  0.8156440702035612  0.6985503239875043  0.11608253244260422  1.0000
  O   O12       1.0  0.6843519337109784  0.6985494770898627  0.3839189271606145  1.0000
  O   O13       1.0  0.9906014626417132  0.11344503898995843  0.8272021786556678  1.0000
  O   O14       1.0  0.509403758367796  0.11344303904952821  0.6727965898266318  1.0000
  O   O15       1.0  0.009396522905298403  0.8865553034060343  0.17279995299661977  1.0000
  O   O16       1.0  0.49060281957977747  0.886554272407196  0.3271983353214054  1.0000
  O   O17       1.0  0.9399035518287989  0.5536841652977172  0.8631901659315915  1.0000
  O   O18       1.0  0.5600946088139055  0.5536821078052866  0.6368095295199936  1.0000
  O   O19       1.0  0.06009124101597511  0.4463192080316746  0.1368098205020019  1.0000
  O   O20       1.0  0.4399066633820753  0.4463131830337515  0.36319281357273786  1.0000
