data_image0
_chemical_formula_structural       Cd10H72C108N36Cl8O24
_chemical_formula_sum              "Cd10 H72 C108 N36 Cl8 O24"
_cell_length_a       12.931898969493266
_cell_length_b       17.220981019778048
_cell_length_c       22.20738407741388
_cell_angle_alpha    71.04124212682287
_cell_angle_beta     76.59948138639557
_cell_angle_gamma    72.20072035293698

_space_group_name_H-M_alt    "P 1"
_space_group_IT_number       1

loop_
  _space_group_symop_operation_xyz
  'x, y, z'

loop_
  _atom_site_type_symbol
  _atom_site_label
  _atom_site_symmetry_multiplicity
  _atom_site_fract_x
  _atom_site_fract_y
  _atom_site_fract_z
  _atom_site_occupancy
  Cd  Cd1       1.0  0.18845875804654372  0.5424862866682572  0.015222795084618223  1.0000
  Cd  Cd2       1.0  0.18314896714109344  0.7332342088288827  0.08850568322978347  1.0000
  Cd  Cd3       1.0  0.17967440954193134  0.773554763789285  0.2498477748191732  1.0000
  Cd  Cd4       1.0  0.1798435069524729  0.7986795541119136  0.4133945304406694  1.0000
  Cd  Cd5       1.0  0.16371960299611032  0.0024701133108990998  0.4841125113034792  1.0000
  Cd  Cd6       1.0  0.8115264658628975  0.4575208206782476  0.984777680476306  1.0000
  Cd  Cd7       1.0  0.8168529470620173  0.2667651201490884  0.911492704348042  1.0000
  Cd  Cd8       1.0  0.820323726443327  0.2264489858473411  0.7501463865643389  1.0000
  Cd  Cd9       1.0  0.8201438428710759  0.2013155426113684  0.5866105624307352  1.0000
  Cd  Cd10      1.0  0.8362765127037691  0.9975273681180568  0.5158862529910166  1.0000
  H   H1        1.0  0.10169039035883293  0.5373261553224609  0.6213771504488861  1.0000
  H   H2        1.0  0.20611684653206203  0.7636716370926919  0.5717759474134995  1.0000
  H   H3        1.0  0.09619332498097334  0.7640254960097437  0.6800455985351377  1.0000
  H   H4        1.0  0.10332764077165278  0.740418894072036  0.7963518124368747  1.0000
  H   H5        1.0  0.2486130050715261  0.47530520114265323  0.8168146181522644  1.0000
  H   H6        1.0  0.2415105283846088  0.4972628324559735  0.7006597654444208  1.0000
  H   H7        1.0  0.8979126462872885  0.5679427347070174  0.05714552660874971  1.0000
  H   H8        1.0  0.8928255362486013  0.7768415084815388  0.12050077777173128  1.0000
  H   H9        1.0  0.7255015588443499  0.7217574216075988  0.19523507319553352  1.0000
  H   H10       1.0  0.5187827976927295  0.761604378644414  0.21065510300908838  1.0000
  H   H11       1.0  0.524683366732475  0.7160320248669477  0.031119263258411013  1.0000
  H   H12       1.0  0.7315552317301269  0.6777126948171812  0.013966858608917151  1.0000
  H   H13       1.0  0.2082162794322927  0.5032075227901132  0.16727719627891696  1.0000
  H   H14       1.0  0.16641515191493286  0.5667910245269284  0.3426955731606541  1.0000
  H   H15       1.0  0.261064559499296  0.4181257047999125  0.37744282595220824  1.0000
  H   H16       1.0  0.24875397768715146  0.27023122651682746  0.43883265161522894  1.0000
  H   H17       1.0  0.08625230295366042  0.26097752030751303  0.294605770747566  1.0000
  H   H18       1.0  0.09204684766348242  0.41006923134280265  0.23375720443052472  1.0000
  H   H19       1.0  0.17550589944271883  0.0362732216959785  0.33385310739210894  1.0000
  H   H20       1.0  0.18068458313289423  0.9848888297703553  0.15851779920870973  1.0000
  H   H21       1.0  0.05099186452829231  0.1373895524172184  0.1473042854630719  1.0000
  H   H22       1.0  0.04793345455333051  0.28776445335660833  0.08644973181147012  1.0000
  H   H23       1.0  0.30023270943864594  0.28089342247525195  0.18577347053615512  1.0000
  H   H24       1.0  0.3046614443474737  0.12943985231365931  0.24723941533164154  1.0000
  H   H25       1.0  0.8844221486145755  0.7915828287029214  0.2785027584763  1.0000
  H   H26       1.0  0.8796062146205159  0.8282865766959374  0.4593206284227235  1.0000
  H   H27       1.0  0.7086305275242851  0.9341820870469917  0.4230077835787327  1.0000
  H   H28       1.0  0.5022734438135075  0.9646707434349012  0.44293268237508704  1.0000
  H   H29       1.0  0.5167911668544181  0.7564463778373776  0.3728132488434214  1.0000
  H   H30       1.0  0.7228937253546164  0.7261784046114599  0.35079932249276163  1.0000
  H   H31       1.0  0.08915088592901552  0.0218558362918628  0.8972114107096445  1.0000
  H   H32       1.0  0.19579155346222177  0.7547642123472967  0.9286650510866324  1.0000
  H   H33       1.0  0.0443830424202076  0.019269574622839493  0.8002327335759674  1.0000
  H   H34       1.0  0.07159895696712938  0.0278946322761726  0.6832660512041926  1.0000
  H   H35       1.0  0.31834546414852133  0.792659822533345  0.7130349808703329  1.0000
  H   H36       1.0  0.29703316989468936  0.7841157386323659  0.8294863793541295  1.0000
  H   H37       1.0  0.8982969844755004  0.46266900025462115  0.3786328772877783  1.0000
  H   H38       1.0  0.7938878004283154  0.23631880876094158  0.4282239126645493  1.0000
  H   H39       1.0  0.9038102163642492  0.23597887321603386  0.3199512601096544  1.0000
  H   H40       1.0  0.8966874884852062  0.2595891488503952  0.20364249827812128  1.0000
  H   H41       1.0  0.7513967527801385  0.5246998115828776  0.1831875217115736  1.0000
  H   H42       1.0  0.7584944215536994  0.502739685051992  0.2993423319482106  1.0000
  H   H43       1.0  0.10208078243121582  0.4320687185791101  0.9428531435710283  1.0000
  H   H44       1.0  0.10717307973342123  0.2231711450169911  0.8794959662050061  1.0000
  H   H45       1.0  0.27449067028265983  0.278255281371699  0.8047611872042565  1.0000
  H   H46       1.0  0.4812071977507415  0.23840513831410703  0.7893382370371994  1.0000
  H   H47       1.0  0.4753211285215784  0.2839666293588435  0.9688775923094681  1.0000
  H   H48       1.0  0.26844772808444617  0.32229358748942627  0.9860304856146058  1.0000
  H   H49       1.0  0.7917871679365974  0.4967841727566978  0.8327202540191506  1.0000
  H   H50       1.0  0.8335982815359981  0.43320434504845207  0.6572981989091318  1.0000
  H   H51       1.0  0.7389501056767572  0.5818734717130523  0.6225520425383665  1.0000
  H   H52       1.0  0.7512573225759741  0.7297686650418741  0.5611665484169135  1.0000
  H   H53       1.0  0.9137474504754266  0.7390212847237194  0.7054002554000365  1.0000
  H   H54       1.0  0.9079524900361093  0.5899307830880502  0.7662436124054821  1.0000
  H   H55       1.0  0.8244930587558486  0.9637255968770757  0.6661534751665387  1.0000
  H   H56       1.0  0.8193096015596595  0.015112555566240398  0.8414878761436526  1.0000
  H   H57       1.0  0.9490164525966448  0.862612255395355  0.8526939290121192  1.0000
  H   H58       1.0  0.9520722472641907  0.7122354580899993  0.9135470823603384  1.0000
  H   H59       1.0  0.6997696276168097  0.7191096948800536  0.8142238781288283  1.0000
  H   H60       1.0  0.6953347742727088  0.8705678333326929  0.7527643488544343  1.0000
  H   H61       1.0  0.11556840289617303  0.208417243732093  0.7214965522711908  1.0000
  H   H62       1.0  0.12038471836325475  0.1717097152213114  0.5406809593230334  1.0000
  H   H63       1.0  0.29136654193357003  0.0658071885190239  0.5769947746872433  1.0000
  H   H64       1.0  0.4977246779260582  0.035323010647829285  0.5570739754573211  1.0000
  H   H65       1.0  0.48319716188874645  0.2435430627397253  0.62719677581633  1.0000
  H   H66       1.0  0.2770971867131991  0.27381036656380786  0.649209618781157  1.0000
  H   H67       1.0  0.9108370822570894  0.9781449055449869  0.1027889834236858  1.0000
  H   H68       1.0  0.8042185814659035  0.24523950002272704  0.07133467147885143  1.0000
  H   H69       1.0  0.9556160656635485  0.9807285028165751  0.1997650137235497  1.0000
  H   H70       1.0  0.9284051268031134  0.9721002603240195  0.3167340863971121  1.0000
  H   H71       1.0  0.6816646295511363  0.207338811804533  0.2869642605578804  1.0000
  H   H72       1.0  0.7029749677868509  0.2158867407593519  0.17051483826669056  1.0000
  C   C1        1.0  0.12667538690654825  0.5946319599758353  0.5926908078449031  1.0000
  C   C2        1.0  0.17918239596274801  0.7115103323300289  0.5677645762783357  1.0000
  C   C3        1.0  0.16565106729210302  0.6316027294487583  0.6843965240804337  1.0000
  C   C4        1.0  0.1282293576192474  0.7008416684998764  0.7103749046368435  1.0000
  C   C5        1.0  0.13278844268857176  0.6876385528574145  0.7749854449820716  1.0000
  C   C6        1.0  0.17471843722741914  0.6065054926892512  0.813867133115842  1.0000
  C   C7        1.0  0.2131466985023422  0.5378751940736776  0.7868620633846747  1.0000
  C   C8        1.0  0.20881646195411455  0.5500779551955334  0.7222235977631256  1.0000
  C   C9        1.0  0.17822374222362916  0.5942250528569489  0.8834974717103776  1.0000
  C   C10       1.0  0.9252538654468836  0.6141529788718642  0.06916556832315732  1.0000
  C   C11       1.0  0.9215524183711351  0.7212639331617439  0.10249764812260055  1.0000
  C   C12       1.0  0.7384940373974872  0.6994068531667776  0.10308577991919073  1.0000
  C   C13       1.0  0.6809833538758099  0.7224026494307482  0.15884416078111493  1.0000
  C   C14       1.0  0.5667140064595558  0.7443191414478889  0.16752200854010368  1.0000
  C   C15       1.0  0.5108599839924113  0.7428337997952568  0.12102353839365787  1.0000
  C   C16       1.0  0.5699405924777139  0.7181741758286152  0.06602888209187797  1.0000
  C   C17       1.0  0.6841872677527691  0.6965864610777928  0.0566201388448349  1.0000
  C   C18       1.0  0.38703726598010485  0.7644138167939191  0.13160673245659643  1.0000
  C   C19       1.0  0.19613369472727277  0.539739915383535  0.20144547157449472  1.0000
  C   C20       1.0  0.17571049188980936  0.5712816042609035  0.29194334999530724  1.0000
  C   C21       1.0  0.17686158145355083  0.42212648910629014  0.30240436933919307  1.0000
  C   C22       1.0  0.22063838458718266  0.3842073239549961  0.3601156608053913  1.0000
  C   C23       1.0  0.21445200508365767  0.3018070907989098  0.39406481238018637  1.0000
  C   C24       1.0  0.16671455032482643  0.2571277833549672  0.370129659957037  1.0000
  C   C25       1.0  0.12309892895124361  0.2964715490396729  0.31246735637788003  1.0000
  C   C26       1.0  0.1266894482008922  0.37937156216811013  0.278506108552186  1.0000
  C   C27       1.0  0.16384027725895578  0.166996338991531  0.40537008248273304  1.0000
  C   C28       1.0  0.17829489048358477  0.0020340463950106005  0.2996731106799686  1.0000
  C   C29       1.0  0.17825242447217005  0.9771123775948282  0.20924589248131295  1.0000
  C   C30       1.0  0.17884813936427693  0.12515759983001828  0.1999594818025159  1.0000
  C   C31       1.0  0.1072780600748189  0.16847264701088696  0.1544577976282113  1.0000
  C   C32       1.0  0.10577961315986782  0.2523199682996093  0.12047217222659161  1.0000
  C   C33       1.0  0.1747168923872735  0.29307056537745524  0.1322443088873797  1.0000
  C   C34       1.0  0.2466193802680934  0.2484482177694076  0.17762969007562654  1.0000
  C   C35       1.0  0.24923218732872235  0.1643540409968836  0.2117156766149648  1.0000
  C   C36       1.0  0.17165927970568623  0.3839493434864352  0.09597930285789152  1.0000
  C   C37       1.0  0.9109829405320867  0.7939413018942005  0.32056367893628124  1.0000
  C   C38       1.0  0.9095117905436826  0.8142203280250867  0.4128308857686421  1.0000
  C   C39       1.0  0.7255969764039848  0.8291001445075351  0.3857012203926047  1.0000
  C   C40       1.0  0.6657472386229272  0.8956507514421971  0.41237717387377865  1.0000
  C   C41       1.0  0.5516841067813515  0.9122927076789936  0.4232475512003759  1.0000
  C   C42       1.0  0.49836007954334594  0.8622627325512369  0.40896747061768923  1.0000
  C   C43       1.0  0.559939123282426  0.7953674586929296  0.38266388629213566  1.0000
  C   C44       1.0  0.6740266977169682  0.7788458831856531  0.3704260249851075  1.0000
  C   C45       1.0  0.3749629433528907  0.8794776965996294  0.4226082985341791  1.0000
  C   C46       1.0  0.11516504232174905  0.9545613047458444  0.9210316886099861  1.0000
  C   C47       1.0  0.17124979785567973  0.8173936752401901  0.9365285598650814  1.0000
  C   C48       1.0  0.167988322106801  0.9002734681442917  0.8219220269844244  1.0000
  C   C49       1.0  0.10484365290115258  0.9697670372787002  0.7811827720438699  1.0000
  C   C50       1.0  0.1203863144220492  0.9748678302454579  0.7158960966811563  1.0000
  C   C51       1.0  0.19654096558222997  0.9107782756725483  0.6912238418903415  1.0000
  C   C52       1.0  0.2596005713210374  0.8422596034621607  0.7326168038286198  1.0000
  C   C53       1.0  0.24691778211203552  0.837220728192072  0.7976216627077762  1.0000
  C   C54       1.0  0.20899540142426087  0.9144796227718642  0.6211590350007299  1.0000
  C   C55       1.0  0.8733145712524363  0.4053625261994184  0.40731813650592835  1.0000
  C   C56       1.0  0.820812492408571  0.2884808619990764  0.4322377858919921  1.0000
  C   C57       1.0  0.834347709491077  0.3684017370789904  0.315605018902943  1.0000
  C   C58       1.0  0.8717754016579774  0.2991639846984596  0.28962415573245437  1.0000
  C   C59       1.0  0.8672240962716627  0.312367652552858  0.2250124002948155  1.0000
  C   C60       1.0  0.825288558157922  0.3935058427431599  0.18613149918267163  1.0000
  C   C61       1.0  0.7868543052941063  0.4621349332867766  0.21313725703146252  1.0000
  C   C62       1.0  0.7911849142205226  0.44992837024575744  0.2777762051548224  1.0000
  C   C63       1.0  0.821775255231408  0.4057838201238085  0.1165015492646333  1.0000
  C   C64       1.0  0.07474095140133134  0.38585657454333233  0.9308343029874209  1.0000
  C   C65       1.0  0.07844360291770161  0.2787493629868862  0.8974979361194002  1.0000
  C   C66       1.0  0.2614983939100028  0.3006052317368527  0.896911963576116  1.0000
  C   C67       1.0  0.3190142486283847  0.2776081073699004  0.8411523131907472  1.0000
  C   C68       1.0  0.4332821666864604  0.2556884371915443  0.8324727831636807  1.0000
  C   C69       1.0  0.4891401560605501  0.2571711988707222  0.8789704738068663  1.0000
  C   C70       1.0  0.43006092873298485  0.2818264160524393  0.933968782415498  1.0000
  C   C71       1.0  0.3158109002152615  0.3034198543266413  0.9433765062278923  1.0000
  C   C72       1.0  0.6129592980354844  0.2355949844550338  0.8683845366451236  1.0000
  C   C73       1.0  0.8038747399983636  0.46025360380168917  0.7985490180491439  1.0000
  C   C74       1.0  0.8243003720295832  0.4287169576813453  0.7080504001566014  1.0000
  C   C75       1.0  0.823148307791918  0.5778727579569177  0.6975929403693896  1.0000
  C   C76       1.0  0.7793778640779436  0.6157893185603311  0.6398805460391657  1.0000
  C   C77       1.0  0.7855614785397192  0.6981908873470459  0.6059350323717255  1.0000
  C   C78       1.0  0.8332969521187863  0.7428714901280601  0.6298710231706152  1.0000
  C   C79       1.0  0.8769073839551353  0.7035265188806078  0.6875348043286921  1.0000
  C   C80       1.0  0.8733178392285482  0.6206233297682503  0.7214962896461117  1.0000
  C   C81       1.0  0.8361610667820473  0.8330049298190048  0.5946310337943997  1.0000
  C   C82       1.0  0.8217020912334905  0.9979685690787646  0.7003314104542541  1.0000
  C   C83       1.0  0.8217423555441387  0.022889617625971005  0.7907581919886226  1.0000
  C   C84       1.0  0.8211524162673243  0.8748436985733788  0.8000435367579967  1.0000
  C   C85       1.0  0.8927254652035829  0.8315291938995131  0.8455397176961766  1.0000
  C   C86       1.0  0.8942282858110104  0.7476805526992861  0.8795241813612762  1.0000
  C   C87       1.0  0.8252943919598935  0.7069292887288154  0.8677517507759589  1.0000
  C   C88       1.0  0.7533821615568359  0.7515549131277196  0.822368215000388  1.0000
  C   C89       1.0  0.7507687911552243  0.8356510457838481  0.7882863030326986  1.0000
  C   C90       1.0  0.8283454269745363  0.6160512049280271  0.9040170332535596  1.0000
  C   C91       1.0  0.0890093852796738  0.2060555917157743  0.6794362101401178  1.0000
  C   C92       1.0  0.09047773596984139  0.185775330097357  0.5871697089017971  1.0000
  C   C93       1.0  0.2743935497942545  0.1708948873477567  0.6143007495864127  1.0000
  C   C94       1.0  0.3342496606372195  0.10434170796729351  0.5876263849858958  1.0000
  C   C95       1.0  0.44830900941180113  0.08769917996254857  0.5767584783135433  1.0000
  C   C96       1.0  0.5016318507005694  0.13773043688556189  0.5910388408609322  1.0000
  C   C97       1.0  0.4400565900284832  0.2046262825118106  0.6173399545322412  1.0000
  C   C98       1.0  0.32596003177203414  0.22114854479962534  0.6295757239034714  1.0000
  C   C99       1.0  0.6250323490776636  0.12050727985221951  0.577404623923961  1.0000
  C   C100      1.0  0.8848269339997615  0.04544193514968949  0.07896840715735459  1.0000
  C   C101      1.0  0.8287539386980284  0.1826075689959197  0.0634722330512787  1.0000
  C   C102      1.0  0.832016995662279  0.09972523674382928  0.17807965566179013  1.0000
  C   C103      1.0  0.8951546599520769  0.0302310537025363  0.21881553166668508  1.0000
  C   C104      1.0  0.8796143839718981  0.025127729247351707  0.2841043348446775  1.0000
  C   C105      1.0  0.8034613231219153  0.0892147658736633  0.30877927386180914  1.0000
  C   C106      1.0  0.7404031537132738  0.15773912315925998  0.26738554301556416  1.0000
  C   C107      1.0  0.753089348912809  0.1627798705528036  0.20238063078051036  1.0000
  C   C108      1.0  0.7910152095387771  0.08550698522366669  0.3788423475671223  1.0000
  N   N1        1.0  0.12727353496679686  0.6276612310838202  0.5303072199264847  1.0000
  N   N2        1.0  0.16119078411317392  0.7012379359652456  0.5150015715227809  1.0000
  N   N3        1.0  0.15888363344539155  0.6446407900224147  0.6185970007505617  1.0000
  N   N4        1.0  0.02733087093835008  0.6178324087258814  0.06457822272930974  1.0000
  N   N5        1.0  0.025147106286773625  0.6852875747304736  0.0854573005912442  1.0000
  N   N6        1.0  0.8557293990450817  0.6785980499855029  0.09299913283643943  1.0000
  N   N7        1.0  0.19450184334142764  0.6205966084858332  0.18762568921390976  1.0000
  N   N8        1.0  0.1816215095343736  0.6400891707779053  0.2443996878145427  1.0000
  N   N9        1.0  0.18351540159631  0.5063793107957864  0.267082203728144  1.0000
  N   N10       1.0  0.17636264413437897  0.9067518347787312  0.2557668928657648  1.0000
  N   N11       1.0  0.1763463826043577  0.9219918712669113  0.3127496563408699  1.0000
  N   N12       1.0  0.17956844030840097  0.039156266572796014  0.23465000068589603  1.0000
  N   N13       1.0  0.012486880528740746  0.7967191262691241  0.3849074743024375  1.0000
  N   N14       1.0  0.013453224090554348  0.7841420984049918  0.32674733916336857  1.0000
  N   N15       1.0  0.8427299139430035  0.8123911291591311  0.3738316141617233  1.0000
  N   N16       1.0  0.11448909639200634  0.9208109920309865  0.9834041436241421  1.0000
  N   N17       1.0  0.1498378884722626  0.834212791410799  0.9926296437858256  1.0000
  N   N18       1.0  0.15116566960653444  0.8920045070194575  0.8892238264823079  1.0000
  N   N19       1.0  0.8727171680994203  0.37232814211608206  0.4696988923795758  1.0000
  N   N20       1.0  0.8388056786523777  0.29875070296483824  0.4850003345050596  1.0000
  N   N21       1.0  0.8411106985569248  0.35535486710428893  0.38140698481535656  1.0000
  N   N22       1.0  0.9726631461319215  0.3821771475304486  0.9354213077440787  1.0000
  N   N23       1.0  0.974850091705605  0.31472192735856197  0.9145400042379918  1.0000
  N   N24       1.0  0.1442666198191844  0.321412749949829  0.9069997998298406  1.0000
  N   N25       1.0  0.8055089816232125  0.37939688077462114  0.8123680284248422  1.0000
  N   N26       1.0  0.8183911195912046  0.3599061909379131  0.7555928461698187  1.0000
  N   N27       1.0  0.8164946442046174  0.4936167203218672  0.7329114136420571  1.0000
  N   N28       1.0  0.8236299547953934  0.09325207920515771  0.7442369955085156  1.0000
  N   N29       1.0  0.8236490018305389  0.07801075523946821  0.6872546317430874  1.0000
  N   N30       1.0  0.8204295159317423  0.9608431729170663  0.7653547579400526  1.0000
  N   N31       1.0  0.9875054613498409  0.20328029565622066  0.6150917580943728  1.0000
  N   N32       1.0  0.9865403220777863  0.21585857539083264  0.673251403213257  1.0000
  N   N33       1.0  0.15726160057140962  0.1876032496772808  0.6261694880053099  1.0000
  N   N34       1.0  0.8855040658787486  0.07919096606929801  0.016595670178489317  1.0000
  N   N35       1.0  0.8501616606535053  0.16578911720871767  0.007370653593760296  1.0000
  N   N36       1.0  0.8488344769658341  0.10799552597164556  0.11077912568735118  1.0000
  Cl  Cl1       1.0  0.3140415969093909  0.6181600573165013  0.02901326789709204  1.0000
  Cl  Cl2       1.0  0.04427021953372193  0.8324410578712929  0.1601725058502979  1.0000
  Cl  Cl3       1.0  0.2866922101619381  0.6927116461718511  0.3480347808779244  1.0000
  Cl  Cl4       1.0  0.05207715693447312  0.9107661480437985  0.47421204607861966  1.0000
  Cl  Cl5       1.0  0.6859602625738647  0.3818366523902129  0.9709781497503798  1.0000
  Cl  Cl6       1.0  0.9557360613898778  0.1675544442811869  0.839827171167066  1.0000
  Cl  Cl7       1.0  0.7133021589740023  0.3072965508751722  0.6519573974318505  1.0000
  Cl  Cl8       1.0  0.9479185612255635  0.0892325855875384  0.5257850978971986  1.0000
  O   O1        1.0  0.21166189187286488  0.5176348232899882  0.9179594640255216  1.0000
  O   O2        1.0  0.14790415264709364  0.6578245381831139  0.9058733532431233  1.0000
  O   O3        1.0  0.3422077267694022  0.7612482180835869  0.08762645433030507  1.0000
  O   O4        1.0  0.33967239913727093  0.7833733286570351  0.18365047987056465  1.0000
  O   O5        1.0  0.19684295362506535  0.1364590477531777  0.4603717854995182  1.0000
  O   O6        1.0  0.12940448074552083  0.1257352886353615  0.37960407864203927  1.0000
  O   O7        1.0  0.22850673361209317  0.4219885667704019  0.11108447961471778  1.0000
  O   O8        1.0  0.11411765816053081  0.41908500881067573  0.05025627764221238  1.0000
  O   O9        1.0  0.3354332442424023  0.8175225297563601  0.4300014711926394  1.0000
  O   O10       1.0  0.3231640431813219  0.9544883235469045  0.42513399152416304  1.0000
  O   O11       1.0  0.2431041576907091  0.8471988073176533  0.6043939399447141  1.0000
  O   O12       1.0  0.18115578950756372  0.9901413764413007  0.5838426118939424  1.0000
  O   O13       1.0  0.7883261198154089  0.4823710019293515  0.08204185986919303  1.0000
  O   O14       1.0  0.8520954446791152  0.34218495538253524  0.09412497409768147  1.0000
  O   O15       1.0  0.6577995059401829  0.2387440545815096  0.9123689739376316  1.0000
  O   O16       1.0  0.6603210714131293  0.2166531661130549  0.8163334832528976  1.0000
  O   O17       1.0  0.8031621321036014  0.8635352239302136  0.5396301760344855  1.0000
  O   O18       1.0  0.8705882999013569  0.8742679591197415  0.6203972552107188  1.0000
  O   O19       1.0  0.7714959988603526  0.5780157838951183  0.8889102436964292  1.0000
  O   O20       1.0  0.8858842537688787  0.580914314816951  0.9497416613115064  1.0000
  O   O21       1.0  0.6645584357714469  0.18246616367292748  0.5700015301808605  1.0000
  O   O22       1.0  0.6768352776971581  0.045496708253786294  0.5748864672334122  1.0000
  O   O23       1.0  0.7569106357002867  0.152779653004913  0.39561843205687086  1.0000
  O   O24       1.0  0.8188587403128338  0.009837557497590401  0.4161561641610376  1.0000
