data_image0
_chemical_formula_structural       Nd4H20C32N4O28
_chemical_formula_sum              "Nd4 H20 C32 N4 O28"
_cell_length_a       7.403597849468155
_cell_length_b       10.501127027318137
_cell_length_c       14.953796210805677
_cell_angle_alpha    77.16857339386347
_cell_angle_beta     75.67314429596723
_cell_angle_gamma    69.34694870921282

_space_group_name_H-M_alt    "P 1"
_space_group_IT_number       1

loop_
  _space_group_symop_operation_xyz
  'x, y, z'

loop_
  _atom_site_type_symbol
  _atom_site_label
  _atom_site_symmetry_multiplicity
  _atom_site_fract_x
  _atom_site_fract_y
  _atom_site_fract_z
  _atom_site_occupancy
  Nd  Nd1       1.0  0.3798269795693439  0.5695022779827212  0.882013646718022  1.0000
  Nd  Nd2       1.0  0.831536705569178  0.930301049974723  0.6179878321957517  1.0000
  Nd  Nd3       1.0  0.6201715472326088  0.4305058779962179  0.11797963758503728  1.0000
  Nd  Nd4       1.0  0.16845802773958946  0.0696947617698598  0.3820145348623499  1.0000
  H   H1        1.0  0.13428330619921508  0.12352921598848354  0.7383501032869547  1.0000
  H   H2        1.0  0.9964526570133007  0.37623357320342166  0.7615597442140681  1.0000
  H   H3        1.0  0.8657046227850029  0.876482031708456  0.26164919249359997  1.0000
  H   H4        1.0  0.003553945248114675  0.6237581241706138  0.23844830682744336  1.0000
  H   H5        1.0  0.17114806373511726  0.21908083524412797  0.8736250117018116  1.0000
  H   H6        1.0  0.2643756417273193  0.2807188294575269  0.6263166893685509  1.0000
  H   H7        1.0  0.8288343471559899  0.7809273264141366  0.12637589666411483  1.0000
  H   H8        1.0  0.7356339963261362  0.7192718379212977  0.3736903062968294  1.0000
  H   H9        1.0  0.27089969533481917  0.0558742122246869  0.013975906718684405  1.0000
  H   H10       1.0  0.3411355523814665  0.4440451390184492  0.4860010636545552  1.0000
  H   H11       1.0  0.7290890017154582  0.9441329181297957  0.9860221193742048  1.0000
  H   H12       1.0  0.6588743788973517  0.5559475865971848  0.5140058993909448  1.0000
  H   H13       1.0  0.5725899291437885  0.406700417762778  0.7030351329775896  1.0000
  H   H14       1.0  0.6826452702166744  0.0932637918885817  0.7970035344666045  1.0000
  H   H15       1.0  0.42741089891723044  0.5933077390690684  0.2969600127356101  1.0000
  H   H16       1.0  0.31735802913463834  0.9067289294412575  0.20299482350515063  1.0000
  H   H17       1.0  0.5559567676187387  0.32260938147351226  0.8063518998194751  1.0000
  H   H18       1.0  0.6851165665270075  0.1772706103622426  0.6936669034286425  1.0000
  H   H19       1.0  0.4440561341784389  0.677400832249397  0.19364261483659106  1.0000
  H   H20       1.0  0.3148831892318002  0.8227200540393653  0.3063333140599056  1.0000
  C   C1        1.0  0.21542907743552314  0.8456928971289274  0.7316564615955911  1.0000
  C   C2        1.0  0.7925942385771304  0.653987782321117  0.768188980779378  1.0000
  C   C3        1.0  0.7845794699517225  0.1543152570804622  0.26833520581803316  1.0000
  C   C4        1.0  0.2074182085358559  0.34600597283406387  0.23181907215548136  1.0000
  C   C5        1.0  0.23530585558278014  0.9150074325484849  0.8056363068569895  1.0000
  C   C6        1.0  0.9560064755182788  0.5847718486564375  0.6943043369996786  1.0000
  C   C7        1.0  0.7646896354271391  0.085001753425658  0.1943580328222012  1.0000
  C   C8        1.0  0.044007111536387845  0.41522087694326604  0.3057031525285367  1.0000
  C   C9        1.0  0.18548557332446353  0.057362363379887385  0.8002482253310248  1.0000
  C   C10       1.0  0.0433903938264493  0.4424241085128243  0.6996859936027208  1.0000
  C   C11       1.0  0.8144959694746351  0.9426468261067881  0.1997502255982297  1.0000
  C   C12       1.0  0.9566206201194802  0.5575686179610316  0.30032265535868413  1.0000
  C   C13       1.0  0.20293100058076172  0.1091676652604292  0.8748466669913455  1.0000
  C   C14       1.0  0.1873196906744711  0.3906225033549974  0.6251094261950811  1.0000
  C   C15       1.0  0.7970533634352676  0.8908394655444026  0.12515150008255196  1.0000
  C   C16       1.0  0.8126931740046361  0.6093661066346243  0.374899638994563  1.0000
  C   C17       1.0  0.2618226002017394  0.0180972464258176  0.9535661614838773  1.0000
  C   C18       1.0  0.23382133121197055  0.481752871673855  0.5464200830726399  1.0000
  C   C19       1.0  0.7381664808815673  0.9819078252574374  0.04643122976518292  1.0000
  C   C20       1.0  0.7661851923991848  0.5182377961500179  0.4535872290679776  1.0000
  C   C21       1.0  0.30764556138715476  0.8770754639147997  0.9536038364755939  1.0000
  C   C22       1.0  0.138553449122412  0.6227933553660707  0.5464081575837199  1.0000
  C   C23       1.0  0.692343519696152  0.12292960776845521  0.04639355477346638  1.0000
  C   C24       1.0  0.8614508518799511  0.37719834115505785  0.45359803204765825  1.0000
  C   C25       1.0  0.3667021810951995  0.7697762632664721  0.035596081615842885  1.0000
  C   C26       1.0  0.17237980999914995  0.7301411869817686  0.46445448106054954  1.0000
  C   C27       1.0  0.633290861146726  0.2302257201794546  0.9644004623711951  1.0000
  C   C28       1.0  0.8276216484105918  0.2698505082573419  0.5355490042027355  1.0000
  C   C29       1.0  0.9536733459799223  0.5753688679288801  0.010181153550021742  1.0000
  C   C30       1.0  0.5394445182309937  0.9247271669127813  0.48962432089442126  1.0000
  C   C31       1.0  0.046325531321976136  0.4246403158731625  0.9898098488106014  1.0000
  C   C32       1.0  0.4605404426006743  0.07526658879364591  0.5103805386309546  1.0000
  N   N1        1.0  0.2979816603444409  0.8280868588735187  0.8800802229292373  1.0000
  N   N2        1.0  0.006212658626033283  0.671747783472405  0.619898310572829  1.0000
  N   N3        1.0  0.7020140452405883  0.17192335578727116  0.11991334522918604  1.0000
  N   N4        1.0  0.9937951286942523  0.328247000390661  0.38010826886431903  1.0000
  O   O1        1.0  0.2831846493469285  0.7146608013553148  0.7420909831877155  1.0000
  O   O2        1.0  0.7395692739470974  0.7850319921044857  0.7577471601061632  1.0000
  O   O3        1.0  0.7168476973785047  0.28535043492986745  0.2578948194094793  1.0000
  O   O4        1.0  0.2604339108550633  0.21496279005275912  0.24225569651071052  1.0000
  O   O5        1.0  0.12799709101264525  0.9210831502749668  0.6665225763728345  1.0000
  O   O6        1.0  0.7154451185375736  0.5785642397118878  0.8332618273739738  1.0000
  O   O7        1.0  0.8719988626805703  0.0789250065781175  0.3334718673634213  1.0000
  O   O8        1.0  0.28456224885079  0.42143569319997454  0.16675062445300878  1.0000
  O   O9        1.0  0.419079990674575  0.6426711243789355  0.023196822162184053  1.0000
  O   O10       1.0  0.08526032043081265  0.8572431299639829  0.4768637129110971  1.0000
  O   O11       1.0  0.5809131637507008  0.35732880212282225  0.9768021078243551  1.0000
  O   O12       1.0  0.9147362184939497  0.1427444492518646  0.5231399785729564  1.0000
  O   O13       1.0  0.36057900803995613  0.807684180109163  0.1104866307475021  1.0000
  O   O14       1.0  0.2790883391867925  0.6922771422813625  0.38955405834149553  1.0000
  O   O15       1.0  0.6394264133209048  0.19231677200642847  0.8895079084376859  1.0000
  O   O16       1.0  0.7209199015984993  0.307709406038569  0.6104482958044172  1.0000
  O   O17       1.0  0.04394009394615513  0.6598642816814504  0.9668008759385884  1.0000
  O   O18       1.0  0.6710322925771027  0.8401727745779012  0.5328910001366224  1.0000
  O   O19       1.0  0.9560537181543224  0.34014592953582923  0.03318629954470243  1.0000
  O   O20       1.0  0.32894750066139267  0.15981892291296157  0.4671131900316894  1.0000
  O   O21       1.0  0.7950622706851506  0.601795658945946  0.06916395021038814  1.0000
  O   O22       1.0  0.4663997448403664  0.8984827218612423  0.43049246227208465  1.0000
  O   O23       1.0  0.20493546667506024  0.3982145544115809  0.9308276155568863  1.0000
  O   O24       1.0  0.5335938942171977  0.10150588648627949  0.5695107741664388  1.0000
  O   O25       1.0  0.5002842776628785  0.41273142514290834  0.7673114495002907  1.0000
  O   O26       1.0  0.6809393202533371  0.08708885737972588  0.7327151063442939  1.0000
  O   O27       1.0  0.4997195289155914  0.5872767321074261  0.23268489015933372  1.0000
  O   O28       1.0  0.319059510138885  0.912903865263999  0.26728490303013797  1.0000
