data_image0
_chemical_formula_structural       Cu3H44C24S2I8N8
_chemical_formula_sum              "Cu3 H44 C24 S2 I8 N8"
_cell_length_a       7.738922468057444
_cell_length_b       9.71720356256886
_cell_length_c       15.531896815010203
_cell_angle_alpha    75.84728608499809
_cell_angle_beta     84.17699189437283
_cell_angle_gamma    69.37369397505262

_space_group_name_H-M_alt    "P 1"
_space_group_IT_number       1

loop_
  _space_group_symop_operation_xyz
  'x, y, z'

loop_
  _atom_site_type_symbol
  _atom_site_label
  _atom_site_symmetry_multiplicity
  _atom_site_fract_x
  _atom_site_fract_y
  _atom_site_fract_z
  _atom_site_occupancy
  Cu  Cu1       1.0  0.4999986620890268  2.341774006699859e-06  3.7387231089653875e-07  1.0000
  Cu  Cu2       1.0  0.8687233305295193  0.04902635348670971  0.0633700828263244  1.0000
  Cu  Cu3       1.0  0.13127661827545714  0.9509685000407588  0.9366281181891906  1.0000
  H   H1        1.0  0.39254305977392073  0.8856371654050152  0.39616669588231446  1.0000
  H   H2        1.0  0.6074536256110719  0.11436558320227873  0.6038336840704588  1.0000
  H   H3        1.0  0.24565216993336467  0.8597349709862885  0.32386745933087013  1.0000
  H   H4        1.0  0.7543462004718007  0.14027002854748363  0.6761299197282113  1.0000
  H   H5        1.0  0.15213241642285164  0.12269311459798624  0.26232215092397837  1.0000
  H   H6        1.0  0.8478654658846381  0.8773130082965467  0.7376802320005353  1.0000
  H   H7        1.0  0.32203349804335346  0.1383709576312597  0.3260730633384767  1.0000
  H   H8        1.0  0.6779732343724587  0.8616295088558701  0.6739239492422016  1.0000
  H   H9        1.0  0.34440862405982375  0.5200917855641479  0.04420950281109982  1.0000
  H   H10       1.0  0.6556011615037036  0.4799075419682668  0.9557901078651624  1.0000
  H   H11       1.0  0.11662781482559133  0.5164833907636961  0.0468064693809751  1.0000
  H   H12       1.0  0.8833741794223186  0.4835159637516713  0.9531909459978181  1.0000
  H   H13       1.0  0.2063463440146407  0.34620832415291863  0.9503105705003205  1.0000
  H   H14       1.0  0.7936587123965065  0.6537898932638841  0.049687510731658356  1.0000
  H   H15       1.0  0.43140127227882613  0.3567628948764111  0.9414460643178655  1.0000
  H   H16       1.0  0.5686090689538685  0.6432319234987391  0.05855420498652817  1.0000
  H   H17       1.0  0.5501227776356783  0.6318860169024917  0.24389971499375213  1.0000
  H   H18       1.0  0.4498813386421715  0.3681144546604217  0.7561006449995062  1.0000
  H   H19       1.0  0.7551813111445539  0.6556520816140932  0.2680766482430172  1.0000
  H   H20       1.0  0.24482017697465608  0.3443483925497333  0.7319296354860042  1.0000
  H   H21       1.0  0.44926155286117325  0.6192728186779209  0.40488037804450977  1.0000
  H   H22       1.0  0.5507332793037633  0.38073444379003973  0.5951187627036276  1.0000
  H   H23       1.0  0.659766710161733  0.6350927971420361  0.42814085050993356  1.0000
  H   H24       1.0  0.3402230819685314  0.3649077156400865  0.5718640725152965  1.0000
  H   H25       1.0  0.6203276967192791  0.3810034878085134  0.3528782309833573  1.0000
  H   H26       1.0  0.3796625444414372  0.6189958935695332  0.6471300612268251  1.0000
  H   H27       1.0  0.6767847799870522  0.36298245465509643  0.4637149135919216  1.0000
  H   H28       1.0  0.32320398941256895  0.6370236949760584  0.5362898461050135  1.0000
  H   H29       1.0  0.8333154007606964  0.3924278129435876  0.3765730277262733  1.0000
  H   H30       1.0  0.1666743883643988  0.6075726992198157  0.6234325393797562  1.0000
  H   H31       1.0  0.38503305888483624  0.4825508355072758  0.19302241987766414  1.0000
  H   H32       1.0  0.6149653911125057  0.5174507807048557  0.8069780453517906  1.0000
  H   H33       1.0  0.40719484813164547  0.30732610590766285  0.26527323767125915  1.0000
  H   H34       1.0  0.5928109501612084  0.6926766159630091  0.7347247655090995  1.0000
  H   H35       1.0  0.040057323176441124  0.5615463191225629  0.20697960062997112  1.0000
  H   H36       1.0  0.9599478308579066  0.4384485186848934  0.7930177022875781  1.0000
  H   H37       1.0  0.059201624907480266  0.3891137639745992  0.2830646615334373  1.0000
  H   H38       1.0  0.9407995178148311  0.6108844632213889  0.7169361865346033  1.0000
  H   H39       1.0  0.24126426180501415  0.45724562657162005  0.38556797277666277  1.0000
  H   H40       1.0  0.7587340965794666  0.5427593704872893  0.6144319826056089  1.0000
  H   H41       1.0  0.01713874616208236  0.5923762620271448  0.3657507883107057  1.0000
  H   H42       1.0  0.9828549716777032  0.4076242434506626  0.6342487915552653  1.0000
  H   H43       1.0  0.20869100388124903  0.6322849546505794  0.30756261749405667  1.0000
  H   H44       1.0  0.791305235478468  0.3677189259795028  0.6924337491929577  1.0000
  C   C1        1.0  0.5413512847286126  0.9372355541460423  0.2013032767572369  1.0000
  C   C2        1.0  0.4586428235856486  0.06276720758035034  0.7986920775577174  1.0000
  C   C3        1.0  0.35477728756579535  0.9066645048639048  0.32671607100289174  1.0000
  C   C4        1.0  0.645219309211505  0.09334162520888613  0.6732831550219132  1.0000
  C   C5        1.0  0.29707809851574035  0.07484460653073913  0.28218231652845555  1.0000
  C   C6        1.0  0.7029207269302161  0.9251592628364026  0.7178171435539866  1.0000
  C   C7        1.0  0.37429420401416985  0.19865625688765223  0.128980712099839  1.0000
  C   C8        1.0  0.6257125284016352  0.8013442095994778  0.8710163004808464  1.0000
  C   C9        1.0  0.2627867106848  0.44487134781288523  0.0529267823072743  1.0000
  C   C10       1.0  0.7372191762157524  0.55512799259229  0.9470723748010526  1.0000
  C   C11       1.0  0.3225540225965203  0.33693197532410596  0.9889515778518285  1.0000
  C   C12       1.0  0.6774545570289943  0.6630639760649331  0.011047962095091244  1.0000
  C   C13       1.0  0.6100804110390711  0.6754342916965044  0.2885626373175539  1.0000
  C   C14       1.0  0.38992155315712995  0.32456505663170543  0.7114412188692396  1.0000
  C   C15       1.0  0.5954072422864839  0.5936711828054727  0.3845406259624298  1.0000
  C   C16       1.0  0.40458432046647613  0.40632819881891186  0.615463094177876  1.0000
  C   C17       1.0  0.6860492826924158  0.4238002480444295  0.3948873605795171  1.0000
  C   C18       1.0  0.31394478354944494  0.5762025050199358  0.6051170108666353  1.0000
  C   C19       1.0  0.3146382362508148  0.3988906421348162  0.2167653080493324  1.0000
  C   C20       1.0  0.6853632909356191  0.6011098400723258  0.7832326026293046  1.0000
  C   C21       1.0  0.12836898948883393  0.47305215721557664  0.25880751495141396  1.0000
  C   C22       1.0  0.8716330873564214  0.5269438145968693  0.7411923425169533  1.0000
  C   C23       1.0  0.1498908864737983  0.5420846027368569  0.3335747215274694  1.0000
  C   C24       1.0  0.8501054354832643  0.4579158951903041  0.6664240872491192  1.0000
  S   S1        1.0  0.706429623857595  0.8891071499920288  0.12235634452207476  1.0000
  S   S2        1.0  0.2935625951929167  0.1108843434844573  0.8776466118511407  1.0000
  I   I1        1.0  0.199951722020529  0.8450910814294449  0.10631392827411901  1.0000
  I   I2        1.0  0.8000512889476852  0.1549026349994662  0.8936849385945678  1.0000
  I   I3        1.0  0.8193358108789608  0.26023825005573553  0.14856040153735958  1.0000
  I   I4        1.0  0.1806797746503433  0.7397565606427111  0.8514305966186839  1.0000
  I   I5        1.0  0.8129537154027489  0.048513565644228214  0.32664859561813836  1.0000
  I   I6        1.0  0.18702710349690205  0.9514993776131678  0.6733477964405947  1.0000
  I   I7        1.0  0.8125162506766228  0.8396858036077363  0.49212249371734623  1.0000
  I   I8        1.0  0.18749653248381998  0.1603157732413365  0.5078714762377317  1.0000
  N   N1        1.0  0.41797646521867887  0.07868472496957682  0.2019619326481674  1.0000
  N   N2        1.0  0.582024946331877  0.9213033584486401  0.7980417331229928  1.0000
  N   N3        1.0  0.5160413121851447  0.8384275200962108  0.273575998648532  1.0000
  N   N4        1.0  0.4839557921969371  0.16155831623387945  0.7264353035904987  1.0000
  N   N5        1.0  0.2985072735640201  0.3417953792343199  0.1406024948638063  1.0000
  N   N6        1.0  0.7014987109597328  0.6582005815615163  0.8593958839300981  1.0000
  N   N7        1.0  0.3911139524339333  0.18386391289272552  0.04637518998557508  1.0000
  N   N8        1.0  0.6088881214061599  0.8161320583010083  0.9536253115635914  1.0000
