data_image0
_chemical_formula_structural       Na2B2H32C24S6N12
_chemical_formula_sum              "Na2 B2 H32 C24 S6 N12"
_cell_length_a       7.957855088396593
_cell_length_b       10.049682932824439
_cell_length_c       11.355424110806679
_cell_angle_alpha    79.67819137350268
_cell_angle_beta     82.44467280809457
_cell_angle_gamma    70.58228883717643

_space_group_name_H-M_alt    "P 1"
_space_group_IT_number       1

loop_
  _space_group_symop_operation_xyz
  'x, y, z'

loop_
  _atom_site_type_symbol
  _atom_site_label
  _atom_site_symmetry_multiplicity
  _atom_site_fract_x
  _atom_site_fract_y
  _atom_site_fract_z
  _atom_site_occupancy
  Na  Na1       1.0  0.19222912774154824  0.5435655963860739  0.5466800600910346  1.0000
  Na  Na2       1.0  0.8077706570553715  0.456434360739209  0.45331973669198794  1.0000
  B   B1        1.0  0.25939689452823  0.36809356530810083  0.286101401451738  1.0000
  B   B2        1.0  0.7406016207753157  0.6319063965739887  0.7138985085580601  1.0000
  H   H1        1.0  0.35399473016796895  0.4168618342755224  0.03415625001082388  1.0000
  H   H2        1.0  0.6460058898844706  0.583135990232279  0.9658438047713391  1.0000
  H   H3        1.0  0.14999653020030485  0.3429643151175127  0.889638675078892  1.0000
  H   H4        1.0  0.8500045003712132  0.657032439222  0.11036327122959476  1.0000
  H   H5        1.0  0.8560718947166065  0.16208455823151982  0.09793675614494651  1.0000
  H   H6        1.0  0.14392408160018993  0.8379154131641755  0.9020633803183955  1.0000
  H   H7        1.0  0.9513498597584088  0.1840265225308215  0.9448966543730749  1.0000
  H   H8        1.0  0.04864780723386268  0.8159723797290964  0.055102616599690214  1.0000
  H   H9        1.0  0.7694358718938191  0.324138436114616  0.9996989793905159  1.0000
  H   H10       1.0  0.23056434714094814  0.6758636488713422  0.00030044616660517974  1.0000
  H   H11       1.0  0.44455778660351813  0.1326274815497896  0.15447125384059038  1.0000
  H   H12       1.0  0.5554437114260296  0.8673777889892449  0.8455293207910445  1.0000
  H   H13       1.0  0.7130438758738507  0.9188300830776512  0.277447836845667  1.0000
  H   H14       1.0  0.28696058587888734  0.08117411549858389  0.7225508778052259  1.0000
  H   H15       1.0  0.8549150632961046  0.0501561535053767  0.49984984470900445  1.0000
  H   H16       1.0  0.14508554609331262  0.9498416652131072  0.5001528538632982  1.0000
  H   H17       1.0  0.8407091755598659  0.886063601397957  0.46691370098866264  1.0000
  H   H18       1.0  0.15928806669596443  0.11393636331116143  0.5330872035112934  1.0000
  H   H19       1.0  0.6916732751572991  0.9761167627973749  0.5806880833589787  1.0000
  H   H20       1.0  0.30832396709852367  0.0238832019117439  0.4193128211409772  1.0000
  H   H21       1.0  0.5920110226057818  0.43197119150023167  0.21010250684692977  1.0000
  H   H22       1.0  0.4079874926977638  0.5680287703818507  0.7898974031628683  1.0000
  H   H23       1.0  0.5499301817875663  0.7223384205902619  0.17637073639487974  1.0000
  H   H24       1.0  0.4500729808059631  0.2776593963337035  0.8236282106703571  1.0000
  H   H25       1.0  0.17777534136581596  0.9460171599623524  0.1426061582711355  1.0000
  H   H26       1.0  0.8222257164788119  0.053982794335901516  0.8573926440217364  1.0000
  H   H27       1.0  0.2956480627994652  0.9252643494794411  0.2723505585404737  1.0000
  H   H28       1.0  0.7043521668983247  0.07473774129584138  0.7276462232265076  1.0000
  H   H29       1.0  0.0750097844416189  0.9119387936602054  0.2892837469145917  1.0000
  H   H30       1.0  0.9249925464507314  0.0880611578110191  0.7107140608881367  1.0000
  H   H31       1.0  0.156361943064617  0.371085175390256  0.3744574542302176  1.0000
  H   H32       1.0  0.8436361510568277  0.628915850870797  0.6255432080433962  1.0000
  C   C1        1.0  0.24243019858100467  0.375865664072542  0.057777659390701806  1.0000
  C   C2        1.0  0.7575712531726141  0.6241300258880002  0.9422235346539765  1.0000
  C   C3        1.0  0.14701644492527777  0.33705635624633595  0.9864726679547078  1.0000
  C   C4        1.0  0.8529854351191305  0.6629382731947828  0.013526011299397612  1.0000
  C   C5        1.0  0.03574167745561856  0.30004569185938107  0.17935522635790593  1.0000
  C   C6        1.0  0.9642576695491055  0.6999521354754492  0.8206458229144149  1.0000
  C   C7        1.0  0.8916262467965906  0.23666855947882234  0.023795996842885376  1.0000
  C   C8        1.0  0.10837268613471437  0.7633303360945264  0.9762040421664865  1.0000
  C   C9        1.0  0.49678209719493094  0.1277114690571892  0.23900302842420731  1.0000
  C   C10       1.0  0.5032206608265851  0.8722906064151701  0.7609961706793699  1.0000
  C   C11       1.0  0.6275687718148506  0.0222125247321046  0.29855762296313776  1.0000
  C   C12       1.0  0.3724318779034305  0.9777916861847731  0.7014423126314568  1.0000
  C   C13       1.0  0.5209652823490599  0.20290637133462042  0.40864264957608043  1.0000
  C   C14       1.0  0.4790328046636958  0.7970946510668925  0.5913597752242978  1.0000
  C   C15       1.0  0.7644630562581652  0.9904558098558668  0.49311628310906036  1.0000
  C   C16       1.0  0.23553545193669126  0.009544148166675398  0.5068853894275023  1.0000
  C   C17       1.0  0.4727547988086442  0.523732106055789  0.2173264670792818  1.0000
  C   C18       1.0  0.5272470907371627  0.4762657136952128  0.7826734744761055  1.0000
  C   C19       1.0  0.45354967348976777  0.6657359155196403  0.20199482662646057  1.0000
  C   C20       1.0  0.5464517984282865  0.3342629705401024  0.7980049859293601  1.0000
  C   C21       1.0  0.18570435068991736  0.6393445057729252  0.2698371292497512  1.0000
  C   C22       1.0  0.81429628597261  0.3606565129042992  0.7301624253069363  1.0000
  C   C23       1.0  0.2019129665551133  0.8891537786347146  0.23412545806893095  1.0000
  C   C24       1.0  0.7980876772160955  0.11084724390205737  0.7658723339609993  1.0000
  S   S1        1.0  0.905059388840769  0.2532299714022487  0.2976523832891971  1.0000
  S   S2        1.0  0.09493912646277648  0.7467699904798407  0.7023475267206011  1.0000
  S   S3        1.0  0.5012503866099536  0.30089614029563455  0.5196495517089731  1.0000
  S   S4        1.0  0.4987481180305623  0.6991038157971302  0.4803530020909648  1.0000
  S   S5        1.0  0.9676484916509696  0.6761311220898988  0.3239330856787035  1.0000
  S   S6        1.0  0.03235172738379797  0.32387096289606626  0.6760663398784175  1.0000
  N   N1        1.0  0.1745812079027402  0.3530676667827066  0.1762416235226496  1.0000
  N   N2        1.0  0.8254189909675986  0.6469312221040583  0.8237591835233289  1.0000
  N   N3        1.0  0.021030694134935888  0.2893044644926591  0.06212589733680568  1.0000
  N   N4        1.0  0.9789720306663979  0.710691222640854  0.9378743022177147  1.0000
  N   N5        1.0  0.42996708556884766  0.2387317059072345  0.3071465896394159  1.0000
  N   N6        1.0  0.5700318568638567  0.7612703799759898  0.692854711671238  1.0000
  N   N7        1.0  0.639984928043731  0.0687681926929642  0.40335755935488043  1.0000
  N   N8        1.0  0.36001570151010764  0.9312328221247129  0.5966437577285647  1.0000
  N   N9        1.0  0.3073536154261165  0.5082440592777361  0.2584028041242377  1.0000
  N   N10       1.0  0.6926448963230882  0.4917559006745763  0.7415979871489428  1.0000
  N   N11       1.0  0.27633560057741136  0.7365030410024503  0.23371266559971102  1.0000
  N   N12       1.0  0.7236658748949836  0.26349584698705547  0.7662862656927345  1.0000
