data_image0
_chemical_formula_structural       Cd2H24C32S4N12
_chemical_formula_sum              "Cd2 H24 C32 S4 N12"
_cell_length_a       5.633938194831503
_cell_length_b       7.286505186385095
_cell_length_c       21.084574351062034
_cell_angle_alpha    89.99989879003347
_cell_angle_beta     95.67121874725538
_cell_angle_gamma    90.00113858331969

_space_group_name_H-M_alt    "P 1"
_space_group_IT_number       1

loop_
  _space_group_symop_operation_xyz
  'x, y, z'

loop_
  _atom_site_type_symbol
  _atom_site_label
  _atom_site_symmetry_multiplicity
  _atom_site_fract_x
  _atom_site_fract_y
  _atom_site_fract_z
  _atom_site_occupancy
  Cd  Cd1       1.0  0.9999938520308194  0.5000194114535859  6.421035791988879e-07  1.0000
  Cd  Cd2       1.0  0.9999924795457037  0.9999822441750155  0.5000002713371146  1.0000
  H   H1        1.0  0.8558920721182374  0.5777576387808095  0.13474142194558414  1.0000
  H   H2        1.0  0.1441024960880313  0.07775082324858573  0.36526844825089455  1.0000
  H   H3        1.0  0.14409496182020118  0.4222564139377525  0.8652642113029002  1.0000
  H   H4        1.0  0.855879256287956  0.9222385262292364  0.6347375722653935  1.0000
  H   H5        1.0  0.4746382386042427  0.30940125603497387  0.10882048773429887  1.0000
  H   H6        1.0  0.5253218221100512  0.809389659262166  0.39117827336517047  1.0000
  H   H7        1.0  0.5253437088434794  0.6906018174704016  0.8911741454403523  1.0000
  H   H8        1.0  0.47464804443841757  0.19057086974643772  0.6088190076708101  1.0000
  H   H9        1.0  0.6531889494957  0.265828555376352  0.2520955586110886  1.0000
  H   H10       1.0  0.34680896803891414  0.76583279893984  0.24790242298484336  1.0000
  H   H11       1.0  0.34681240652071915  0.7341704010753246  0.7478979717145008  1.0000
  H   H12       1.0  0.6532003777922953  0.23416890235693436  0.7520974093615889  1.0000
  H   H13       1.0  0.5294369998069328  0.33759431058435035  0.35940505267606676  1.0000
  H   H14       1.0  0.47058065149185774  0.837606363935848  0.14059322519140238  1.0000
  H   H15       1.0  0.470595187034604  0.6623895496858054  0.6405927843747036  1.0000
  H   H16       1.0  0.5294286283000532  0.16240357176174308  0.8594061314543067  1.0000
  H   H17       1.0  0.1434424768019866  0.48857052188751743  0.3713276688599264  1.0000
  H   H18       1.0  0.856585397866901  0.9885760024313514  0.12867688469714264  1.0000
  H   H19       1.0  0.8565802059711701  0.5114147106932664  0.6286785539398989  1.0000
  H   H20       1.0  0.14341992009202897  0.011432560843395804  0.8713195587885492  1.0000
  H   H21       1.0  0.8693729804394009  0.5792231424794779  0.2762439110992076  1.0000
  H   H22       1.0  0.13064598594304036  0.0792222558226214  0.22376209050675294  1.0000
  H   H23       1.0  0.1306409885852275  0.42077032443403084  0.7237635914152064  1.0000
  H   H24       1.0  0.8693473178313198  0.9207863073559749  0.7762374765415101  1.0000
  C   C1        1.0  0.34004298641017533  0.36962934488979476  0.1358892301302248  1.0000
  C   C2        1.0  0.6599734698789418  0.8696322186371218  0.36410711612397506  1.0000
  C   C3        1.0  0.6599584358645882  0.6303778459615328  0.8641047758962583  1.0000
  C   C4        1.0  0.3400690811846943  0.13036673811529204  0.6358885192884214  1.0000
  C   C5        1.0  0.3325366728166657  0.3843508730664809  0.20292813218384248  1.0000
  C   C6        1.0  0.667446506685522  0.8843472986439734  0.2970690814054606  1.0000
  C   C7        1.0  0.6674504898073863  0.6156590624797075  0.797065638022012  1.0000
  C   C8        1.0  0.33254178023119607  0.11564479569179302  0.7029327757139254  1.0000
  C   C9        1.0  0.4844638918585246  0.334068512250454  0.25715761151229083  1.0000
  C   C10       1.0  0.5155503651984289  0.8340711640407718  0.24284251012966246  1.0000
  C   C11       1.0  0.5155535724365877  0.6659290719189669  0.7428366598123259  1.0000
  C   C12       1.0  0.4844591128756619  0.16592642005471703  0.7571582736183372  1.0000
  C   C13       1.0  0.41361433703495004  0.37352984299635483  0.31675268801627954  1.0000
  C   C14       1.0  0.5863993858512302  0.8735420491194289  0.18324883207301204  1.0000
  C   C15       1.0  0.5864021384573306  0.6264581343526319  0.6832472622403357  1.0000
  C   C16       1.0  0.4136059320346773  0.12646102455516228  0.8167476114126231  1.0000
  C   C17       1.0  0.1925955357505345  0.4608251828776845  0.32346818921610065  1.0000
  C   C18       1.0  0.8074258567183817  0.9608406974311308  0.1765334211252565  1.0000
  C   C19       1.0  0.8074297858061642  0.5391559325374543  0.6765314327275433  1.0000
  C   C20       1.0  0.1925912144418618  0.0391719831133059  0.8234708104388772  1.0000
  C   C21       1.0  0.0386632258920869  0.5121587833124295  0.270984376858614  1.0000
  C   C22       1.0  0.9613587748025196  0.012166076428535198  0.22901790617606818  1.0000
  C   C23       1.0  0.9613521949588558  0.4878429180173782  0.7290207766294399  1.0000
  C   C24       1.0  0.03864291215879936  0.9878479764206531  0.7709780026537132  1.0000
  C   C25       1.0  0.112051058784381  0.4742290716148004  0.2106002403774596  1.0000
  C   C26       1.0  0.8879430305936326  0.9742288020361444  0.2894070827122589  1.0000
  C   C27       1.0  0.8879496394288678  0.5257794916140738  0.7894013473843626  1.0000
  C   C28       1.0  0.1120576013795329  0.0257728991931216  0.7105940293486838  1.0000
  C   C29       1.0  0.5094976725300527  0.7263505603785205  0.024655360436533193  1.0000
  C   C30       1.0  0.49049972365781974  0.22632642689205806  0.47534642594280996  1.0000
  C   C31       1.0  0.4904868514747348  0.2736758439336597  0.9753450106256235  1.0000
  C   C32       1.0  0.5094902793154218  0.7736464538568981  0.5246549849531448  1.0000
  S   S1        1.0  0.256642775259202  0.8249213693944738  0.0019180281881645987  1.0000
  S   S2        1.0  0.7433703817881253  0.32490088355572777  0.4980887235966306  1.0000
  S   S3        1.0  0.7433470301620131  0.1751187589581349  0.9980819556060749  1.0000
  S   S4        1.0  0.2566274787205174  0.675076114439527  0.5019180379185713  1.0000
  N   N1        1.0  0.1448722744137214  0.44497409979855007  0.10589895740224618  1.0000
  N   N2        1.0  0.8551040021727944  0.9449591464823258  0.3941009642672951  1.0000
  N   N3        1.0  0.8551032710282129  0.5550440700482255  0.8941007905711089  1.0000
  N   N4        1.0  0.14486923092403  0.055006872154486096  0.6058949486214827  1.0000
  N   N5        1.0  0.007334352525660391  0.5072277895452332  0.15056871486790865  1.0000
  N   N6        1.0  0.9926432860733385  0.007224023983894801  0.34943520962838187  1.0000
  N   N7        1.0  0.992661328994231  0.4927766564411514  0.8494351629651574  1.0000
  N   N8        1.0  0.007341568273972087  0.9927721875245085  0.6505675399374979  1.0000
  N   N9        1.0  0.6930496160731608  0.6550378564219558  0.043219541550442386  1.0000
  N   N10       1.0  0.3069517597628105  0.15501931883700587  0.456786137381961  1.0000
  N   N11       1.0  0.30694157482476214  0.3449954099471171  0.9567776175164653  1.0000
  N   N12       1.0  0.6930258321694395  0.8449563066193803  0.5432155428717633  1.0000
