data_image0
_chemical_formula_structural       Sc4H20C32O20
_chemical_formula_sum              "Sc4 H20 C32 O20"
_cell_length_a       7.4277279844800645
_cell_length_b       5.831370093653917
_cell_length_c       20.050538236417474
_cell_angle_alpha    90.00262182924747
_cell_angle_beta     89.99109788935306
_cell_angle_gamma    90.04430161590805

_space_group_name_H-M_alt    "P 1"
_space_group_IT_number       1

loop_
  _space_group_symop_operation_xyz
  'x, y, z'

loop_
  _atom_site_type_symbol
  _atom_site_label
  _atom_site_symmetry_multiplicity
  _atom_site_fract_x
  _atom_site_fract_y
  _atom_site_fract_z
  _atom_site_occupancy
  Sc  Sc1       1.0  0.6447816861338184  0.5006420422890159  0.4999440191885753  1.0000
  Sc  Sc2       1.0  0.144769291539582  0.49940219664024005  0.5000560910754714  1.0000
  Sc  Sc3       1.0  0.6447741625953611  0.9993808667892098  0.9999328633256681  1.0000
  Sc  Sc4       1.0  0.14478891621322992  0.0006342197242191002  6.22590178594e-05  1.0000
  H   H1        1.0  0.10635778346502182  0.26544635042117193  0.6914304532648072  1.0000
  H   H2        1.0  0.6066234900152097  0.7349401858961073  0.3087143208018404  1.0000
  H   H3        1.0  0.10657412887672989  0.23495955473099175  0.19134598893711538  1.0000
  H   H4        1.0  0.6064838099319942  0.7651886279198054  0.8086426751760883  1.0000
  H   H5        1.0  0.10620735665988688  0.26002863385043895  0.8167347099203893  1.0000
  H   H6        1.0  0.606103466258162  0.7403699162358777  0.18340407534388697  1.0000
  H   H7        1.0  0.1061557331117555  0.2403952117593064  0.3166559528676345  1.0000
  H   H8        1.0  0.6062088727594103  0.7597769885477915  0.6833322086843268  1.0000
  H   H9        1.0  0.6839074782913243  0.26641714108641423  0.8166905570380151  1.0000
  H   H10       1.0  0.1837963959882174  0.7331818867279978  0.18316689212176834  1.0000
  H   H11       1.0  0.6838393097724377  0.23315054124111612  0.3167751066446982  1.0000
  H   H12       1.0  0.18390902960710057  0.7666268183140874  0.6832389507298869  1.0000
  H   H13       1.0  0.6837560736811028  0.27139757356621896  0.69136384623917  1.0000
  H   H14       1.0  0.18400030288012914  0.7281894501679886  0.30848562316512573  1.0000
  H   H15       1.0  0.6839537290183842  0.2281761875397947  0.19145467675804176  1.0000
  H   H16       1.0  0.18388078513608974  0.7716200342430852  0.8085603790194894  1.0000
  H   H17       1.0  0.39435514703198044  0.834627452788091  0.49621226023767656  1.0000
  H   H18       1.0  0.893827427531555  0.16538592753040865  0.5037859649427006  1.0000
  H   H19       1.0  0.3938206879317718  0.6653721173518791  0.9962058414301466  1.0000
  H   H20       1.0  0.8943551427187445  0.3346121114089727  0.0037804133561535995  1.0000
  C   C1        1.0  0.3949470992652948  0.2876928705336468  0.609963569912793  1.0000
  C   C2        1.0  0.8953249411971597  0.7123204806913818  0.3900391569272017  1.0000
  C   C3        1.0  0.3952273257614536  0.2123143732804068  0.1099584815129546  1.0000
  C   C4        1.0  0.8951052842926045  0.7876732544612254  0.890040753997738  1.0000
  C   C5        1.0  0.39506622071205305  0.26830167484351364  0.6842798819345859  1.0000
  C   C6        1.0  0.8953216118816484  0.7317305379454242  0.3157268359310663  1.0000
  C   C7        1.0  0.39527339261753264  0.23172024794655496  0.1842750907928945  1.0000
  C   C8        1.0  0.8952032703733722  0.7682639481318819  0.8157236468040451  1.0000
  C   C9        1.0  0.23186357528922488  0.26533075856217186  0.7194105311076057  1.0000
  C   C10       1.0  0.7320382329064045  0.7348962829277497  0.28067445615701553  1.0000
  C   C11       1.0  0.23201534191498746  0.23494170797609842  0.21936098016615796  1.0000
  C   C12       1.0  0.7319645195768628  0.7651670143156224  0.7806372244411434  1.0000
  C   C13       1.0  0.231787085045525  0.26338873008789687  0.7887223468673453  1.0000
  C   C14       1.0  0.7317687430800177  0.7368708986884159  0.2113611426940309  1.0000
  C   C15       1.0  0.2317917875219422  0.23685983901075502  0.2886728742546935  1.0000
  C   C16       1.0  0.7318043719808572  0.7632403143643102  0.7113238315697358  1.0000
  C   C17       1.0  0.3950863662452591  0.264225471542197  0.8238271765784119  1.0000
  C   C18       1.0  0.8949635201236247  0.7357655895538642  0.1761750496818166  1.0000
  C   C19       1.0  0.3950144733653643  0.23577764549004604  0.3238230494119136  1.0000
  C   C20       1.0  0.8950717610450099  0.7642082706876607  0.6761771820099369  1.0000
  C   C21       1.0  0.5583330719678017  0.2665927559901676  0.7886885354520388  1.0000
  C   C22       1.0  0.058300793003631696  0.7331160369393502  0.21123717713424378  1.0000
  C   C23       1.0  0.5583280618669235  0.23309979724781735  0.2887271967491642  1.0000
  C   C24       1.0  0.05835699203503  0.7667153098309428  0.711276321736996  1.0000
  C   C25       1.0  0.5583004120258294  0.26837187411338453  0.71937472070978  1.0000
  C   C26       1.0  0.05844792338170629  0.7313935076495854  0.2805519912299985  1.0000
  C   C27       1.0  0.5584319125621277  0.2313685884380661  0.21940981961589048  1.0000
  C   C28       1.0  0.058393181719090095  0.7684825292758218  0.780588713083624  1.0000
  C   C29       1.0  0.39517929019812215  0.24595408928176005  0.8980587256703104  1.0000
  C   C30       1.0  0.8948598645382972  0.7541004218643369  0.1019440005654175  1.0000
  C   C31       1.0  0.3949750805949321  0.2540774415501588  0.39805684465750346  1.0000
  C   C32       1.0  0.8951084810244295  0.7459410570258599  0.6019438861563273  1.0000
  O   O1        1.0  0.546524727782291  0.29973853243802756  0.5803226629673759  1.0000
  O   O2        1.0  0.046913702810258  0.7001214854512982  0.419622857969344  1.0000
  O   O3        1.0  0.5467766414311727  0.20024048119608304  0.0803265553038273  1.0000
  O   O4        1.0  0.046687475148090095  0.7998115988140385  0.9196449042018031  1.0000
  O   O5        1.0  0.2432712356647144  0.2987943760697007  0.5803611543799007  1.0000
  O   O6        1.0  0.7436847096589287  0.7013843345047237  0.41970053458912554  1.0000
  O   O7        1.0  0.2435513143338923  0.20129071265946416  0.080340649586681  1.0000
  O   O8        1.0  0.7434421921256346  0.7986359161191389  0.9196786415635926  1.0000
  O   O9        1.0  0.24376373714689947  0.23495446870312972  0.9279689745557177  1.0000
  O   O10       1.0  0.7433847854018012  0.7653322735642406  0.07211665733677819  1.0000
  O   O11       1.0  0.24352335375653672  0.2652081369262689  0.4279276484449923  1.0000
  O   O12       1.0  0.7436600712287885  0.7348522498714233  0.5720766844409155  1.0000
  O   O13       1.0  0.5465652793570469  0.23437411794235172  0.9279279553359528  1.0000
  O   O14       1.0  0.046214779643357  0.7654327491693279  0.07200658813845708  1.0000
  O   O15       1.0  0.546341550149755  0.2654972149116618  0.4279654480554099  1.0000
  O   O16       1.0  0.046468215986408296  0.7344965669786917  0.5720264545106417  1.0000
  O   O17       1.0  0.39468421406362353  0.6676545694219698  0.4969125563210071  1.0000
  O   O18       1.0  0.894497312158613  0.3323553663745288  0.5030981434984625  1.0000
  O   O19       1.0  0.39450878069713724  0.8323431524110493  0.9968975342424001  1.0000
  O   O20       1.0  0.8946673593024812  0.1676410632481264  0.0030812456724405  1.0000
