data_image0
_chemical_formula_structural       Al6H27C74NO30
_chemical_formula_sum              "Al6 H27 C74 N1 O30"
_cell_length_a       12.550668549000777
_cell_length_b       12.566158815543254
_cell_length_c       28.761453675990357
_cell_angle_alpha    91.35628752747046
_cell_angle_beta     91.11674490113235
_cell_angle_gamma    60.96970166736496

_space_group_name_H-M_alt    "P 1"
_space_group_IT_number       1

loop_
  _space_group_symop_operation_xyz
  'x, y, z'

loop_
  _atom_site_type_symbol
  _atom_site_label
  _atom_site_symmetry_multiplicity
  _atom_site_fract_x
  _atom_site_fract_y
  _atom_site_fract_z
  _atom_site_occupancy
  Al  Al1       1.0  0.4107236951275155  0.4113501974516112  0.4991447452348936  1.0000
  Al  Al2       1.0  0.4200185770557282  0.6625348724218797  0.5019953083993657  1.0000
  Al  Al3       1.0  0.6579088208353736  0.42853584630051966  0.5006460507813699  1.0000
  Al  Al4       1.0  0.9291789419601029  0.9193913545670113  0.001156675013170601  1.0000
  Al  Al5       1.0  0.6755115208617892  0.914048729994065  0.9989965663853582  1.0000
  Al  Al6       1.0  0.9080374942252971  0.6745418422953551  0.9996897565184781  1.0000
  H   H1        1.0  0.4598141261987649  0.7836503790245004  0.781746875977234  1.0000
  H   H2        1.0  0.5621424764292512  0.8764453965981146  0.7179891483027987  1.0000
  H   H3        1.0  0.5523306135956576  0.5646306545506404  0.7280581964146438  1.0000
  H   H4        1.0  0.7701842544967401  0.465341229292605  0.7820523995439004  1.0000
  H   H5        1.0  0.872541674055455  0.5580247078836394  0.7182753104905687  1.0000
  H   H6        1.0  0.7804481529947862  0.7765634226288399  0.7719547593641991  1.0000
  H   H7        1.0  0.7062801005978583  0.3361011156384351  0.7229202206396368  1.0000
  H   H8        1.0  0.7135302987028638  0.2946955834449626  0.8076678885387096  1.0000
  H   H9        1.0  0.6457841222726798  0.995677372475086  0.776375588277709  1.0000
  H   H10       1.0  0.6391234810607074  0.0366985088822673  0.6916528697983324  1.0000
  H   H11       1.0  0.04640052508400312  0.6137693174941675  0.6947072857478958  1.0000
  H   H12       1.0  0.00960054101289378  0.6162537574814523  0.7797998875497568  1.0000
  H   H13       1.0  0.290807111876731  0.7119999814824711  0.8090005730156095  1.0000
  H   H14       1.0  0.3275704347989359  0.7095043298993177  0.7239115190713079  1.0000
  H   H15       1.0  0.5832323695121745  0.5710327768862767  0.18889150679812874  1.0000
  H   H16       1.0  0.7563332512968798  0.7865188155921745  0.2263722288563059  1.0000
  H   H17       1.0  0.730298981458425  0.759655759515816  0.3095491053997179  1.0000
  H   H18       1.0  0.47269006185576495  0.25498870311412253  0.2926206170101864  1.0000
  H   H19       1.0  0.47651852954876245  0.221432462301003  0.20661925242094983  1.0000
  H   H20       1.0  0.8661657310285447  0.0776534665598234  0.2080179918834659  1.0000
  H   H21       1.0  0.8623150839450274  0.11051510696046313  0.2940855222878369  1.0000
  H   H22       1.0  0.9998429167216043  0.8452177480995149  0.3035987185174704  1.0000
  H   H23       1.0  0.9653777128380765  0.8456819833080403  0.21802032593743803  1.0000
  H   H24       1.0  0.29454839038744035  0.5003905528170733  0.20450440080143303  1.0000
  H   H25       1.0  0.32819969936839016  0.49972268646893536  0.2899263948218973  1.0000
  H   H26       1.0  0.3063400345751147  0.31427498231354895  0.5267836379325388  1.0000
  H   H27       1.0  0.023577260366415897  0.02726875595278951  0.0315882372750806  1.0000
  C   C1        1.0  0.28729643612066963  0.6220251752780187  0.5684239955942658  1.0000
  C   C2        1.0  0.6147160118618656  0.6208022146556545  0.5645633959644416  1.0000
  C   C3        1.0  0.6231642877545551  0.29177962921617967  0.5670377436588794  1.0000
  C   C4        1.0  0.27696982693738886  0.6258132677063061  0.4365864347178956  1.0000
  C   C5        1.0  0.602538873038881  0.6162472537103341  0.4347707690429345  1.0000
  C   C6        1.0  0.6234717461930402  0.2857956795139885  0.4344323095641158  1.0000
  C   C7        1.0  0.6084874786265145  0.7852459049558149  0.7326179174065572  1.0000
  C   C8        1.0  0.5513368233045169  0.7334145470049407  0.7672115332821363  1.0000
  C   C9        1.0  0.6894185673707655  0.6988126867470754  0.8886734140180155  1.0000
  C   C10       1.0  0.6394071238809501  0.6456229815539062  0.6113157950205378  1.0000
  C   C11       1.0  0.7294797991022716  0.7296452828975646  0.7616626728657752  1.0000
  C   C12       1.0  0.6721427094369471  0.6778159265582746  0.7978296679392473  1.0000
  C   C13       1.0  0.780958358202625  0.6082701507997329  0.7327533605142379  1.0000
  C   C14       1.0  0.6600868348486981  0.6639296029950756  0.7021446589345715  1.0000
  C   C15       1.0  0.723854256195089  0.556501045326698  0.7673900685096982  1.0000
  C   C16       1.0  0.602907754398238  0.6119737430269298  0.7383210665680764  1.0000
  C   C17       1.0  0.6805809925585035  0.6879385753920034  0.8466967814662567  1.0000
  C   C18       1.0  0.650401491747637  0.6547461465642002  0.6532717397575212  1.0000
  C   C19       1.0  0.6534404859319026  0.24189932598113736  0.6129828927266557  1.0000
  C   C20       1.0  0.6932602881108919  0.2616784771278802  0.734940602976039  1.0000
  C   C21       1.0  0.6971338326981779  0.2388720007510799  0.7820405671633353  1.0000
  C   C22       1.0  0.6590305551592125  0.0699491011662801  0.7643647660605026  1.0000
  C   C23       1.0  0.6553143581173797  0.09269024797914942  0.7172711426995022  1.0000
  C   C24       1.0  0.6720446230110043  0.18923123594942132  0.7017994758015578  1.0000
  C   C25       1.0  0.680119661019944  0.1424866324687315  0.7975019750390828  1.0000
  C   C26       1.0  0.6871645766349916  0.1163516450759872  0.8453474958820025  1.0000
  C   C27       1.0  0.6641645128169953  0.21579270898436675  0.6539640278106305  1.0000
  C   C28       1.0  0.6966947227650525  0.09074830231472931  0.8863528881989498  1.0000
  C   C29       1.0  0.23830970246895322  0.6480811593219683  0.6146589081086233  1.0000
  C   C30       1.0  0.09929288691591845  0.635269794331741  0.719965078647185  1.0000
  C   C31       1.0  0.07900214958022625  0.6365605090904297  0.7672244681491948  1.0000
  C   C32       1.0  0.23797157627895138  0.6904131571041178  0.7837428635914634  1.0000
  C   C33       1.0  0.2582263435050861  0.689125712739866  0.7364773869162988  1.0000
  C   C34       1.0  0.18952033881170383  0.6612637107961846  0.7038365726687416  1.0000
  C   C35       1.0  0.14784452671166537  0.6642681507941718  0.7998570045019164  1.0000
  C   C36       1.0  0.12395985505061442  0.669014637452662  0.8478943797392731  1.0000
  C   C37       1.0  0.21374524201233666  0.6560915262375318  0.6558062227860193  1.0000
  C   C38       1.0  0.0999592765631901  0.6768100896254269  0.8890892600197589  1.0000
  C   C39       1.0  0.6234886141411236  0.6374436421598092  0.3876976632527019  1.0000
  C   C40       1.0  0.6018923970043629  0.5992430386076465  0.2615079052667397  1.0000
  C   C41       1.0  0.6158142921415501  0.6135661531574429  0.2146310906305331  1.0000
  C   C42       1.0  0.7123718039450466  0.7340513106385913  0.23620451751047972  1.0000
  C   C43       1.0  0.6978753977461238  0.7190649108021602  0.2828553775923055  1.0000
  C   C44       1.0  0.641421236973727  0.6516408635735547  0.2972750922163955  1.0000
  C   C45       1.0  0.6709393281424524  0.681766107465201  0.2011212635658524  1.0000
  C   C46       1.0  0.6846896762930045  0.6962982589612992  0.15322717901820235  1.0000
  C   C47       1.0  0.6288647295438776  0.6403378626196884  0.345415346481751  1.0000
  C   C48       1.0  0.6962637019070214  0.7074705363600914  0.11194635463041892  1.0000
  C   C49       1.0  0.6528030769354912  0.23325896503531857  0.3885171302128613  1.0000
  C   C50       1.0  0.5583389555848086  0.214910118253016  0.2738044542742841  1.0000
  C   C51       1.0  0.5604927580275998  0.1965385864745031  0.2260674374820866  1.0000
  C   C52       1.0  0.7807307385676125  0.11542972010622782  0.22693259776777103  1.0000
  C   C53       1.0  0.7786180126123624  0.133582764603517  0.2747024550373283  1.0000
  C   C54       1.0  0.6672262076570235  0.18393874400670285  0.2987837991593524  1.0000
  C   C55       1.0  0.6716527683593368  0.14668627502554443  0.2019398530512859  1.0000
  C   C56       1.0  0.6759905186076764  0.12585536848190063  0.15336150688128924  1.0000
  C   C57       1.0  0.6623882823894149  0.20770853726519783  0.3471509437282663  1.0000
  C   C58       1.0  0.6845110886238926  0.10380982902997718  0.11168813246590052  1.0000
  C   C59       1.0  0.22016462669763828  0.658054780945932  0.39152224753356535  1.0000
  C   C60       1.0  0.06335477627435164  0.7697430555930254  0.2817394354450968  1.0000
  C   C61       1.0  0.04420520703599335  0.7698954891366939  0.23407671632042346  1.0000
  C   C62       1.0  0.22942913820991595  0.574761589527995  0.22632764915348252  1.0000
  C   C63       1.0  0.24820700727274664  0.5742195987902221  0.2739916279913288  1.0000
  C   C64       1.0  0.16591490771784112  0.6719167346803802  0.3023497293411666  1.0000
  C   C65       1.0  0.12718551759009225  0.672674436710608  0.20564805034214123  1.0000
  C   C66       1.0  0.1076125152024189  0.675808942181078  0.1570178946804646  1.0000
  C   C67       1.0  0.19064917811557058  0.668844049308504  0.350588700860314  1.0000
  C   C68       1.0  0.08825495220676055  0.6828849796328881  0.11522466040900531  1.0000
  C   C69       1.0  0.7238244590498013  0.041940847922227006  0.932488155572635  1.0000
  C   C70       1.0  0.7132078682168906  0.7237107895892835  0.9355281076168611  1.0000
  C   C71       1.0  0.05009304144849118  0.7042040015968211  0.9351394702219622  1.0000
  C   C72       1.0  0.711543349201044  0.05454872660683208  0.0652296892961388  1.0000
  C   C73       1.0  0.7210272987489075  0.7280818833219629  0.0652220504412071  1.0000
  C   C74       1.0  0.044514974770173174  0.711457874794512  0.0681971495396283  1.0000
  N   N1        1.0  0.5440340318355296  0.525689216201549  0.272619556517796  1.0000
  O   O1        1.0  0.5211693269043494  0.31264234540290664  0.5504212582894894  1.0000
  O   O2        1.0  0.306387895214982  0.5225497100308305  0.5496926082461044  1.0000
  O   O3        1.0  0.3120735743580239  0.7011112548727638  0.5510667042986128  1.0000
  O   O4        1.0  0.5138781225862415  0.6979203145540539  0.5458599532433724  1.0000
  O   O5        1.0  0.6925865638885041  0.5198392828799426  0.5458610283182779  1.0000
  O   O6        1.0  0.7012131903022832  0.31515046552230075  0.547699487518365  1.0000
  O   O7        1.0  0.5206570310069338  0.3102717067351649  0.44997212646278945  1.0000
  O   O8        1.0  0.30935203457826077  0.5193173900495226  0.4497311280517096  1.0000
  O   O9        1.0  0.2945753952734762  0.7064767000851759  0.458975856003633  1.0000
  O   O10       1.0  0.5019400091431478  0.6937411869906215  0.45319733580925  1.0000
  O   O11       1.0  0.6834003450967572  0.518267196336268  0.4534024111259001  1.0000
  O   O12       1.0  0.7030426245275406  0.30807705851052  0.45520948105782827  1.0000
  O   O13       1.0  0.4973615534567272  0.5020733041709563  0.5011560280799827  1.0000
  O   O14       1.0  0.03522112523343403  0.8017222038287245  0.9542645282631881  1.0000
  O   O15       1.0  0.8274750423181702  0.015099495978361707  0.9490265070358321  1.0000
  O   O16       1.0  0.6411731093129731  0.025897277101115904  0.9520343252531446  1.0000
  O   O17       1.0  0.6371477574854794  0.8265635413319005  0.9536153945126318  1.0000
  O   O18       1.0  0.8116388346672139  0.644592827936087  0.9550234151373831  1.0000
  O   O19       1.0  0.019959662397603488  0.6282594255686719  0.9519861803527762  1.0000
  O   O20       1.0  0.018992238878091365  0.8158995769366014  0.054495494588266497  1.0000
  O   O21       1.0  0.8139387068521983  0.0299846424003007  0.0491045740281706  1.0000
  O   O22       1.0  0.6305752096412646  0.03426736054615281  0.0445204302002793  1.0000
  O   O23       1.0  0.6443703003665321  0.8274201864847653  0.04633544271393931  1.0000
  O   O24       1.0  0.8211949965992175  0.6474064185636622  0.04748045739459881  1.0000
  O   O25       1.0  0.029934205370736256  0.6306669975822458  0.04456207442391501  1.0000
  O   O26       1.0  0.8361080703880647  0.8349193931539531  0.9999647642289986  1.0000
  O   O27       1.0  0.5219937274603479  0.5191482934064312  0.31399747770119996  1.0000
  O   O28       1.0  0.5201882294864716  0.47440490610807023  0.2398049907003283  1.0000
  O   O29       1.0  0.3324288967729458  0.3281027992360492  0.4972116520050633  1.0000
  O   O30       1.0  0.014962868096808949  0.9950205811300993  0.0017675318290244033  1.0000
