data_image0
_chemical_formula_structural       Mn4H40C48N16O20
_chemical_formula_sum              "Mn4 H40 C48 N16 O20"
_cell_length_a       7.834205115655464
_cell_length_b       11.47389104599943
_cell_length_c       16.55880495008743
_cell_angle_alpha    89.9996439755345
_cell_angle_beta     89.99994526109496
_cell_angle_gamma    98.86462478232554

_space_group_name_H-M_alt    "P 1"
_space_group_IT_number       1

loop_
  _space_group_symop_operation_xyz
  'x, y, z'

loop_
  _atom_site_type_symbol
  _atom_site_label
  _atom_site_symmetry_multiplicity
  _atom_site_fract_x
  _atom_site_fract_y
  _atom_site_fract_z
  _atom_site_occupancy
  Mn  Mn1       1.0  0.5336773309840553  0.26781290743659275  0.7074857451504073  1.0000
  Mn  Mn2       1.0  0.9663340290957194  0.23218598665550874  0.20748406304203115  1.0000
  Mn  Mn3       1.0  0.4663335605025267  0.7321899904927065  0.29251882219949715  1.0000
  Mn  Mn4       1.0  0.03365479881797736  0.7678099516303548  0.7925168808779262  1.0000
  H   H1        1.0  0.8978904079509604  0.13746294101850512  0.6558554074198922  1.0000
  H   H2        1.0  0.6021092476696738  0.3625400264921197  0.1558557413907167  1.0000
  H   H3        1.0  0.1021103392151304  0.8625294085173323  0.34414614041345704  1.0000
  H   H4        1.0  0.3978722894295572  0.6374683090504549  0.8441415790542378  1.0000
  H   H5        1.0  0.695827697606461  0.09928855562215944  0.5199677092792712  1.0000
  H   H6        1.0  0.8041839988653835  0.40071563306258895  0.019971411678071094  1.0000
  H   H7        1.0  0.30418020004749013  0.900717888731748  0.48002961116386433  1.0000
  H   H8        1.0  0.19581479360707021  0.5992846731525392  0.9800319478634948  1.0000
  H   H9        1.0  0.6684938745572353  0.8495184923141536  0.777003365931499  1.0000
  H   H10       1.0  0.8315078200764034  0.6504787498912493  0.2770069278543588  1.0000
  H   H11       1.0  0.33148899374093327  0.15047924037080657  0.22299214281107987  1.0000
  H   H12       1.0  0.16850372298854674  0.349521495842808  0.7229903926013321  1.0000
  H   H13       1.0  0.821477196312273  0.20920661797737952  0.8335631423124923  1.0000
  H   H14       1.0  0.6785302578082408  0.29078757643674186  0.3335589203928677  1.0000
  H   H15       1.0  0.1785231071183304  0.7907892658386616  0.1664402172382751  1.0000
  H   H16       1.0  0.32148531824341126  0.7092135331614033  0.666447458684793  1.0000
  H   H17       1.0  0.8650704071932012  0.978718738925615  0.8709512481768653  1.0000
  H   H18       1.0  0.6349281667182042  0.5212714529995567  0.3709500202087881  1.0000
  H   H19       1.0  0.13490952337810572  0.021271943297918507  0.12905211138967584  1.0000
  H   H20       1.0  0.3650867577814623  0.4787323088533668  0.6290509236884603  1.0000
  H   H21       1.0  0.4950277780661168  0.9726819398964396  0.683766338142412  1.0000
  H   H22       1.0  0.0049824737723653785  0.5273233365957992  0.1837705773626865  1.0000
  H   H23       1.0  0.5049703347907908  0.027326316992386496  0.3162291705740543  1.0000
  H   H24       1.0  0.9950254800149949  0.4726725109344302  0.8162285548282425  1.0000
  H   H25       1.0  0.8286036009369582  0.6868255333770321  0.6344994359400857  1.0000
  H   H26       1.0  0.6713878064678623  0.8131810456426366  0.1345005558012815  1.0000
  H   H27       1.0  0.1713932649280352  0.31317743114948376  0.365497280604714  1.0000
  H   H28       1.0  0.32860612168157394  0.18681486844795364  0.8654985763926459  1.0000
  H   H29       1.0  0.7139826013244104  0.5396839852581367  0.7435124767610829  1.0000
  H   H30       1.0  0.7859998428099004  0.9603233768781863  0.24351291058741958  1.0000
  H   H31       1.0  0.28601298947756254  0.4603189853079785  0.25648665541724813  1.0000
  H   H32       1.0  0.21399621978986968  0.03967076098597741  0.7564874294264852  1.0000
  H   H33       1.0  0.6489133292711102  0.35750006125282857  0.5213996333006532  1.0000
  H   H34       1.0  0.851092193801641  0.14250502634124734  0.0213953700789702  1.0000
  H   H35       1.0  0.3510829130903801  0.6425002570755255  0.478601310608191  1.0000
  H   H36       1.0  0.14890701433520798  0.8574970439956004  0.9786073855503831  1.0000
  H   H37       1.0  0.7980160587547545  0.5912686253099935  0.4930703605527142  1.0000
  H   H38       1.0  0.7019859558972429  0.9087371793385447  0.9930713594622489  1.0000
  H   H39       1.0  0.2019789085588002  0.4087316990919733  0.5069257520898844  1.0000
  H   H40       1.0  0.2980066691218397  0.09126403920207345  0.006929584445472899  1.0000
  C   C1        1.0  0.2708951057405216  0.19516803756067702  0.6120454982598316  1.0000
  C   C2        1.0  0.2291044759326226  0.3048284115305863  0.1120381736194247  1.0000
  C   C3        1.0  0.7290994458885366  0.8048305226742233  0.3879608808280252  1.0000
  C   C4        1.0  0.7708883850117374  0.6951683907185783  0.8879506921314615  1.0000
  C   C5        1.0  0.10832307448807652  0.16864216042565522  0.5673442983194832  1.0000
  C   C6        1.0  0.3916800745914628  0.3313582244187431  0.06734041000994039  1.0000
  C   C7        1.0  0.8916762178495076  0.8313440146770931  0.43266087297740086  1.0000
  C   C8        1.0  0.6083184258587409  0.6686570949937193  0.9326557025995257  1.0000
  C   C9        1.0  0.9395558085716119  0.14220173229500696  0.5933822804888036  1.0000
  C   C10       1.0  0.5604464773126524  0.3577956291198917  0.09338144572356548  1.0000
  C   C11       1.0  0.06044304004178974  0.8577879771134537  0.40661926735066334  1.0000
  C   C12       1.0  0.43954739470086684  0.6422108817887138  0.9066170825391991  1.0000
  C   C13       1.0  0.8353640482055411  0.12173919228661843  0.5232897293059435  1.0000
  C   C14       1.0  0.6646472187909609  0.37826320111280853  0.0232893635816041  1.0000
  C   C15       1.0  0.164642186790843  0.878260195580424  0.47671000678604963  1.0000
  C   C16       1.0  0.3353500627346548  0.6217415275269148  0.9767085607759255  1.0000
  C   C17       1.0  0.9463934900788544  0.13861830887353938  0.4582626324184317  1.0000
  C   C18       1.0  0.5536189330732811  0.36138175323278443  0.9582608823990951  1.0000
  C   C19       1.0  0.053616721779619105  0.8613925397011147  0.5417401231895269  1.0000
  C   C20       1.0  0.4463824095277218  0.6386185409088015  0.04173643805877699  1.0000
  C   C21       1.0  0.9125226244987703  0.13969870963218511  0.3707013671210362  1.0000
  C   C22       1.0  0.5874880565469596  0.3602986522591183  0.8707020222615256  1.0000
  C   C23       1.0  0.08749339529590829  0.8602988657027738  0.6292995767893146  1.0000
  C   C24       1.0  0.4125203128997655  0.6396989593814909  0.1292989216504523  1.0000
  C   C25       1.0  0.7612403415523661  0.1258920107791752  0.8080602873405309  1.0000
  C   C26       1.0  0.7387719032327952  0.3741006347113257  0.3080580946938838  1.0000
  C   C27       1.0  0.23875761959759254  0.8741047672066955  0.19194126048388677  1.0000
  C   C28       1.0  0.2612447400565898  0.6258995868019498  0.6919428492106191  1.0000
  C   C29       1.0  0.7822271366301125  0.012828698931713201  0.8274894648571304  1.0000
  C   C30       1.0  0.717776961309589  0.4871620363475132  0.3274886055449713  1.0000
  C   C31       1.0  0.21776785874448734  0.9871663270456639  0.17251027124678586  1.0000
  C   C32       1.0  0.28222610008239  0.5128347174572597  0.6725081110118367  1.0000
  C   C33       1.0  0.591525571944956  0.0073674032498090005  0.7282788573222234  1.0000
  C   C34       1.0  0.9084808092256722  0.4926322019035754  0.22827849309155107  1.0000
  C   C35       1.0  0.4084710860821801  0.9926346792030929  0.2717208787660965  1.0000
  C   C36       1.0  0.09152690865901289  0.5073680619691316  0.771721846906537  1.0000
  C   C37       1.0  0.715760070917689  0.520118153856963  0.6795966742075592  1.0000
  C   C38       1.0  0.7842269080364516  0.9798862558575651  0.17959521269794715  1.0000
  C   C39       1.0  0.28423234627485533  0.4798821826355565  0.320401854068848  1.0000
  C   C40       1.0  0.21577126094632607  0.020111404190579708  0.8204057312162047  1.0000
  C   C41       1.0  0.6856890099443262  0.4298684319283269  0.5630027128131871  1.0000
  C   C42       1.0  0.814308689696418  0.07013630141729983  0.0629993821531798  1.0000
  C   C43       1.0  0.314306165194516  0.5701327745189104  0.4369964193690378  1.0000
  C   C44       1.0  0.1856896871166711  0.9298622406874488  0.9370021656673442  1.0000
  C   C45       1.0  0.7572367996517928  0.5449350917999922  0.5483317039089854  1.0000
  C   C46       1.0  0.7427641275470408  0.9550678374220567  0.048331575821954686  1.0000
  C   C47       1.0  0.2427594427172366  0.4550652265453651  0.45166561654997384  1.0000
  C   C48       1.0  0.2572359399871758  0.04493246275063002  0.9516699719943915  1.0000
  N   N1        1.0  0.641287594197273  0.12154563747452586  0.7459851917095008  1.0000
  N   N2        1.0  0.8587223306557092  0.37845290125694925  0.24598292667910465  1.0000
  N   N3        1.0  0.3587177814042519  0.8784555205623408  0.2540145443788688  1.0000
  N   N4        1.0  0.14128962806609022  0.6215491085818102  0.7540174133142656  1.0000
  N   N5        1.0  0.6742364823141004  0.9399954804840295  0.7769095636911982  1.0000
  N   N6        1.0  0.8257741381149158  0.5600017202435055  0.2769135185150232  1.0000
  N   N7        1.0  0.3257529690993195  0.060003103991491  0.2230889645896426  1.0000
  N   N8        1.0  0.1742397472269133  0.43999763131220965  0.7230874253919666  1.0000
  N   N9        1.0  0.6606158326301071  0.41511477490416143  0.6456264663940132  1.0000
  N   N10       1.0  0.8393764230363273  0.0848892070106544  0.1456236647868892  1.0000
  N   N11       1.0  0.33938168479314607  0.5848855373817514  0.3543726657896186  1.0000
  N   N12       1.0  0.16062067871751395  0.9151093411421982  0.8543784869422169  1.0000
  N   N13       1.0  0.7740498601986874  0.6001150732841298  0.6225023925854742  1.0000
  N   N14       1.0  0.7259399063973647  0.8998898602919498  0.12250311397806969  1.0000
  N   N15       1.0  0.2259465900006532  0.39988612711783844  0.37749553177985007  1.0000
  N   N16       1.0  0.2740557124681758  0.10010781185524564  0.8774984338449414  1.0000
  O   O1        1.0  0.2577003802997808  0.21983018362986684  0.6883824786000972  1.0000
  O   O2        1.0  0.24228930681515243  0.2801682434262318  0.18837646227348867  1.0000
  O   O3        1.0  0.7422880319394736  0.7801639905116038  0.31162390049859556  1.0000
  O   O4        1.0  0.7576937693296558  0.7198303713521884  0.811611799567352  1.0000
  O   O5        1.0  0.41627660738360833  0.19637151742633563  0.5790171135004556  1.0000
  O   O6        1.0  0.08373286844658878  0.303628727637225  0.07900200822101767  1.0000
  O   O7        1.0  0.5837311104671626  0.8036287463698316  0.42099953202214374  1.0000
  O   O8        1.0  0.9162624864853798  0.6963786593450721  0.9209826301482734  1.0000
  O   O9        1.0  0.11413273740519969  0.1670290292212613  0.4845599447371285  1.0000
  O   O10       1.0  0.38587570278023264  0.3329647565262519  0.9845545453270076  1.0000
  O   O11       1.0  0.8858732897445378  0.8329694765523217  0.515447038256596  1.0000
  O   O12       1.0  0.614124572598115  0.6670364257342244  0.0154409634042381  1.0000
  O   O13       1.0  0.040697939292734  0.18492262653718683  0.3248944148065219  1.0000
  O   O14       1.0  0.4593130636911482  0.3150752981695889  0.8248957027486339  1.0000
  O   O15       1.0  0.9593169852031664  0.8150811353072385  0.6751083408156686  1.0000
  O   O16       1.0  0.5406906211879914  0.6849241017964971  0.17510463725221825  1.0000
  O   O17       1.0  0.7634508538243311  0.10175888632406332  0.34561815040540006  1.0000
  O   O18       1.0  0.7365561064071285  0.39823872920167264  0.845616159595906  1.0000
  O   O19       1.0  0.23656152055432508  0.8982448876194059  0.6543852091256568  1.0000
  O   O20       1.0  0.2634469549798268  0.6017580245917671  0.1543829725941634  1.0000
