data_image0
_chemical_formula_structural       Co3H12C6O18
_chemical_formula_sum              "Co3 H12 C6 O18"
_cell_length_a       6.020527481853771
_cell_length_b       7.163700215293966
_cell_length_c       11.825543532743202
_cell_angle_alpha    62.81823354974318
_cell_angle_beta     75.69740695040406
_cell_angle_gamma    52.764221827315396

_space_group_name_H-M_alt    "P 1"
_space_group_IT_number       1

loop_
  _space_group_symop_operation_xyz
  'x, y, z'

loop_
  _atom_site_type_symbol
  _atom_site_label
  _atom_site_symmetry_multiplicity
  _atom_site_fract_x
  _atom_site_fract_y
  _atom_site_fract_z
  _atom_site_occupancy
  Co  Co1       1.0  0.5000148440230205  0.1666557893325944  0.6666459151807017  1.0000
  Co  Co2       1.0  0.49981884350317796  0.8336521685687404  0.33348574443365914  1.0000
  Co  Co3       1.0  0.5001713995949258  0.49968997375601304  0.9998884233466185  1.0000
  H   H1        1.0  0.19197455982203582  0.07840333648259451  0.8560812637474555  1.0000
  H   H2        1.0  0.8082080623204815  0.9212489380670378  0.1441450493928826  1.0000
  H   H3        1.0  0.190410223499278  0.9871489140885927  0.7598269130014826  1.0000
  H   H4        1.0  0.8091225571235652  0.013458991047699024  0.2400840929799131  1.0000
  H   H5        1.0  0.8081189423904431  0.2548411996184754  0.47725413023458435  1.0000
  H   H6        1.0  0.191678501660803  0.7453277459155888  0.5227029147390567  1.0000
  H   H7        1.0  0.8099311435093596  0.3455346568457642  0.5737435815540977  1.0000
  H   H8        1.0  0.18999952744433554  0.6546482115188896  0.42618158020287217  1.0000
  H   H9        1.0  0.8096454295038878  0.6791504007742901  0.9069339867186983  1.0000
  H   H10       1.0  0.1906239278779509  0.3203037418343868  0.0931461541843106  1.0000
  H   H11       1.0  0.8082380903393656  0.588099256656939  0.8105751939265105  1.0000
  H   H12       1.0  0.19200327351081367  0.4118392980623825  0.1892986209048999  1.0000
  C   C1        1.0  0.6020575178897261  0.19357407082607386  0.8787034504925302  1.0000
  C   C2        1.0  0.3980064502203431  0.8064111318195092  0.12115364085936862  1.0000
  C   C3        1.0  0.39802550869799797  0.47277363682762535  0.7878013242503954  1.0000
  C   C4        1.0  0.6019944012420239  0.527050724716645  0.2121834770283257  1.0000
  C   C5        1.0  0.6018954993897269  0.8605494965007453  0.5455197614533916  1.0000
  C   C6        1.0  0.39798350507083996  0.13965556713018407  0.4546399193044621  1.0000
  O   O1        1.0  0.6765547741575586  0.02068048105617492  0.843963785529212  1.0000
  O   O2        1.0  0.3235985133539214  0.9793568878418385  0.15584533945523296  1.0000
  O   O3        1.0  0.3214849644231633  0.5068587642724935  0.685457213232965  1.0000
  O   O4        1.0  0.6785252158016916  0.49299606165597953  0.3145471458123126  1.0000
  O   O5        1.0  0.6785756015838801  0.159543313946628  0.9810539508837904  1.0000
  O   O6        1.0  0.3214713451901476  0.8404806073695852  0.018787077558947384  1.0000
  O   O7        1.0  0.3237926024409747  0.6456493029044523  0.8225096925927744  1.0000
  O   O8        1.0  0.6763464198556334  0.3540380255154503  0.1775408853057385  1.0000
  O   O9        1.0  0.6785051423698077  0.8264834071520468  0.6478439208630534  1.0000
  O   O10       1.0  0.3214812257502827  0.1736262527982504  0.3522911553653216  1.0000
  O   O11       1.0  0.3236017935531094  0.31259143918712345  0.4893184463290083  1.0000
  O   O12       1.0  0.6760908539678568  0.6876858174366589  0.5108139473207132  1.0000
  O   O13       1.0  0.17334769753502852  0.13049598090662332  0.7637456995624063  1.0000
  O   O14       1.0  0.8263616499901615  0.869799022633849  0.23640149482994843  1.0000
  O   O15       1.0  0.8268091496779632  0.20245483993457472  0.5696098133524217  1.0000
  O   O16       1.0  0.1732118351674643  0.7976616736929358  0.4303606060315559  1.0000
  O   O17       1.0  0.8266462972621867  0.5359124407548777  0.9029148543799436  1.0000
  O   O18       1.0  0.17365571201446528  0.46368811015322825  0.09698910862378803  1.0000
