data_image0
_chemical_formula_structural       Cd2H56C56N8O8
_chemical_formula_sum              "Cd2 H56 C56 N8 O8"
_cell_length_a       9.021899649
_cell_length_b       11.384924926728416
_cell_length_c       15.1189
_cell_angle_alpha    110.02534650039925
_cell_angle_beta     90.0
_cell_angle_gamma    113.34234574200931

_space_group_name_H-M_alt    "P 1"
_space_group_IT_number       1

loop_
  _space_group_symop_operation_xyz
  'x, y, z'

loop_
  _atom_site_type_symbol
  _atom_site_label
  _atom_site_symmetry_multiplicity
  _atom_site_fract_x
  _atom_site_fract_y
  _atom_site_fract_z
  _atom_site_occupancy
  Cd  Cd1       1.0  0.27668927242965674  0.999973433242161  0.7499489001632682  1.0000
  Cd  Cd2       1.0  0.7233111850815703  2.68071977843e-05  0.250051558691581  1.0000
  H   H1        1.0  0.030439676144368398  0.09836076389950683  0.5175872493569784  1.0000
  H   H2        1.0  0.9321221145682658  0.9015446203021256  0.9823642768969663  1.0000
  H   H3        1.0  0.9695564250712391  0.9016374144482953  0.48241201633668146  1.0000
  H   H4        1.0  0.067876126114939  0.0984556201378197  0.01763485911032351  1.0000
  H   H5        1.0  0.9527513093805382  0.2404213843710608  0.4541050110548639  1.0000
  H   H6        1.0  0.7124849314917653  0.7594592547249235  0.04586923699648087  1.0000
  H   H7        1.0  0.04724966365748881  0.7595798871149455  0.5458937293973563  1.0000
  H   H8        1.0  0.2875122781378607  0.2405389236228856  0.9541293672733959  1.0000
  H   H9        1.0  0.1540878313081251  0.5815440072173886  0.7244820030426669  1.0000
  H   H10       1.0  0.5724308015510573  0.41842839497870443  0.7753836225674036  1.0000
  H   H11       1.0  0.845912626203109  0.4184562332225568  0.27551713296462305  1.0000
  H   H12       1.0  0.42757084173462084  0.5815697833690976  0.22461564312624924  1.0000
  H   H13       1.0  0.23135886965825847  0.4347869719033  0.7888142058869364  1.0000
  H   H14       1.0  0.7965724358488444  0.5651709956478257  0.711121777024694  1.0000
  H   H15       1.0  0.7686388554981534  0.5652122374905703  0.21118598709920638  1.0000
  H   H16       1.0  0.20342913007640107  0.4348292447921125  0.288877358982596  1.0000
  H   H17       1.0  0.03646453713709263  0.6140900074191863  0.599895163501607  1.0000
  H   H18       1.0  0.4222026268285433  0.3859092019746839  0.9001083366034379  1.0000
  H   H19       1.0  0.9635348119601231  0.3859102330207521  0.40010463392945894  1.0000
  H   H20       1.0  0.5778007177583717  0.61408794532705  0.09989132464529152  1.0000
  H   H21       1.0  0.4378592482912892  0.0883049715923363  0.9785815298784756  1.0000
  H   H22       1.0  0.34963014692208116  0.9116169093463925  0.5214212113632115  1.0000
  H   H23       1.0  0.5621423176339561  0.911695268847609  0.021420251823933315  1.0000
  H   H24       1.0  0.6503719345299571  0.088384362139621  0.478578851936561  1.0000
  H   H25       1.0  0.7734836237675892  0.220049976147429  0.046546253848376316  1.0000
  H   H26       1.0  0.5536150411490581  0.7800028476420096  0.45349289841418283  1.0000
  H   H27       1.0  0.22651683374364498  0.7799502642925162  0.9534535435826968  1.0000
  H   H28       1.0  0.44638593188896175  0.2199984238439967  0.5465071648855897  1.0000
  H   H29       1.0  0.7537121488307008  0.1344308795638298  0.699296445750207  1.0000
  H   H30       1.0  0.6192801440100766  0.8653775863073534  0.8006300888453097  1.0000
  H   H31       1.0  0.2462883086805263  0.8655693608761155  0.30070401310464234  1.0000
  H   H32       1.0  0.3807219374419546  0.13462368517866  0.19936997445446278  1.0000
  H   H33       1.0  0.7869165094330484  0.3098530576774579  0.7478675690546055  1.0000
  H   H34       1.0  0.4770677501930933  0.6899688117926175  0.7521080600749741  1.0000
  H   H35       1.0  0.21308232413738176  0.6901461517164122  0.2521332853553204  1.0000
  H   H36       1.0  0.5229332228449266  0.3100324596933959  0.2478913418010222  1.0000
  H   H37       1.0  0.5866488899169653  0.178477167614929  0.6956790610776267  1.0000
  H   H38       1.0  0.4081757921907894  0.8213467639472825  0.8043050368747374  1.0000
  H   H39       1.0  0.4133515675942617  0.8215230728250162  0.3043220592010059  1.0000
  H   H40       1.0  0.5918262892612417  0.17865450753873094  0.19569502642504233  1.0000
  H   H41       1.0  0.9921969035357918  0.273115855206747  0.8439761564534578  1.0000
  H   H42       1.0  0.7191732806185698  0.7268214914230101  0.6560213128859047  1.0000
  H   H43       1.0  0.0078035539754423965  0.7268843852331983  0.1560236409776152  1.0000
  H   H44       1.0  0.28082666136587153  0.2731777179708672  0.3439775572526784  1.0000
  H   H45       1.0  0.01861560171801097  0.2859616581755802  0.962490117424764  1.0000
  H   H46       1.0  0.7327511990481881  0.7139880610070009  0.5375125266104206  1.0000
  H   H47       1.0  0.9813859642072343  0.714038582264358  0.037510341430085206  1.0000
  H   H48       1.0  0.2672481500490278  0.2860121794329444  0.4624872708206525  1.0000
  H   H49       1.0  0.14736784798364513  0.5127237442296747  0.9466771964624598  1.0000
  H   H50       1.0  0.63459625872121  0.487149677543826  0.5532647650140206  1.0000
  H   H51       1.0  0.8526320940007963  0.48727546516419556  0.053322335099906616  1.0000
  H   H52       1.0  0.3654025748492202  0.5128495318500512  0.4467341051245626  1.0000
  H   H53       1.0  0.9566009870718446  0.4949959381259603  0.8999156112120232  1.0000
  H   H54       1.0  0.4616587768492693  0.50499399185329  0.6000854960746622  1.0000
  H   H55       1.0  0.0434005788534009  0.5050043023139779  0.10008418621904275  1.0000
  H   H56       1.0  0.5383405722479465  0.49500624858664827  0.3999129785088442  1.0000
  C   C1        1.0  0.19079261012319648  0.1715949351069455  0.6932171681522805  1.0000
  C   C2        1.0  0.0192154536827402  0.8284558265903641  0.8067440657905111  1.0000
  C   C3        1.0  0.8092040066192041  0.8284042742869319  0.3067836862576457  1.0000
  C   C4        1.0  0.9807833025272571  0.1715454448956493  0.19325599750926875  1.0000
  C   C5        1.0  0.13855778801342208  0.2579780368273887  0.6570930902541507  1.0000
  C   C6        1.0  0.8806107571083003  0.7419850859540844  0.8428508362388244  1.0000
  C   C7        1.0  0.8614372047881743  0.7420201415204204  0.3429068368632856  1.0000
  C   C8        1.0  0.1193902159297195  0.258016185531929  0.1571492270609554  1.0000
  C   C9        1.0  0.05793903652974559  0.2041883634279031  0.563208300788432  1.0000
  C   C10       1.0  0.8537644916691746  0.7957263001883419  0.9367363583509418  1.0000
  C   C11       1.0  0.9420564717986438  0.7958108459659743  0.4367912307739347  1.0000
  C   C12       1.0  0.1462332334872372  0.20427290920552824  0.06326317321141771  1.0000
  C   C13       1.0  0.01368369373281551  0.2846326397931449  0.5274980664792679  1.0000
  C   C14       1.0  0.7291410250216541  0.7152603718556634  0.9724568835880092  1.0000
  C   C15       1.0  0.9863161708911932  0.7153686316928685  0.47250133539672856  1.0000
  C   C16       1.0  0.2708578085487687  0.2847388375382067  0.027542647974357203  1.0000
  C   C17       1.0  0.05194389614639761  0.42334957786418675  0.5841048756429927  1.0000
  C   C18       1.0  0.6285548827137006  0.5765681788902627  0.9158326440171367  1.0000
  C   C19       1.0  0.948057592418415  0.5766527246678878  0.4158947921017103  1.0000
  C   C20       1.0  0.371445729518399  0.42342793736540335  0.08416675136288632  1.0000
  C   C21       1.0  0.12710123724060907  0.4750926248174778  0.6796036059282856  1.0000
  C   C22       1.0  0.6519494666494623  0.5248529701808309  0.8203086824216542  1.0000
  C   C23       1.0  0.8728981118566139  0.5249076156224675  0.32039553007900423  1.0000
  C   C24       1.0  0.3480510682222047  0.47514520816697836  0.17969058327199863  1.0000
  C   C25       1.0  0.1701678052613218  0.3937915491692223  0.7156432079278545  1.0000
  C   C26       1.0  0.7763734068372088  0.6061612631515629  0.7842954141829283  1.0000
  C   C27       1.0  0.8298288114810788  0.6062076602246478  0.2843563236345119  1.0000
  C   C28       1.0  0.22362653514723257  0.39383794624231433  0.21570345595565504  1.0000
  C   C29       1.0  0.02108814452719799  0.5147116010499602  0.5468174097403208  1.0000
  C   C30       1.0  0.5062851191195819  0.485274204745025  0.9531641142056771  1.0000
  C   C31       1.0  0.9789122356236034  0.48529070148212133  0.45318225800437534  1.0000
  C   C32       1.0  0.4937149002252923  0.5147229425567161  0.046835547043059506  1.0000
  C   C33       1.0  0.6655617717100027  0.1918787044147479  0.8324428012820777  1.0000
  C   C34       1.0  0.47363223772105545  0.8079287304103673  0.6675178614813433  1.0000
  C   C35       1.0  0.3344386858012243  0.8081215360251974  0.1675576575727789  1.0000
  C   C36       1.0  0.5263703592577684  0.1920735721217142  0.332482467687143  1.0000
  C   C37       1.0  0.540571568161532  0.13370089894725373  0.9453906783457243  1.0000
  C   C38       1.0  0.4069460799508064  0.8662096404847262  0.5546038469499521  1.0000
  C   C39       1.0  0.4594277809356909  0.8662993414926916  0.05460978050912501  1.0000
  C   C40       1.0  0.5930548930872134  0.1337916310012872  0.4453962163498275  1.0000
  C   C41       1.0  0.7047691233590426  0.19987137353862752  0.9801314735930478  1.0000
  C   C42       1.0  0.5050446727184407  0.8001144322563576  0.5198917200511418  1.0000
  C   C43       1.0  0.2952307412649661  0.8001298979473861  0.019868589706732165  1.0000
  C   C44       1.0  0.49495630031957916  0.19988683922965586  0.48010834324863083  1.0000
  C   C45       1.0  0.7006420643000552  0.20500907609851993  0.7393169882816935  1.0000
  C   C46       1.0  0.49560031310836183  0.7947993897726633  0.760644601774203  1.0000
  C   C47       1.0  0.2993573621575933  0.7949891022492892  0.26068360025951887  1.0000
  C   C48       1.0  0.5044017683436691  0.20520188171335013  0.2393561229493528  1.0000
  C   C49       1.0  0.9581482678123407  0.3122440535105682  0.914154901512717  1.0000
  C   C50       1.0  0.6460139734816508  0.6876912310270527  0.585843358936792  1.0000
  C   C51       1.0  0.04185218969889351  0.68775618692937  0.0858455573421324  1.0000
  C   C52       1.0  0.3539864840295833  0.3123090094128926  0.4141564384942811  1.0000
  C   C53       1.0  0.015397892836268993  0.4684784642873367  0.949460142718145  1.0000
  C   C54       1.0  0.546954752243316  0.5314764101255919  0.5505246493709279  1.0000
  C   C55       1.0  0.9846008633737213  0.5315228071986767  0.05054058200541085  1.0000
  C   C56       1.0  0.4530451123806928  0.4685248613604216  0.44947409108129227  1.0000
  N   N1        1.0  0.7821690021311837  0.2363631870450078  0.9083145558997573  1.0000
  N   N2        1.0  0.5458989854091598  0.7635710664465449  0.5916874072237306  1.0000
  N   N3        1.0  0.21783197090684328  0.7636380844410056  0.0916861688238058  1.0000
  N   N4        1.0  0.4541036115696713  0.23643123608553654  0.4083129219447486  1.0000
  N   N5        1.0  0.517888527319343  0.12953237969185244  0.8538032338768674  1.0000
  N   N6        1.0  0.3883020862705919  0.8702698999029153  0.6461607295094822  1.0000
  N   N7        1.0  0.48211252307910957  0.8704668297020248  0.1461969591092824  1.0000
  N   N8        1.0  0.6117011035954576  0.129731371583091  0.35383999521407355  1.0000
  O   O1        1.0  0.21301753105182542  0.20010335890406594  0.7827642325594795  1.0000
  O   O2        1.0  0.012988299464808525  0.7998432671403108  0.7171833771195538  1.0000
  O   O3        1.0  0.7869813025186048  0.7998958504898113  0.2172359604266632  1.0000
  O   O4        1.0  0.9870138593476554  0.20015594225355932  0.2828168158665889  1.0000
  O   O5        1.0  0.21235157481523  0.0713535431782901  0.6321874839807222  1.0000
  O   O6        1.0  0.14091848346165392  0.9287848574348488  0.8677718761222482  1.0000
  O   O7        1.0  0.7876439335131593  0.9286456662155871  0.3678133704292038  1.0000
  O   O8        1.0  0.8590790869738996  0.0712184761433008  0.1322287189149449  1.0000
