data_image0
_chemical_formula_structural       Zn8H48C64O26
_chemical_formula_sum              "Zn8 H48 C64 O26"
_cell_length_a       19.62234317170084
_cell_length_b       19.632277162376866
_cell_length_c       22.789272641218663
_cell_angle_alpha    115.64038809688783
_cell_angle_beta     115.46261021544096
_cell_angle_gamma    90.04673689310329

_space_group_name_H-M_alt    "P 1"
_space_group_IT_number       1

loop_
  _space_group_symop_operation_xyz
  'x, y, z'

loop_
  _atom_site_type_symbol
  _atom_site_label
  _atom_site_symmetry_multiplicity
  _atom_site_fract_x
  _atom_site_fract_y
  _atom_site_fract_z
  _atom_site_occupancy
  Zn  Zn1       1.0  0.11323464824446451  0.03239597813848154  0.5642305461149916  1.0000
  Zn  Zn2       1.0  0.5320614226015011  0.4508930910355743  0.5642168284073251  1.0000
  Zn  Zn3       1.0  0.9680892444471425  0.886426503875107  0.4362160420517043  1.0000
  Zn  Zn4       1.0  0.549070219967831  0.46768210998664017  0.4357700370459127  1.0000
  Zn  Zn5       1.0  0.9676374952886279  0.04870674848076109  0.4355625249743512  1.0000
  Zn  Zn6       1.0  0.38661665039418114  0.4681757559960288  0.4364484096554192  1.0000
  Zn  Zn7       1.0  0.9502166412543931  0.03213826387158037  0.5636549322132751  1.0000
  Zn  Zn8       1.0  0.5316608492662026  0.6134175563663928  0.5637808227475033  1.0000
  H   H1        1.0  0.3748253479219059  0.22664520507618138  0.06029384586775425  1.0000
  H   H2        1.0  0.8373484028496779  0.6896251592676776  0.05748845093053508  1.0000
  H   H3        1.0  0.8925551661675399  0.9144393514948986  0.04108032062874405  1.0000
  H   H4        1.0  0.8040865529529883  0.9219199654792903  0.041991787826752676  1.0000
  H   H5        1.0  0.10029914414816693  0.2054949192444795  0.15573782059286154  1.0000
  H   H6        1.0  0.03824896004902459  0.13563287231574608  0.06200502546729329  1.0000
  H   H7        1.0  0.08981926796443672  0.10500247913931561  0.1285161183763321  1.0000
  H   H8        1.0  0.15316601134097851  0.0895102946066757  0.04930450584812723  1.0000
  H   H9        1.0  0.2158293030732494  0.15598078199709417  0.14266889997528412  1.0000
  H   H10       1.0  0.1917711690092788  0.26687592189102827  0.12389792813718264  1.0000
  H   H11       1.0  0.11526612879318782  0.21091466322788924  0.0332831045763129  1.0000
  H   H12       1.0  0.9891667565295208  0.9739841985929727  0.8384795511167765  1.0000
  H   H13       1.0  0.750105010574984  0.6144389259501039  0.9303759854421897  1.0000
  H   H14       1.0  0.9785843391884084  0.011004369239223879  0.777092888245235  1.0000
  H   H15       1.0  0.0052237935672962655  0.9208699563611091  0.761541160786706  1.0000
  H   H16       1.0  0.12121435641412152  0.026158341316794145  0.8169780745811224  1.0000
  H   H17       1.0  0.13320716910501332  0.9886529876170514  0.8775771446678249  1.0000
  H   H18       1.0  0.09380671003991374  0.09698640086904935  0.951304881840386  1.0000
  H   H19       1.0  0.072222085900954  0.1352932974260668  0.8903836753208196  1.0000
  H   H20       1.0  0.8618975718246202  0.8396777274805345  0.8306720627495493  1.0000
  H   H21       1.0  0.900486256497601  0.9219696686934853  0.9198389427705038  1.0000
  H   H22       1.0  0.9632770252640627  0.867449318491019  0.8919018380675539  1.0000
  H   H23       1.0  0.9399356430499071  0.8365895678308775  0.9791975094974247  1.0000
  H   H24       1.0  0.3184804651802012  0.1776264604562101  0.9316950919449383  1.0000
  H   H25       1.0  0.9053317768206314  0.7539677795749995  0.8920349899361071  1.0000
  H   H26       1.0  0.7724311601186642  0.7635661636514044  0.8542105942384381  1.0000
  H   H27       1.0  0.7970151526554474  0.8564192239686361  0.9291936754597216  1.0000
  H   H28       1.0  0.9801927699794959  0.03955652923565371  0.14534478980333196  1.0000
  H   H29       1.0  0.8925480186717679  0.06792104770561024  0.13935384046277496  1.0000
  H   H30       1.0  0.968161091905074  0.08285246221742422  0.22574506435931596  1.0000
  H   H31       1.0  0.8672917964908822  0.9683247848268836  0.17569328034126402  1.0000
  H   H32       1.0  0.9517010257799116  0.9385420284245073  0.17654171466183066  1.0000
  H   H33       1.0  0.2324331764061822  0.10844183765382813  0.9482695439038195  1.0000
  H   H34       1.0  0.8387501651323034  0.7156945916520031  0.9494069474939053  1.0000
  H   H35       1.0  0.9016770615737499  0.8065461484864824  0.06997661144318103  1.0000
  H   H36       1.0  0.27147426683464465  0.16989326499306404  0.069308717948168  1.0000
  H   H37       1.0  0.18236246075141335  0.3126344062375068  0.9292509035593851  1.0000
  H   H38       1.0  0.6166088452686224  0.7524252401445889  0.9297032674804413  1.0000
  H   H39       1.0  0.6768062476626966  0.790709190174297  0.05656007282096446  1.0000
  H   H40       1.0  0.26545451868015857  0.3816175057963207  0.0572445056000817  1.0000
  H   H41       1.0  0.11836788019283512  0.2618138241561425  0.9400484538394237  1.0000
  H   H42       1.0  0.6811200541934355  0.8263436268289721  0.9422823619798492  1.0000
  H   H43       1.0  0.7211010531757938  0.8778126940737111  0.06945925676963338  1.0000
  H   H44       1.0  0.1915214644514407  0.3451426702769139  0.06760787873724182  1.0000
  H   H45       1.0  0.3086115673928302  0.2702004500192956  0.9397792620548983  1.0000
  H   H46       1.0  0.6688843245393556  0.6371412899937353  0.9433689674375855  1.0000
  H   H47       1.0  0.755027466489466  0.689239064012959  0.07049955748826871  1.0000
  H   H48       1.0  0.382000583446228  0.32014673786746767  0.06820915484992437  1.0000
  C   C1        1.0  0.8991431398221298  0.8977891087268335  0.29890477396539  1.0000
  C   C2        1.0  0.39894311140656663  0.3982012775553228  0.29917824758886263  1.0000
  C   C3        1.0  0.3182689379303909  0.3181422960920059  0.49985795173484593  1.0000
  C   C4        1.0  0.8187043705346753  0.818459311117202  0.5006380320604934  1.0000
  C   C5        1.0  0.6817494275470893  0.6815718598031137  0.5002196573223047  1.0000
  C   C6        1.0  0.18130528179280253  0.18125312645887703  0.4994604402916352  1.0000
  C   C7        1.0  0.09983130321878517  0.10004712735440793  0.7009089457682123  1.0000
  C   C8        1.0  0.7746445719725658  0.7744142083752976  0.5006408225035487  1.0000
  C   C9        1.0  0.7259504883368137  0.725753171677674  0.5004909936231244  1.0000
  C   C10       1.0  0.22539424375143816  0.2253456758143599  0.4995187358125861  1.0000
  C   C11       1.0  0.27408142129517893  0.27400723891751255  0.49965412180515045  1.0000
  C   C12       1.0  0.6017476644028932  0.6009529145817823  0.7009054600800796  1.0000
  C   C13       1.0  0.12940530789941102  0.1293461802200042  0.49949273747822076  1.0000
  C   C14       1.0  0.370192028984519  0.3702761246178666  0.5000774166947081  1.0000
  C   C15       1.0  0.8704471835366264  0.8703656563418251  0.500466589310399  1.0000
  C   C16       1.0  0.6296149322304317  0.6296695152709475  0.5000018361758692  1.0000
  C   C17       1.0  0.8700862541709853  0.12975297552993947  0.49961955469993313  1.0000
  C   C18       1.0  0.3701217151447409  0.6299331345080573  0.5000393002963007  1.0000
  C   C19       1.0  0.12989920724266565  0.8705531067169259  0.5003954331701904  1.0000
  C   C20       1.0  0.6297100690046308  0.3703120458052284  0.4999640823259456  1.0000
  C   C21       1.0  0.18187953986701885  0.8187452205426454  0.5004040345253385  1.0000
  C   C22       1.0  0.6816991179911086  0.3184811694066099  0.4999894999790016  1.0000
  C   C23       1.0  0.2258325217511298  0.7746383819861291  0.5002709657151739  1.0000
  C   C24       1.0  0.19642370177356835  0.15075580391798132  0.9579532909275484  1.0000
  C   C25       1.0  0.7257310851563119  0.2744440698360862  0.4999731421594051  1.0000
  C   C26       1.0  0.2743353249912204  0.725978188136878  0.5001437359543104  1.0000
  C   C27       1.0  0.7742952562454305  0.22582617452461312  0.49986960163419525  1.0000
  C   C28       1.0  0.807124429153049  0.7625262690180463  0.9575302168133177  1.0000
  C   C29       1.0  0.3182809263498144  0.6818763440868806  0.5000375069211387  1.0000
  C   C30       1.0  0.8182847079157584  0.1817561335379096  0.4997040107907296  1.0000
  C   C31       1.0  0.8445040946828472  0.8184938622053083  0.04379251508780892  1.0000
  C   C32       1.0  0.29824552392879844  0.22899123937460078  0.9573967551255789  1.0000
  C   C33       1.0  0.7275315163591215  0.6624355148944332  0.9579630453341678  1.0000
  C   C34       1.0  0.7806151727127003  0.7049618544588512  0.04236059449294076  1.0000
  C   C35       1.0  0.3409457555710275  0.26504174407295966  0.042476932198624695  1.0000
  C   C36       1.0  0.2307659171736134  0.2001927240371373  0.04451327389799792  1.0000
  C   C37       1.0  0.11181645597238082  0.10361344531889934  0.9142795566518344  1.0000
  C   C38       1.0  0.09872878920322838  0.02219873309192625  0.8523089760215398  1.0000
  C   C39       1.0  0.013339658355910163  0.9796071314746081  0.8047992905675938  1.0000
  C   C40       1.0  0.8140467170263934  0.80043707723474  0.91321058326011  1.0000
  C   C41       1.0  0.8952881822209307  0.8115539171852149  0.920681695924138  1.0000
  C   C42       1.0  0.9059783717149655  0.8628279956622932  0.8890375208350887  1.0000
  C   C43       1.0  0.8590341007794678  0.9055118209153431  0.06643141467996831  1.0000
  C   C44       1.0  0.9043822820606807  0.9623484351486764  0.14971002734913  1.0000
  C   C45       1.0  0.9381400872401502  0.04250581594317989  0.16589802958711894  1.0000
  C   C46       1.0  0.17173535015911773  0.21010368262596305  0.07376653323022712  1.0000
  C   C47       1.0  0.1612983018816578  0.14736548287184084  0.09419289392527468  1.0000
  C   C48       1.0  0.09383870789913831  0.1483743789943688  0.1110884467372415  1.0000
  C   C49       1.0  0.3585205907073146  0.3569382278080298  0.21969356252511574  1.0000
  C   C50       1.0  0.8603929754913368  0.8582533390382281  0.21947011521175608  1.0000
  C   C51       1.0  0.643615447173545  0.6417236948921996  0.7803791140906499  1.0000
  C   C52       1.0  0.13896763702616227  0.13786730136633452  0.7803346714337136  1.0000
  C   C53       1.0  0.20995384413124166  0.20495711321758142  0.927743052819707  1.0000
  C   C54       1.0  0.7221060051155206  0.7204903116600435  0.9277886251340632  1.0000
  C   C55       1.0  0.7940367324760305  0.7941597523686212  0.07245357905664214  1.0000
  C   C56       1.0  0.28171471593891084  0.2798982712915573  0.07212139489542582  1.0000
  C   C57       1.0  0.22881392516395493  0.3278897942629939  0.04151215997646322  1.0000
  C   C58       1.0  0.7141647385457546  0.8145986508012442  0.04205995063230724  1.0000
  C   C59       1.0  0.678185034254106  0.7807233352005198  0.9573577292108338  1.0000
  C   C60       1.0  0.1797707961732797  0.2790984827718219  0.9565990179153586  1.0000
  C   C61       1.0  0.3228499331381229  0.32182986403145003  0.15239505663267752  1.0000
  C   C62       1.0  0.8311528463281803  0.8308793433801681  0.1526203247036834  1.0000
  C   C63       1.0  0.6801360741934347  0.6785253990342353  0.8475763952807754  1.0000
  C   C64       1.0  0.17065929385864106  0.16688067072246326  0.8474793051102194  1.0000
  O   O1        1.0  0.9999091463380337  0.9999883727617838  0.4999360185001009  1.0000
  O   O2        1.0  0.4730525729594391  0.4147548893657387  0.3305014254880021  1.0000
  O   O3        1.0  0.5851509427340815  0.6430642620117268  0.6689647007132108  1.0000
  O   O4        1.0  0.9146188252681497  0.9720711197462248  0.3304188717378622  1.0000
  O   O5        1.0  0.3567047249702923  0.41445084079392547  0.3311189624261388  1.0000
  O   O6        1.0  0.025658651737380512  0.08411192882954313  0.6690161990187846  1.0000
  O   O7        1.0  0.14256694187716334  0.08550596032927867  0.6695129964090113  1.0000
  O   O8        1.0  0.5851621423126829  0.5267804999224168  0.6695965396623222  1.0000
  O   O9        1.0  0.9149580363065224  0.855640336686001  0.3307638272417322  1.0000
  O   O10       1.0  0.4999717788686765  0.49990971328205075  0.5000637887203466  1.0000
  O   O11       1.0  0.05770185155547832  0.11534706271948639  0.4541890721875531  1.0000
  O   O12       1.0  0.3386175523460651  0.39726897175955134  0.45543295522647037  1.0000
  O   O13       1.0  0.8834260587209285  0.9422685287032592  0.5450250060018788  1.0000
  O   O14       1.0  0.6027148998204268  0.6613336953720786  0.5448695398061857  1.0000
  O   O15       1.0  0.8970867433822322  0.11625036284216606  0.45480111543206914  1.0000
  O   O16       1.0  0.338566687047134  0.558063074521634  0.45518351841676  1.0000
  O   O17       1.0  0.883268912218803  0.10290728162402728  0.5444102444092495  1.0000
  O   O18       1.0  0.44190054073482793  0.6615069795723016  0.5449132299868323  1.0000
  O   O19       1.0  0.05819217317958444  0.8388048293772313  0.45538844135388246  1.0000
  O   O20       1.0  0.6162418904004595  0.39700103217734295  0.4550217879160243  1.0000
  O   O21       1.0  0.16127518547127556  0.9424371741583641  0.5453714542778982  1.0000
  O   O22       1.0  0.6028630828111476  0.3837837320347361  0.5448814527426721  1.0000
  O   O23       1.0  0.16086515715264219  0.1031210533142755  0.5447938620492038  1.0000
  O   O24       1.0  0.44194871423588467  0.3836961596864653  0.5448632425369623  1.0000
  O   O25       1.0  0.8975329059445019  0.8387229479610172  0.4557712078436611  1.0000
  O   O26       1.0  0.6161084809001238  0.5578273282200925  0.455018661165674  1.0000
