data_image0
_chemical_formula_structural       Co2H22C30N4O10
_chemical_formula_sum              "Co2 H22 C30 N4 O10"
_cell_length_a       7.593319188441389
_cell_length_b       8.914579455941988
_cell_length_c       10.611054109245142
_cell_angle_alpha    79.70835330455792
_cell_angle_beta     72.2945581930901
_cell_angle_gamma    76.75452633491359

_space_group_name_H-M_alt    "P 1"
_space_group_IT_number       1

loop_
  _space_group_symop_operation_xyz
  'x, y, z'

loop_
  _atom_site_type_symbol
  _atom_site_label
  _atom_site_symmetry_multiplicity
  _atom_site_fract_x
  _atom_site_fract_y
  _atom_site_fract_z
  _atom_site_occupancy
  Co  Co1       1.0  0.17797040243154777  0.13607862795493728  0.27501666062330093  1.0000
  Co  Co2       1.0  0.8220235561647018  0.863921258719074  0.724980778499706  1.0000
  H   H1        1.0  0.2205553674758534  0.9127422978462433  0.47931108678817946  1.0000
  H   H2        1.0  0.7794411548068326  0.0872587748729927  0.5206799808394109  1.0000
  H   H3        1.0  0.3980348901311643  0.005727916218113201  0.4130329296081854  1.0000
  H   H4        1.0  0.6019503005393364  0.9942743100582799  0.5869613153350884  1.0000
  H   H5        1.0  0.8218516294642555  0.5103441439657527  0.5023941377821686  1.0000
  H   H6        1.0  0.17814977667207907  0.4896534276740993  0.497601117258256  1.0000
  H   H7        1.0  0.0012806711265441555  0.8349505611849038  0.3764493235568906  1.0000
  H   H8        1.0  0.9987088941853344  0.16505626674110369  0.623552746582135  1.0000
  H   H9        1.0  0.9807072545490313  0.608745079339016  0.27197034487628013  1.0000
  H   H10       1.0  0.019286379281616927  0.39125594287354903  0.7280326521135834  1.0000
  H   H11       1.0  0.09644744107968967  0.615486850292811  0.02355479568073798  1.0000
  H   H12       1.0  0.9035492202080634  0.3845130121555086  0.976447728495181  1.0000
  H   H13       1.0  0.24503119277558488  0.8352904512694578  0.8899022377053144  1.0000
  H   H14       1.0  0.7549728850921583  0.16470708368932205  0.11010093812388534  1.0000
  H   H15       1.0  0.3641947159450538  0.0318635187939975  0.7925673463927582  1.0000
  H   H16       1.0  0.6358064644644942  0.9681410034290961  0.2074297695448735  1.0000
  H   H17       1.0  0.4820889656709183  0.2772535505844544  0.6966491560405572  1.0000
  H   H18       1.0  0.5179100335764915  0.7227544484923385  0.3033488575371521  1.0000
  H   H19       1.0  0.4593501880217305  0.47055710421797387  0.8496152809405758  1.0000
  H   H20       1.0  0.5406465207046908  0.5294485525160366  0.1503882724921439  1.0000
  H   H21       1.0  0.3360243472902483  0.3983919892404656  0.09719512144195623  1.0000
  H   H22       1.0  0.6639904477800513  0.6016009021669646  0.9028074015861519  1.0000
  C   C1        1.0  0.6807534475805925  0.5039651993912598  0.5009645533436924  1.0000
  C   C2        1.0  0.3192511056917199  0.4960370358326216  0.4990246414225582  1.0000
  C   C3        1.0  0.6551045305745405  0.39756536658932606  0.4291067399120721  1.0000
  C   C4        1.0  0.34490470562617054  0.6024345529152981  0.57088085719041  1.0000
  C   C5        1.0  0.47094202174020694  0.3928745259927382  0.4292325617092346  1.0000
  C   C6        1.0  0.5290641663633407  0.6071265449725445  0.5707573986977722  1.0000
  C   C7        1.0  0.43201363794017317  0.27077098459231747  0.365868047162067  1.0000
  C   C8        1.0  0.5679838325239076  0.729225404811558  0.6341329273379017  1.0000
  C   C9        1.0  0.8300744104146034  0.30573439582418155  0.3452729841938336  1.0000
  C   C10       1.0  0.1699412928708384  0.694260837583478  0.6547242921886749  1.0000
  C   C11       1.0  0.05424611419032036  0.8300664090683085  0.2691677606228993  1.0000
  C   C12       1.0  0.9457448334273977  0.16994041920024464  0.7308340163067157  1.0000
  C   C13       1.0  0.0434756036721994  0.705169565993465  0.2113007065177257  1.0000
  C   C14       1.0  0.9565186239280195  0.2948349379096982  0.7887016564481117  1.0000
  C   C15       1.0  0.11008806987279482  0.7075936684261706  0.07303641212994452  1.0000
  C   C16       1.0  0.8899094583499833  0.29240851941518997  0.9269646463815278  1.0000
  C   C17       1.0  0.19152033847181835  0.8314203171251504  0.9978748945466409  1.0000
  C   C18       1.0  0.8084788245821954  0.16858070645761097  0.0021269296055877163  1.0000
  C   C19       1.0  0.2005957873849482  0.9515203299452325  0.06330477199714583  1.0000
  C   C20       1.0  0.7993998534811979  0.04848418675587139  0.9366944620234108  1.0000
  C   C21       1.0  0.2835990857563857  0.0879254372518119  0.9949525468727387  1.0000
  C   C22       1.0  0.7164028315892778  0.9120755828642543  0.005049636105951501  1.0000
  C   C23       1.0  0.35765094135103226  0.11630809721122401  0.8572380312893345  1.0000
  C   C24       1.0  0.6423477166521963  0.8836952555738263  0.14276167516256785  1.0000
  C   C25       1.0  0.4229827532113505  0.2542063047940815  0.8037223488321884  1.0000
  C   C26       1.0  0.5770172458176007  0.7457970317263329  0.19628084539145618  1.0000
  C   C27       1.0  0.41299376701633156  0.3604480585447972  0.8885926613766485  1.0000
  C   C28       1.0  0.5870078668438554  0.6395541137170255  0.11141129848775218  1.0000
  C   C29       1.0  0.3440555672120952  0.32240151772234066  0.025050991389193207  1.0000
  C   C30       1.0  0.6559540398790207  0.6775960186066284  0.9749510116023645  1.0000
  N   N1        1.0  0.1290945260703539  0.9516795943629144  0.19693136518782248  1.0000
  N   N2        1.0  0.8708983811442083  0.04832493410848569  0.8030656195156852  1.0000
  N   N3        1.0  0.2817818221657475  0.18903942621697922  0.07697717961041661  1.0000
  N   N4        1.0  0.7182220134966357  0.8109592774947385  0.9230239921233262  1.0000
  O   O1        1.0  0.2977579979596357  0.9658434627594229  0.3955928105950194  1.0000
  O   O2        1.0  0.7022333185514072  0.03414943112827729  0.6044128065024809  1.0000
  O   O3        1.0  0.9131599455578088  0.17900962375941987  0.40118573453024453  1.0000
  O   O4        1.0  0.0868310297090532  0.820978623836545  0.5988215754414484  1.0000
  O   O5        1.0  0.9000391480324978  0.36130820626291876  0.22867436241426733  1.0000
  O   O6        1.0  0.09999552084894968  0.6386881425681991  0.7713300383750904  1.0000
  O   O7        1.0  0.5508930113181878  0.14527936955224866  0.35339501969107795  1.0000
  O   O8        1.0  0.4490915842688637  0.8547123331107753  0.6466187937753674  1.0000
  O   O9        1.0  0.2759869901547419  0.30106399606612655  0.3340669289395066  1.0000
  O   O10       1.0  0.7240165765036651  0.6989300904164394  0.6659293189514202  1.0000
