data_image0
_chemical_formula_structural       Zr6H38C52Br2N10O32
_chemical_formula_sum              "Zr6 H38 C52 Br2 N10 O32"
_cell_length_a       14.7899452597096
_cell_length_b       14.777011692331394
_cell_length_c       14.783044408575103
_cell_angle_alpha    60.10633924088949
_cell_angle_beta     60.05341261654533
_cell_angle_gamma    60.17652044656097

_space_group_name_H-M_alt    "P 1"
_space_group_IT_number       1

loop_
  _space_group_symop_operation_xyz
  'x, y, z'

loop_
  _atom_site_type_symbol
  _atom_site_label
  _atom_site_symmetry_multiplicity
  _atom_site_fract_x
  _atom_site_fract_y
  _atom_site_fract_z
  _atom_site_occupancy
  Zr  Zr1       1.0  0.8770781863173555  0.8843208272347665  0.6176994710242383  1.0000
  Zr  Zr2       1.0  0.1201684250016797  0.11668919931596379  0.384068006026034  1.0000
  Zr  Zr3       1.0  0.11618541224831372  0.878335439294652  0.6237140056410554  1.0000
  Zr  Zr4       1.0  0.8805040213020804  0.12128241418137264  0.38068905259511604  1.0000
  Zr  Zr5       1.0  0.11846007196849959  0.8809216755315957  0.3827837693705618  1.0000
  Zr  Zr6       1.0  0.8806915618286907  0.11956327531289902  0.6201333648031735  1.0000
  H   H1        1.0  0.09148849177582029  0.7175804413968904  0.5955400904929891  1.0000
  H   H2        1.0  0.09808955691141817  0.09309175987847594  0.21896446562355726  1.0000
  H   H3        1.0  0.09422377750046713  0.09130018025994954  0.5974385434449516  1.0000
  H   H4        1.0  0.7170758445504503  0.09735785128199126  0.5926350479772393  1.0000
  H   H5        1.0  0.15527605644475542  0.5738083179607258  0.3820852689575035  1.0000
  H   H6        1.0  0.8404219581169841  0.4328242158403199  0.6111409001175402  1.0000
  H   H7        1.0  0.5874514883062573  0.14294669618770667  0.9086345561895258  1.0000
  H   H8        1.0  0.41572813781025536  0.8534804052902486  0.09782260421702206  1.0000
  H   H9        1.0  0.8481685069859423  0.12602476846440416  0.10493987713090992  1.0000
  H   H10       1.0  0.1417959381218876  0.8629107108986672  0.9074176803035954  1.0000
  H   H11       1.0  0.5946568007448363  0.4136428775567537  0.35846979162252524  1.0000
  H   H12       1.0  0.4094520133755993  0.592100305770245  0.6417237202785345  1.0000
  H   H13       1.0  0.9939207509856727  0.5752140142197393  0.7403214465130077  1.0000
  H   H14       1.0  0.015616509850751453  0.4026198248674148  0.7340300205867083  1.0000
  H   H15       1.0  0.00837336512386608  0.23523895179562967  0.07183495934955178  1.0000
  H   H16       1.0  0.02258506482984754  0.2314162847105975  0.9013139557203972  1.0000
  H   H17       1.0  0.5912308036562168  0.8623909681379656  0.6400952632924374  1.0000
  H   H18       1.0  0.4097935349975899  0.13346303338455098  0.35913808891326937  1.0000
  H   H19       1.0  0.18707827927438106  0.33933395317253456  0.3378409924107331  1.0000
  H   H20       1.0  0.24343989582588688  0.4368917145535675  0.29921047572899084  1.0000
  H   H21       1.0  0.7921570841122475  0.6927832544044819  0.6228075550690946  1.0000
  H   H22       1.0  0.732431709334847  0.6046282978783281  0.6471816300409118  1.0000
  H   H23       1.0  0.35438723047930404  0.1684179371080248  0.158957192408991  1.0000
  H   H24       1.0  0.4602721065560331  0.21993740212916174  0.05112519339783004  1.0000
  H   H25       1.0  0.6649725635955194  0.8131915789808557  0.8642153549271043  1.0000
  H   H26       1.0  0.5681024665467689  0.7560639819952967  0.9776192075949194  1.0000
  H   H27       1.0  0.8021774554086958  0.14388606622934935  0.8774088606302045  1.0000
  H   H28       1.0  0.7447120134987697  0.18113609393296318  0.9933882915973771  1.0000
  H   H29       1.0  0.16747653723891207  0.8189260309564971  0.15774093183747342  1.0000
  H   H30       1.0  0.21610279788337297  0.768955626388525  0.052074537189717794  1.0000
  H   H31       1.0  0.36170095820246945  0.6619719321071214  0.31699202886918687  1.0000
  H   H32       1.0  0.4724458881307215  0.5611485587549437  0.2630826529366103  1.0000
  H   H33       1.0  0.6621908527527934  0.36251554516938705  0.6637602481156719  1.0000
  H   H34       1.0  0.5585462033202049  0.47084530481634346  0.7116828906151725  1.0000
  H   H35       1.0  0.3583263579745051  0.8148734067284452  0.6708904555944599  1.0000
  H   H36       1.0  0.46480685700140634  0.7677840188333889  0.7200708380234673  1.0000
  H   H37       1.0  0.6560998993121885  0.16735078366678377  0.3159892410247451  1.0000
  H   H38       1.0  0.5537795850249481  0.21067333783529563  0.26316891391769565  1.0000
  C   C1        1.0  0.9931859819600816  0.7009768618937572  0.4965472279546573  1.0000
  C   C2        1.0  0.30873257384368447  0.9970779163360817  0.2008638735767718  1.0000
  C   C3        1.0  0.0020984465685315846  0.3058904732593816  0.4963124401731421  1.0000
  C   C4        1.0  0.6953808540075814  0.9987548939730571  0.8068973091116121  1.0000
  C   C5        1.0  0.9831842710797076  0.7052493271095701  0.8126635169428624  1.0000
  C   C6        1.0  0.6968364521834971  0.0018418222857973607  0.4930880961716325  1.0000
  C   C7        1.0  0.9932631877328008  0.30964775074909323  0.20370291399858334  1.0000
  C   C8        1.0  0.30761485100772024  0.9907396179104919  0.502401438138847  1.0000
  C   C9        1.0  0.30505051302164804  0.6961683545478577  0.49998389724980535  1.0000
  C   C10       1.0  0.9929364588260512  0.9959397502188377  0.8110896569193927  1.0000
  C   C11       1.0  0.699297265491758  0.3099968499641079  0.499382303411238  1.0000
  C   C12       1.0  0.9987019233970785  0.9950467132628376  0.19945038465087336  1.0000
  C   C13       1.0  0.0029789276520376085  0.4075513506013876  0.4925237513534598  1.0000
  C   C14       1.0  0.991282563059066  0.6009529389229584  0.49811406604194264  1.0000
  C   C15       1.0  0.09521005624569778  0.44667102633145106  0.4243293839431815  1.0000
  C   C16       1.0  0.8980797621094824  0.563295224359038  0.5645127587080978  1.0000
  C   C17       1.0  0.08588528481308096  0.5424146345471001  0.430885400251583  1.0000
  C   C18       1.0  0.9085329484454971  0.46601474050940783  0.5600319639795899  1.0000
  C   C19       1.0  0.40821154487871075  7.038202632261482e-06  0.10052939049582219  1.0000
  C   C20       1.0  0.5967091930132968  0.9946139069608078  0.908116959874434  1.0000
  C   C21       1.0  0.455935665146427  0.08523345550766241  0.04756297644897239  1.0000
  C   C22       1.0  0.5489847557077072  0.909444861693679  0.9607760100396731  1.0000
  C   C23       1.0  0.5493472046572662  0.07885808561207584  0.9523876101285964  1.0000
  C   C24       1.0  0.4555454657237517  0.9159327720219821  0.055865010231585195  1.0000
  C   C25       1.0  0.9899178192238767  0.9973780850435143  0.9120559690677296  1.0000
  C   C26       1.0  0.9993788546796766  0.9905907553188482  0.10123913739587902  1.0000
  C   C27       1.0  0.9025994889828726  0.07374724287909365  0.9682338430967334  1.0000
  C   C28       1.0  0.08504196089197782  0.9122582192821653  0.046868683903326686  1.0000
  C   C29       1.0  0.9116681798057583  0.06780096429143612  0.060962094683112825  1.0000
  C   C30       1.0  0.07725549734286839  0.9197936138110591  0.9525982191412723  1.0000
  C   C31       1.0  0.4062277550483626  0.5974150799884939  0.49655781303466984  1.0000
  C   C32       1.0  0.598789716548076  0.4094813651378573  0.502489775647959  1.0000
  C   C33       1.0  0.4579152002351775  0.5476408689606558  0.4133372819683173  1.0000
  C   C34       1.0  0.5472629063309354  0.4593164935303945  0.5856570760686779  1.0000
  C   C35       1.0  0.5530621015318078  0.4546038370443596  0.41989789111150344  1.0000
  C   C36       1.0  0.4519150785555864  0.5521417415661815  0.5793374319899202  1.0000
  C   C37       1.0  0.977324166338839  0.6060117601392534  0.9163419154994727  1.0000
  C   C38       1.0  0.9919721508056866  0.5059329661158783  0.9098772566474339  1.0000
  C   C39       1.0  0.959482764676878  0.6104777015912148  0.01556468699750704  1.0000
  C   C40       1.0  0.0008731311694491098  0.5005483925028428  0.8121802696114315  1.0000
  C   C41       1.0  0.011812184342858289  0.4038467706195163  0.809049124208272  1.0000
  C   C42       1.0  0.9855029660164688  0.41348863416821047  0.10462426028097843  1.0000
  C   C43       1.0  0.9637790965366192  0.513446582316419  0.11038146870637872  1.0000
  C   C44       1.0  0.9961295016353732  0.407988560056893  0.005637105484737465  1.0000
  C   C45       1.0  0.008787219889626302  0.3093463937758114  0.9989296178639083  1.0000
  C   C46       1.0  0.015777308460819428  0.3074190123719873  0.9032916199900428  1.0000
  C   C47       1.0  0.4071082496559912  0.9904138856229563  0.5038503093778743  1.0000
  C   C48       1.0  0.5962880085018724  0.0032311503249145847  0.49296860224637845  1.0000
  C   C49       1.0  0.4569732886734317  0.911097865084976  0.5871386651359176  1.0000
  C   C50       1.0  0.5448827887408142  0.08406633086891444  0.41124429218899644  1.0000
  C   C51       1.0  0.5509589334333287  0.9206446826820239  0.5778817056975499  1.0000
  C   C52       1.0  0.4517101956553304  0.0736814664421104  0.41974887387647897  1.0000
  Br  Br1       1.0  0.9349603641425686  0.5210005624007222  0.24738713416494545  1.0000
  Br  Br2       1.0  0.9254263884959213  0.74808360021607  0.025033891705007003  1.0000
  N   N1        1.0  0.19246804378650495  0.39245561686215774  0.3579660740906617  1.0000
  N   N2        1.0  0.8011017627316551  0.6157536442850499  0.6333482240609741  1.0000
  N   N3        1.0  0.41272693335520927  0.1732963243691401  0.0828928989468096  1.0000
  N   N4        1.0  0.5877340226133755  0.8250294862213821  0.9210258253077725  1.0000
  N   N5        1.0  0.8135081663392044  0.15382343871831924  0.9338233747308708  1.0000
  N   N6        1.0  0.17515700253572675  0.8340186202134204  0.07975726998743228  1.0000
  N   N7        1.0  0.4168475671806818  0.5839808277641579  0.3305557923991173  1.0000
  N   N8        1.0  0.5845253473032129  0.41814856144849705  0.6723324165059098  1.0000
  N   N9        1.0  0.41502439302277583  0.8301696670762979  0.6759929226799174  1.0000
  N   N10       1.0  0.5800647875441098  0.17189561867323983  0.32881982649404756  1.0000
  O   O1        1.0  0.9154647981804942  0.7437357596255367  0.5719025212010608  1.0000
  O   O2        1.0  0.2662293264956618  0.07365059070252035  0.24304322994864697  1.0000
  O   O3        1.0  0.08005506306138692  0.2619032790185614  0.4218396952254864  1.0000
  O   O4        1.0  0.7353623761313914  0.9247998658432405  0.7625389818757781  1.0000
  O   O5        1.0  0.06473930502485808  0.7377854891561101  0.7729328108992846  1.0000
  O   O6        1.0  0.7390917308600677  0.07810925260923798  0.4167477669720227  1.0000
  O   O7        1.0  0.9173135770567739  0.26880723471173684  0.24368341194356435  1.0000
  O   O8        1.0  0.26552293080346373  0.9143901604171131  0.578830312606243  1.0000
  O   O9        1.0  0.26392620545320955  0.7391943622706094  0.42272315437099195  1.0000
  O   O10       1.0  0.9170961259241392  0.07248491968780972  0.7688512593131449  1.0000
  O   O11       1.0  0.7423828744620025  0.26834468511007253  0.5749460675100478  1.0000
  O   O12       1.0  0.07504324935677453  0.9194004493468382  0.24136205446913558  1.0000
  O   O13       1.0  0.07080808400733213  0.9204735057739625  0.7700076858244743  1.0000
  O   O14       1.0  0.7375483728427739  0.2691720003255753  0.4237766185307948  1.0000
  O   O15       1.0  0.9238476910916943  0.07411359324184019  0.23690016821416285  1.0000
  O   O16       1.0  0.26251372997289496  0.7336175864369778  0.5793581732548673  1.0000
  O   O17       1.0  0.9086335636770714  0.7450891984163093  0.7705540195000681  1.0000
  O   O18       1.0  0.26743941832972246  0.06780027748240505  0.4259841103463843  1.0000
  O   O19       1.0  0.07407318441715928  0.26932222980025944  0.23698346757901595  1.0000
  O   O20       1.0  0.736942864882408  0.9250944476302578  0.5697082036083219  1.0000
  O   O21       1.0  0.735544524320794  0.07550583232188049  0.767344533308183  1.0000
  O   O22       1.0  0.07232268993096366  0.7384795518172566  0.4224642159229575  1.0000
  O   O23       1.0  0.2682180120531613  0.9205739832935861  0.24068473089424458  1.0000
  O   O24       1.0  0.9251252378750506  0.2663923965686549  0.5731877733342472  1.0000
  O   O25       1.0  0.7972538350012286  0.07003727540979536  0.5660783796742095  1.0000
  O   O26       1.0  0.06712300257600379  0.06489262722803348  0.5705437092265201  1.0000
  O   O27       1.0  0.06811626212054019  0.06788216236395067  0.2991724197424119  1.0000
  O   O28       1.0  0.06332325285395499  0.7977834922492023  0.570335807539351  1.0000
  O   O29       1.0  0.14744275007682708  0.9486052067333619  0.45430977824083385  1.0000
  O   O30       1.0  0.9498758920732299  0.9524660657422572  0.4498828851589919  1.0000
  O   O31       1.0  0.9514132523384403  0.1486310005916423  0.4513916525554649  1.0000
  O   O32       1.0  0.9482440673074211  0.9509710735440818  0.6494739091533006  1.0000
