data_image0
_chemical_formula_structural       Sr2H36C20O20
_chemical_formula_sum              "Sr2 H36 C20 O20"
_cell_length_a       6.930465880314071
_cell_length_b       10.245615949543325
_cell_length_c       11.441634676448441
_cell_angle_alpha    105.19795364398625
_cell_angle_beta     100.46056554263956
_cell_angle_gamma    96.81282718443045

_space_group_name_H-M_alt    "P 1"
_space_group_IT_number       1

loop_
  _space_group_symop_operation_xyz
  'x, y, z'

loop_
  _atom_site_type_symbol
  _atom_site_label
  _atom_site_symmetry_multiplicity
  _atom_site_fract_x
  _atom_site_fract_y
  _atom_site_fract_z
  _atom_site_occupancy
  Sr  Sr1       1.0  0.2272383979744035  0.5350535568501797  0.40368061769787295  1.0000
  Sr  Sr2       1.0  0.7727539512882443  0.4649476536831614  0.5963205262310467  1.0000
  H   H1        1.0  0.110350699449242  0.3147658803413478  0.742622136495335  1.0000
  H   H2        1.0  0.8896439046486507  0.6852271483567877  0.25738092148604613  1.0000
  H   H3        1.0  0.21962922015042352  0.1879040706663062  0.653198724942456  1.0000
  H   H4        1.0  0.7803701293205947  0.8120899453069937  0.34680074352653634  1.0000
  H   H5        1.0  0.45912494939305054  0.44381112284177243  0.8569989188609385  1.0000
  H   H6        1.0  0.5408735028023345  0.5561849214850625  0.1429982797999187  1.0000
  H   H7        1.0  0.558717985869862  0.3153902943991653  0.7626990406359299  1.0000
  H   H8        1.0  0.4412778083203436  0.6846067671773285  0.23729720104065424  1.0000
  H   H9        1.0  0.30984170504601144  0.2689558970733117  0.9497409405054925  1.0000
  H   H10       1.0  0.6901631035161984  0.7310422217398127  0.050259222315880016  1.0000
  H   H11       1.0  0.39176134774324106  0.1380358865594005  0.8475816631915124  1.0000
  H   H12       1.0  0.6082390753588598  0.8619622214867915  0.15241710735905653  1.0000
  H   H13       1.0  0.7564178189071525  0.22452581276755273  0.13319184883250307  1.0000
  H   H14       1.0  0.2435789324529196  0.7754754000763596  0.8668098133120239  1.0000
  H   H15       1.0  0.32541781776856754  0.8618036682701274  0.5872823614484518  1.0000
  H   H16       1.0  0.6745790167780896  0.1381975022919804  0.41271493042009416  1.0000
  H   H17       1.0  0.024696787008267097  0.0069818897729803  0.3798222085573499  1.0000
  H   H18       1.0  0.9753043997238606  0.9930193084687883  0.6201782236923918  1.0000
  H   H19       1.0  0.2598372172254244  0.11281892762976041  0.433110863628663  1.0000
  H   H20       1.0  0.7401623684952909  0.8871873883909205  0.5668887877735643  1.0000
  H   H21       1.0  0.15883866119827428  0.8771750622104764  0.18996650720573888  1.0000
  H   H22       1.0  0.8411539814281214  0.12282715865654839  0.8100331511607806  1.0000
  H   H23       1.0  0.3579708290825891  0.017316775917869603  0.23731512503956514  1.0000
  H   H24       1.0  0.6420266925625385  0.9826813136752218  0.7626815519235423  1.0000
  H   H25       1.0  0.9119694807706226  0.020806074567367695  0.1529785270400339  1.0000
  H   H26       1.0  0.08803061514603173  0.97919609095608  0.8470158766327957  1.0000
  H   H27       1.0  0.10817352420145451  0.06036799021149619  0.0812212679639117  1.0000
  H   H28       1.0  0.891834128703678  0.9396414367684328  0.9187826569405503  1.0000
  H   H29       1.0  0.9889710120787356  0.44635724434712654  0.11618605839996127  1.0000
  H   H30       1.0  0.011029477572634484  0.5536408298736217  0.8838092159298226  1.0000
  H   H31       1.0  0.15760467254142435  0.5657288380039843  0.1202179047906284  1.0000
  H   H32       1.0  0.8423998925689844  0.4342682451063737  0.8797811214275556  1.0000
  H   H33       1.0  0.25601159922565847  0.7226920159347047  0.6792817088029325  1.0000
  H   H34       1.0  0.7439946600650345  0.2773061121049736  0.3207195008121602  1.0000
  H   H35       1.0  0.4906554884955483  0.7316100425419946  0.6716348690647607  1.0000
  H   H36       1.0  0.5093486662428292  0.2683911403274308  0.3283641605516578  1.0000
  C   C1        1.0  0.24887670920020347  0.37561486734147553  0.6083814627599224  1.0000
  C   C2        1.0  0.7511066761494549  0.624380209687942  0.3916207384091663  1.0000
  C   C3        1.0  0.24306284090215513  0.2979773719436736  0.7046747962670565  1.0000
  C   C4        1.0  0.7569345310071044  0.7020207937566667  0.2953297471928096  1.0000
  C   C5        1.0  0.4325667838318878  0.33383930439244114  0.8062814286953782  1.0000
  C   C6        1.0  0.5674330691800407  0.6661567745300302  0.19371943892479493  1.0000
  C   C7        1.0  0.426943953814849  0.24890265734070738  0.8970680033053711  1.0000
  C   C8        1.0  0.5730611314737928  0.7510964802624612  0.10293154800879024  1.0000
  C   C9        1.0  0.6215638073464193  0.2729391318894159  0.9901419987846865  1.0000
  C   C10       1.0  0.37844149477441397  0.7270548448828436  0.009853790362470274  1.0000
  C   C11       1.0  0.25354534896305836  0.9037383497612907  0.4320290014616718  1.0000
  C   C12       1.0  0.7464588756518395  0.0962752177191248  0.5679789516399366  1.0000
  C   C13       1.0  0.1827298687748709  0.0104903511689685  0.3741799694695089  1.0000
  C   C14       1.0  0.8172733055012883  0.9895129023357966  0.6258211606147484  1.0000
  C   C15       1.0  0.2015040021256382  0.9873219246423088  0.2396685329773547  1.0000
  C   C16       1.0  0.7984918852334458  0.0126812996424235  0.7603291112486374  1.0000
  C   C17       1.0  0.0702309657016045  0.06667139598307867  0.17166513788197343  1.0000
  C   C18       1.0  0.929770807758018  0.9333318229260497  0.828332323242968  1.0000
  C   C19       1.0  0.09546976115982633  0.2183307471289098  0.23958383907741881  1.0000
  C   C20       1.0  0.9045191165556618  0.7816684158276103  0.7604173083336434  1.0000
  O   O1        1.0  0.0839205859971983  0.3893080784704566  0.5457356152358699  1.0000
  O   O2        1.0  0.91608496290268  0.610699352441003  0.45427373022044293  1.0000
  O   O3        1.0  0.4146308560575703  0.4232225998052284  0.589885590092436  1.0000
  O   O4        1.0  0.5853800055254226  0.5767703781704725  0.4101132496264555  1.0000
  O   O5        1.0  0.7716788555128814  0.3539368730632262  0.9922684936406229  1.0000
  O   O6        1.0  0.22833463745568855  0.6460488911291336  0.007726404292348811  1.0000
  O   O7        1.0  0.6196748516271171  0.19984867834008213  0.06975975151267022  1.0000
  O   O8        1.0  0.3803297900148478  0.8001545759348685  0.9302415513101182  1.0000
  O   O9        1.0  0.2655779760152868  0.7871710831859602  0.3715182323394046  1.0000
  O   O10       1.0  0.7344291633666559  0.21283007585476105  0.6284785205884944  1.0000
  O   O11       1.0  0.2944654717110495  0.944953158185086  0.5560313276402056  1.0000
  O   O12       1.0  0.7055334840252455  0.055044949090920205  0.44396727017183224  1.0000
  O   O13       1.0  0.9396582613540473  0.2758321591098393  0.2393491415812932  1.0000
  O   O14       1.0  0.06034683391687425  0.7241731834833659  0.7606561825582575  1.0000
  O   O15       1.0  0.2677315565380241  0.28585774322824875  0.29382404474355184  1.0000
  O   O16       1.0  0.7322668052686793  0.7141496077250054  0.7061765705233327  1.0000
  O   O17       1.0  0.10172396786867921  0.5150866648391741  0.17221503068517316  1.0000
  O   O18       1.0  0.8982716427639732  0.48491554065550707  0.8277832250480303  1.0000
  O   O19       1.0  0.3524859895648688  0.7319936645679448  0.6267416682660568  1.0000
  O   O20       1.0  0.6475141401734915  0.2680034331445711  0.37325858784691235  1.0000
