data_image0
_chemical_formula_structural       K4H24C24S8N4O20
_chemical_formula_sum              "K4 H24 C24 S8 N4 O20"
_cell_length_a       6.871146453950546
_cell_length_b       11.496062803268815
_cell_length_c       13.030144979006927
_cell_angle_alpha    90.00009196862402
_cell_angle_beta     89.99990194135626
_cell_angle_gamma    106.4744076248909

_space_group_name_H-M_alt    "P 1"
_space_group_IT_number       1

loop_
  _space_group_symop_operation_xyz
  'x, y, z'

loop_
  _atom_site_type_symbol
  _atom_site_label
  _atom_site_symmetry_multiplicity
  _atom_site_fract_x
  _atom_site_fract_y
  _atom_site_fract_z
  _atom_site_occupancy
  K   K1        1.0  0.18616433769041402  0.49162847719009756  0.6407337331965905  1.0000
  K   K2        1.0  0.6861664756224712  0.4916280576695513  0.8592652262515513  1.0000
  K   K3        1.0  0.813837468401175  0.5083707887565299  0.35926767346331445  1.0000
  K   K4        1.0  0.31383678626021083  0.508371209176815  0.1407338780541849  1.0000
  H   H1        1.0  0.2239927148722671  0.2823713235642771  0.8105966048005229  1.0000
  H   H2        1.0  0.7239928056421121  0.2823715743671756  0.6894035585571174  1.0000
  H   H3        1.0  0.7760090912212974  0.7176279423812916  0.18940326695704357  1.0000
  H   H4        1.0  0.2760079736076193  0.7176285977793881  0.31059631320155745  1.0000
  H   H5        1.0  0.3746871086042205  0.28155318961758274  0.7200004600552318  1.0000
  H   H6        1.0  0.8746865381718718  0.2815526586427808  0.7799995650735098  1.0000
  H   H7        1.0  0.6253151264336552  0.7184469834303044  0.2799994117027822  1.0000
  H   H8        1.0  0.12531526792168537  0.7184466073027879  0.2200003066840566  1.0000
  H   H9        1.0  0.3178730379866935  0.9563513009443058  0.4848424140647722  1.0000
  H   H10       1.0  0.8178754601970298  0.9563522187105351  0.0151574663631706  1.0000
  H   H11       1.0  0.6821244007434402  0.0436479622967596  0.5151566902436144  1.0000
  H   H12       1.0  0.18212531905270168  0.043647953436035905  0.9848424053955114  1.0000
  H   H13       1.0  0.03596743429194042  0.8469436651351288  0.3717608373001013  1.0000
  H   H14       1.0  0.5359695665990001  0.8469447393310005  0.1282391444780586  1.0000
  H   H15       1.0  0.9640314602253425  0.1530555990077858  0.6282390344587868  1.0000
  H   H16       1.0  0.46403121265073105  0.15305543281556314  0.8717607272806163  1.0000
  H   H17       1.0  0.8376954449489915  0.9590017496406703  0.2728967250149381  1.0000
  H   H18       1.0  0.3376941124397987  0.9590013824373217  0.22710314114022617  1.0000
  H   H19       1.0  0.16230242272446557  0.0409984207032466  0.7271031467450582  1.0000
  H   H20       1.0  0.6623037552336585  0.0409987879065952  0.7728967306197702  1.0000
  H   H21       1.0  0.9213927009423769  0.18491878318548774  0.2846043734235977  1.0000
  H   H22       1.0  0.4213918273924903  0.18491930688859531  0.21539508692345066  1.0000
  H   H23       1.0  0.07860807830834211  0.8150813889605503  0.715394730883915  1.0000
  H   H24       1.0  0.5786089518572478  0.8150808652579754  0.7846047848352241  1.0000
  C   C1        1.0  0.16803343604634338  0.19524197139714522  0.3905858925822017  1.0000
  C   C2        1.0  0.668034160825755  0.19524301865069296  0.10941458029832059  1.0000
  C   C3        1.0  0.8319654584709396  0.8047572927457765  0.6094139791766863  1.0000
  C   C4        1.0  0.3319651626358463  0.804757152594547  0.8905852914610151  1.0000
  C   C5        1.0  0.2792747245452318  0.13224310729352604  0.44590904978532103  1.0000
  C   C6        1.0  0.7792755911548567  0.13224407801654792  0.054091232621786396  1.0000
  C   C7        1.0  0.7207245989163624  0.8677570639517144  0.5540908219740216  1.0000
  C   C8        1.0  0.22072518809487474  0.8677560941300232  0.9459086391368954  1.0000
  C   C9        1.0  0.23528760293032744  0.0066969675087236  0.44008632879889825  1.0000
  C   C10       1.0  0.7352899104007732  0.006697947187738903  0.0599138156773407  1.0000
  C   C11       1.0  0.7647098357988186  0.9933022957328677  0.5599135429606577  1.0000
  C   C12       1.0  0.2647108688489652  0.9933022249588248  0.9400860560813342  1.0000
  C   C13       1.0  0.07482157292024998  0.9455508543303  0.3767032750391266  1.0000
  C   C14       1.0  0.5748218331654724  0.9455510136855522  0.1232968111569832  1.0000
  C   C15       1.0  0.9251777505413514  0.0544493169149405  0.6232965967202091  1.0000
  C   C16       1.0  0.4251774902961216  0.05444915755968788  0.8767030606023525  1.0000
  C   C17       1.0  0.9632913327923659  0.008736393332455301  0.3208486458857677  1.0000
  C   C18       1.0  0.46329055215998943  0.008736866897962202  0.1791512940936997  1.0000
  C   C19       1.0  0.036707990670215906  0.991263777912252  0.6791504584223986  1.0000
  C   C20       1.0  0.5367092002459231  0.9912642114495966  0.8208485776660837  1.0000
  C   C21       1.0  0.008744048057735713  0.13508804233035931  0.3268437306299745  1.0000
  C   C22       1.0  0.5087427246911459  0.13508826975699154  0.17315680187994784  1.0000
  C   C23       1.0  0.9912552754038584  0.8649121289148809  0.6731561411293684  1.0000
  C   C24       1.0  0.4912570277147665  0.8649128085905744  0.8268430698798355  1.0000
  S   S1        1.0  0.27178149859123824  0.3549493853172905  0.4069810179067161  1.0000
  S   S2        1.0  0.7717822654030541  0.3549504098904706  0.09301881951304129  1.0000
  S   S3        1.0  0.7282163690822187  0.6450507850266193  0.5930188538532875  1.0000
  S   S4        1.0  0.22821851384668423  0.6450497622560931  0.9069810522456336  1.0000
  S   S5        1.0  0.4822266747848117  0.2341712089387898  0.5140771123772794  1.0000
  S   S6        1.0  0.9822260053787557  0.23417186992692515  0.9859227477803287  1.0000
  S   S7        1.0  0.5177722197324712  0.765828055204125  0.4859227593816087  1.0000
  S   S8        1.0  0.017773318082845383  0.7658283013183151  0.014077123979007  1.0000
  N   N1        1.0  0.41316387891880874  0.3552909020732642  0.505340565508611  1.0000
  N   N2        1.0  0.9131660986911568  0.3552915769497744  0.9946595291324839  1.0000
  N   N3        1.0  0.5868350155984812  0.6447083620696504  0.49465930625027704  1.0000
  N   N4        1.0  0.08683468055956213  0.6447085951962636  0.005339575175028699  1.0000
  O   O1        1.0  0.11862757418494856  0.41444373124961953  0.4340537371688171  1.0000
  O   O2        1.0  0.6186275525141838  0.4144429041671671  0.06594555642809749  1.0000
  O   O3        1.0  0.8813717492756651  0.5855564399961537  0.5659469020416948  1.0000
  O   O4        1.0  0.3813732267355548  0.5855572679794039  0.9340543153305843  1.0000
  O   O5        1.0  0.3876625167156433  0.3997127020683351  0.31391142617761847  1.0000
  O   O6        1.0  0.8876586775639479  0.39971385268381704  0.18608836928524397  1.0000
  O   O7        1.0  0.6123378335887963  0.6002865629764429  0.6860892130317777  1.0000
  O   O8        1.0  0.11234064589764611  0.6002863185614231  0.8139115024740988  1.0000
  O   O9        1.0  0.48006436492547505  0.1991542580439898  0.6228041980505878  1.0000
  O   O10       1.0  0.9800635453158503  0.199153861523385  0.8771948469914432  1.0000
  O   O11       1.0  0.5199345295918079  0.800845006098925  0.3771956737083002  1.0000
  O   O12       1.0  0.019935349201432476  0.8008454026195367  0.12280502476745168  1.0000
  O   O13       1.0  0.6709479488329464  0.2387478389257467  0.4613239713178814  1.0000
  O   O14       1.0  0.17094855517711235  0.2387472119653324  0.0386750256703081  1.0000
  O   O15       1.0  0.32905094568434373  0.7612514252171677  0.5386759004410138  1.0000
  O   O16       1.0  0.8290517951292952  0.7612520530783796  0.961324078636757  1.0000
  O   O17       1.0  0.3392237300223043  0.33391922823931713  0.772111982589962  1.0000
  O   O18       1.0  0.8392232931872312  0.33391862517641596  0.7278873815642868  1.0000
  O   O19       1.0  0.6607780760722406  0.6660800377057187  0.2278871217164351  1.0000
  O   O20       1.0  0.16077851290632592  0.6660806407691525  0.2721124901932797  1.0000
