data_image0
_chemical_formula_structural       Zn4H34C30N14O18
_chemical_formula_sum              "Zn4 H34 C30 N14 O18"
_cell_length_a       6.70474899863767
_cell_length_b       8.998867879896087
_cell_length_c       16.09120880100191
_cell_angle_alpha    90.00001317183477
_cell_angle_beta     89.99994454953867
_cell_angle_gamma    108.56538749271

_space_group_name_H-M_alt    "P 1"
_space_group_IT_number       1

loop_
  _space_group_symop_operation_xyz
  'x, y, z'

loop_
  _atom_site_type_symbol
  _atom_site_label
  _atom_site_symmetry_multiplicity
  _atom_site_fract_x
  _atom_site_fract_y
  _atom_site_fract_z
  _atom_site_occupancy
  Zn  Zn1       1.0  0.22957834803222707  0.71730534373269  0.5997796754377162  1.0000
  Zn  Zn2       1.0  0.7704226148170364  0.282695178907204  0.09978043401147828  1.0000
  Zn  Zn3       1.0  0.904260732127682  0.8678013443486918  0.822595003765457  1.0000
  Zn  Zn4       1.0  0.0957377023755157  0.1321979745096797  0.32259477146504867  1.0000
  H   H1        1.0  0.6179781702995584  0.3363096358207898  0.7351957514282218  1.0000
  H   H2        1.0  0.3820259531199355  0.6636920331955594  0.2351954716984039  1.0000
  H   H3        1.0  0.7178531520678817  0.26745907228625737  0.8244792617144157  1.0000
  H   H4        1.0  0.2821472725081761  0.7325414159609592  0.3244784094364377  1.0000
  H   H5        1.0  0.8379897410538248  0.5325824270848044  0.8838632330979195  1.0000
  H   H6        1.0  0.16201054126747746  0.4674180520731141  0.3838611524517717  1.0000
  H   H7        1.0  0.9441026317947063  0.5387539794140394  0.7822679858379473  1.0000
  H   H8        1.0  0.05589839811125322  0.4612476875453097  0.2822653256018839  1.0000
  H   H9        1.0  0.20591638084485445  0.435426236472601  0.8568709753543189  1.0000
  H   H10       1.0  0.7940834619253322  0.564573074565537  0.3568711388357641  1.0000
  H   H11       1.0  0.3046421537519207  0.4346457220899538  0.7528247013432363  1.0000
  H   H12       1.0  0.6953589466829442  0.5653559493757995  0.25282490460759277  1.0000
  H   H13       1.0  0.34383962101653504  0.22009146126875112  0.8293279441235626  1.0000
  H   H14       1.0  0.6561602877330301  0.7799078539851079  0.3293288119083967  1.0000
  H   H15       1.0  0.4684152449411343  0.3397986946121349  0.9087539049390898  1.0000
  H   H16       1.0  0.5315834651231482  0.6601982639825577  0.40875418610523434  1.0000
  H   H17       1.0  0.4301057228873332  0.7027255295776837  0.8080343428158726  1.0000
  H   H18       1.0  0.5698947410840062  0.29727496118667307  0.308032698019673  1.0000
  H   H19       1.0  0.5232710479325604  0.6380546553037687  0.9004437851933744  1.0000
  H   H20       1.0  0.47672720008225156  0.36194465163902106  0.40044280753445344  1.0000
  H   H21       1.0  0.880713752883956  0.20131642390945356  0.5878419374765612  1.0000
  H   H22       1.0  0.11928522172586029  0.7986794115533299  0.0878424019947772  1.0000
  H   H23       1.0  0.16939914493929817  0.22580669089084884  0.6519168207386201  1.0000
  H   H24       1.0  0.8306026791811048  0.774192648943902  0.15191761767781736  1.0000
  H   H25       1.0  0.8571983462487863  0.7893667715295432  0.5294678691636036  1.0000
  H   H26       1.0  0.14279980428181463  0.21063376702014838  0.0294682493862695  1.0000
  H   H27       1.0  0.8301000192921321  0.9475281112326569  0.4724038063102468  1.0000
  H   H28       1.0  0.16990005092361568  0.05247235437290239  0.9724048514802985  1.0000
  H   H29       1.0  0.10725368866473409  0.7062639869913522  0.9350341893158995  1.0000
  H   H30       1.0  0.8927429861111945  0.2937353172308831  0.4350330357542234  1.0000
  H   H31       1.0  0.2726399897554542  0.8574166684636706  0.893589796397606  1.0000
  H   H32       1.0  0.7273557981336578  0.14258381692700076  0.3935893115341074  1.0000
  H   H33       1.0  0.69103112297406  0.6479945699400105  0.7303862981394785  1.0000
  H   H34       1.0  0.30896902279554433  0.352004760458108  0.23038538664768987  1.0000
  C   C1        1.0  0.6510960851693  0.35618494944694845  0.8014828729515457  1.0000
  C   C2        1.0  0.3489058848713141  0.6438155397461995  0.3014826040044909  1.0000
  C   C3        1.0  0.7985347664148891  0.5203433495842659  0.8176687104795092  1.0000
  C   C4        1.0  0.20146617868606845  0.4796583119565126  0.3176672369891094  1.0000
  C   C5        1.0  0.3472587481108817  0.45293499450322355  0.8187886630339349  1.0000
  C   C6        1.0  0.6527421943059152  0.5470666668660511  0.3187882596433198  1.0000
  C   C7        1.0  0.4988796875249548  0.6170486321091531  0.8334637368975919  1.0000
  C   C8        1.0  0.5011222059060643  0.38295185218907324  0.33346213064987745  1.0000
  C   C9        1.0  0.6459771577564623  0.9462752649213612  0.675144360765529  1.0000
  C   C10       1.0  0.3540196353829899  0.05372290682873879  0.17514463611568937  1.0000
  C   C11       1.0  0.7220794906451075  0.20433314290665547  0.5995986997218309  1.0000
  C   C12       1.0  0.27792046421885885  0.7956650352587431  0.0995997215489908  1.0000
  C   C13       1.0  0.5788407399087275  0.0790811099316286  0.6413239885599396  1.0000
  C   C14       1.0  0.4211581288336034  0.9209182366722144  0.1413249687527269  1.0000
  C   C15       1.0  0.37897223712151623  0.0883795468938402  0.6603226020063886  1.0000
  C   C16       1.0  0.621029566862447  0.9116197916543028  0.1603235006762631  1.0000
  C   C17       1.0  0.4649587404663222  0.3418940189074177  0.5919647780489254  1.0000
  C   C18       1.0  0.5350437314810108  0.6581065023547905  0.09196505755848958  1.0000
  C   C19       1.0  0.2309523427552873  0.9752677645862415  0.7173643940943037  1.0000
  C   C20       1.0  0.7690478342052672  0.024731567804806797  0.217366363303114  1.0000
  C   C21       1.0  0.8424028090238166  0.47626029100180733  0.544088257857652  1.0000
  C   C22       1.0  0.1575982872371923  0.523740240162361  0.04408805052564449  1.0000
  C   C23       1.0  0.323106034201281  0.21821040230621944  0.6348540563271852  1.0000
  C   C24       1.0  0.6768943404175259  0.7817889427141009  0.13485429455994336  1.0000
  C   C25       1.0  0.6688732931511722  0.3363883358642353  0.5760616430972759  1.0000
  C   C26       1.0  0.331128712684027  0.6636110155810825  0.0760613838154498  1.0000
  C   C27       1.0  0.12051215861831813  0.9169830823702795  0.4666318511004448  1.0000
  C   C28       1.0  0.879484440462832  0.08301621701547647  0.9666319934764189  1.0000
  C   C29       1.0  0.40272911372328923  0.4826564550475324  0.5693058430293263  1.0000
  C   C30       1.0  0.5972724263369071  0.5173452445078511  0.0693060796099516  1.0000
  N   N1        1.0  0.7078587494601436  0.6444074250869036  0.7939794038260217  1.0000
  N   N2        1.0  0.2921417481801143  0.35559306782871397  0.2939778780974436  1.0000
  N   N3        1.0  0.44510084036150493  0.33182067572508345  0.8444840327647611  1.0000
  N   N4        1.0  0.5548990320818632  0.6681786372090102  0.3444843055747882  1.0000
  N   N5        1.0  0.4474788401121541  0.9230805710659026  0.4609460724682747  1.0000
  N   N6        1.0  0.5525192629652267  0.0769187266161921  0.9609469669523207  1.0000
  N   N7        1.0  0.26061241693129494  0.8530042435634115  0.4993136395170339  1.0000
  N   N8        1.0  0.739387084612076  0.14699504567222724  0.9993144678071529  1.0000
  N   N9        1.0  0.9142823148517536  0.8744450494528023  0.4857632534205223  1.0000
  N   N10       1.0  0.08571772336244268  0.12555541410802815  0.9857630988152906  1.0000
  N   N11       1.0  0.22087272713770287  0.025374411368979093  0.4095372444158086  1.0000
  N   N12       1.0  0.7791260033011654  0.974626066432947  0.9095375406112467  1.0000
  N   N13       1.0  0.42444490067939716  0.024808161491009197  0.4079326005850347  1.0000
  N   N14       1.0  0.5755543378126119  0.9751934888076047  0.9079329786801009  1.0000
  O   O1        1.0  0.8013517929513299  0.9881935643300251  0.7245849932426438  1.0000
  O   O2        1.0  0.19865033904881102  0.011803417306033698  0.2245853257106987  1.0000
  O   O3        1.0  0.5452382341388994  0.8061262719722603  0.6549103421936806  1.0000
  O   O4        1.0  0.4547595936399773  0.19387072804997268  0.15490997343071905  1.0000
  O   O5        1.0  0.1479602494582649  0.8309118088730683  0.7000537070683065  1.0000
  O   O6        1.0  0.8520374924280459  0.16908870356651556  0.20005441837641763  1.0000
  O   O7        1.0  0.931004209345737  0.4636792289867842  0.4763674102261106  1.0000
  O   O8        1.0  0.06899784596384244  0.536322405689482  0.9763660717073533  1.0000
  O   O9        1.0  0.895851764254992  0.5959378565835677  0.5920162885751453  1.0000
  O   O10       1.0  0.10414823102397004  0.4040638420695401  0.0920173304104992  1.0000
  O   O11       1.0  0.1863725361017359  0.03399775316652409  0.7846650670085322  1.0000
  O   O12       1.0  0.8136239946766608  0.9660004018201602  0.2846658951836929  1.0000
  O   O13       1.0  0.4818055231372895  0.5624200514720384  0.506595813811856  1.0000
  O   O14       1.0  0.5181996298589979  0.43757930545805823  0.0065954505678292  1.0000
  O   O15       1.0  0.26798205481946974  0.5107742654655211  0.6190205956285836  1.0000
  O   O16       1.0  0.7320198481011745  0.4892250794041288  0.1190245032116692  1.0000
  O   O17       1.0  0.12194785465017326  0.8100387802108031  0.9068200292195314  1.0000
  O   O18       1.0  0.8780469153796417  0.18996287797989447  0.4068182468996042  1.0000
