data_image0
_chemical_formula_structural       Zn2H48C56N4O12
_chemical_formula_sum              "Zn2 H48 C56 N4 O12"
_cell_length_a       9.05721933632592
_cell_length_b       9.163352330176446
_cell_length_c       15.983
_cell_angle_alpha    78.60579071173935
_cell_angle_beta     77.93315718379412
_cell_angle_gamma    85.52992704801991

_space_group_name_H-M_alt    "P 1"
_space_group_IT_number       1

loop_
  _space_group_symop_operation_xyz
  'x, y, z'

loop_
  _atom_site_type_symbol
  _atom_site_label
  _atom_site_symmetry_multiplicity
  _atom_site_fract_x
  _atom_site_fract_y
  _atom_site_fract_z
  _atom_site_occupancy
  Zn  Zn1       1.0  0.5838955350791295  0.6490014055699405  0.7494823578267074  1.0000
  Zn  Zn2       1.0  0.41610449623158974  0.3509985818412034  0.2505175147569574  1.0000
  H   H1        1.0  0.9549850763865564  0.4300332269488791  0.0939810702805701  1.0000
  H   H2        1.0  0.0450137827030304  0.569967874520664  0.9060181893236957  1.0000
  H   H3        1.0  0.7799603535691731  0.34536033227620067  0.14657326909222954  1.0000
  H   H4        1.0  0.2200407204145662  0.6546418832517418  0.8534256019406854  1.0000
  H   H5        1.0  0.8089062291798186  0.6803109028579896  0.07167138327262988  1.0000
  H   H6        1.0  0.1910926730924629  0.319689084553147  0.9283286230632726  1.0000
  H   H7        1.0  0.8025971798568888  0.6001800242842066  0.1831740041868812  1.0000
  H   H8        1.0  0.1974017655981015  0.39981884906853077  0.816826123215897  1.0000
  H   H9        1.0  0.643507100745424  0.5893324376383973  0.1368419154517895  1.0000
  H   H10       1.0  0.3564918015268645  0.41066754977273934  0.863157465219345  1.0000
  H   H11       1.0  0.931240651883023  0.1859619703890303  0.08424008095563099  1.0000
  H   H12       1.0  0.0687604652834182  0.8140391310805128  0.9157601624736955  1.0000
  H   H13       1.0  0.9692453741173422  0.9814074667649564  0.8585051557503647  1.0000
  H   H14       1.0  0.030753614520350005  0.0185902925293817  0.14149509271928198  1.0000
  H   H15       1.0  0.8482630178713749  0.2061787881831592  0.7854998203691963  1.0000
  H   H16       1.0  0.15173479854518487  0.7938200851695781  0.21449918945627647  1.0000
  H   H17       1.0  0.2188433222089969  0.6047911120039373  0.408583697958683  1.0000
  H   H18       1.0  0.7811556232459935  0.3952077613488072  0.5914183064383991  1.0000
  H   H19       1.0  0.3835317764139887  0.791438228309282  0.35584118553703803  1.0000
  H   H20       1.0  0.6164671690410017  0.2085606450434625  0.644157690536197  1.0000
  H   H21       1.0  0.4666722763061486  0.6071083534770025  0.3766151591049223  1.0000
  H   H22       1.0  0.5333277981872655  0.3928905198757349  0.6233848345456109  1.0000
  H   H23       1.0  0.6207262263619598  0.8965496383977936  0.37396260981474677  1.0000
  H   H24       1.0  0.3792738049487525  0.1034503490133432  0.626037262768918  1.0000
  H   H25       1.0  0.6637270510206009  0.7809638512276463  0.2940567835451233  1.0000
  H   H26       1.0  0.3362741093285351  0.2190361361834974  0.7059435809510717  1.0000
  H   H27       1.0  0.6994253243026165  0.710902946536109  0.3995700526278653  1.0000
  H   H28       1.0  0.30057470700809563  0.2890970408750277  0.6004304456205674  1.0000
  H   H29       1.0  0.0734245934027555  0.567529200681939  0.7283957573476909  1.0000
  H   H30       1.0  0.9265765669463872  0.4324707867292048  0.2716039814837359  1.0000
  H   H31       1.0  0.9092800489288564  0.46689073507148743  0.6526187819019782  1.0000
  H   H32       1.0  0.0907211977856903  0.5331070242228506  0.34738182472795387  1.0000
  H   H33       1.0  0.8559775544713729  0.8064189716209923  0.7500997462630536  1.0000
  H   H34       1.0  0.1440236490604718  0.193579901731745  0.249900739300017  1.0000
  H   H35       1.0  0.0513978535354838  0.9572669352842169  0.6435947537956537  1.0000
  H   H36       1.0  0.9486033499963611  0.0427319380685205  0.356405731767417  1.0000
  H   H37       1.0  0.7940659237343509  0.9329125045905754  0.4465268859549383  1.0000
  H   H38       1.0  0.2059352797974938  0.0670863687621619  0.5534729739433573  1.0000
  H   H39       1.0  0.6141352623341375  0.7786020474185591  0.5609155986606709  1.0000
  H   H40       1.0  0.3858647689765747  0.2213979399925847  0.4390848995877689  1.0000
  H   H41       1.0  0.4658141454601079  0.1309586790388408  0.8600166899109851  1.0000
  H   H42       1.0  0.5341847568121735  0.8690413083722959  0.1399839420896853  1.0000
  H   H43       1.0  0.47123600875674737  0.9578896939301059  0.7573772692961783  1.0000
  H   H44       1.0  0.5287628503328391  0.0421114075394371  0.24262386730239172  1.0000
  H   H45       1.0  0.5453929306085783  0.5901668673803826  0.9425500013570058  1.0000
  H   H46       1.0  0.45460710070213384  0.4098331200307541  0.05745112255620201  1.0000
  H   H47       1.0  0.523796871108395  0.7414515419366126  0.0562433452414624  1.0000
  H   H48       1.0  0.4762020743465882  0.258547331416132  0.9437574078260766  1.0000
  C   C1        1.0  0.7661683466314102  0.4642804962390841  0.8410889160487969  1.0000
  C   C2        1.0  0.23382942660244768  0.5357194911720525  0.15891184970411132  1.0000
  C   C3        1.0  0.8258971165967709  0.3248070688451108  0.8906994762959073  1.0000
  C   C4        1.0  0.17410178567551776  0.6751929185660259  0.10929990437522719  1.0000
  C   C5        1.0  0.8483419998752241  0.3173607024960745  0.9763193334692131  1.0000
  C   C6        1.0  0.1516591604739119  0.6826392849150622  0.023679779697445735  1.0000
  C   C7        1.0  0.8317305973410001  0.4404218215336755  0.09856832152023293  1.0000
  C   C8        1.0  0.1682693044216137  0.5595815080526663  0.9014305621980512  1.0000
  C   C9        1.0  0.7674726835186192  0.5866676099443708  0.12358302974394061  1.0000
  C   C10       1.0  0.23252504653253683  0.4133334915251723  0.8764169892773308  1.0000
  C   C11       1.0  0.9155281891898354  0.1892439864369422  0.018363156848046562  1.0000
  C   C12       1.0  0.08447410019773831  0.8107560009741945  0.9816364482311499  1.0000
  C   C13       1.0  0.9627642480068059  0.06642907430585858  0.9772577880129774  1.0000
  C   C14       1.0  0.03723465426548239  0.9335709131052782  0.022742218322925084  1.0000
  C   C15       1.0  0.936484564534574  0.0739779340277451  0.8927919948700022  1.0000
  C   C16       1.0  0.0635154667761384  0.9260220533833986  0.1072072520488945  1.0000
  C   C17       1.0  0.8677931766801875  0.200817939159883  0.8511630636757772  1.0000
  C   C18       1.0  0.1322045965536773  0.7991820482512537  0.14883645074758792  1.0000
  C   C19       1.0  0.0498580031248821  0.5287354590592344  0.5238115106927452  1.0000
  C   C20       1.0  0.9501443294453863  0.47126341429351026  0.4761888411180877  1.0000
  C   C21       1.0  0.1857819013907118  0.5961638437503538  0.4786867820854965  1.0000
  C   C22       1.0  0.8142192589584312  0.40383614366079  0.5213135824106985  1.0000
  C   C23       1.0  0.2806536972614282  0.6515693101831275  0.5226044466073247  1.0000
  C   C24       1.0  0.7193462908665822  0.3484317912864157  0.4773946792447036  1.0000
  C   C25       1.0  0.4644643773132556  0.7202276153484135  0.39051750335498525  1.0000
  C   C26       1.0  0.5355367830358871  0.2797723720627232  0.6094816098116737  1.0000
  C   C27       1.0  0.6209998159193405  0.7816022066911401  0.36359915186014996  1.0000
  C   C28       1.0  0.37900021539137196  0.2183977807199966  0.6364013463882827  1.0000
  C   C29       1.0  0.23996983323442578  0.6423382222764644  0.6133592044300682  1.0000
  C   C30       1.0  0.7600312407493135  0.357663993251478  0.3866402922676214  1.0000
  C   C31       1.0  0.1064947015119202  0.574767238110077  0.6581355356482702  1.0000
  C   C32       1.0  0.8935063724718192  0.4252349774178654  0.34186396104941247  1.0000
  C   C33       1.0  0.012580368402218798  0.5181374214951404  0.6145140321586098  1.0000
  C   C34       1.0  0.9874196629084935  0.4818625659159963  0.3854864660898299  1.0000
  C   C35       1.0  0.3423288929307091  0.6975531847227501  0.6618891578673569  1.0000
  C   C36       1.0  0.6576710520145995  0.3024490308051924  0.3381110982473388  1.0000
  C   C37       1.0  0.8470796908825948  0.8400301135645094  0.6820262568947442  1.0000
  C   C38       1.0  0.152922641687681  0.1599687597882351  0.3179734692513208  1.0000
  C   C39       1.0  0.9553382370204841  0.9242495864681786  0.6215061540676886  1.0000
  C   C40       1.0  0.0446617942902279  0.0757504009429653  0.37849371851597613  1.0000
  C   C41       1.0  0.942158301289744  0.957967678018143  0.5337438840639166  1.0000
  C   C42       1.0  0.057844074463226  0.0420300812761951  0.46625471181947375  1.0000
  C   C43       1.0  0.8147418137542742  0.9074306467956176  0.5125145747957731  1.0000
  C   C44       1.0  0.18526060518139792  0.0925659984403211  0.4874847678192609  1.0000
  C   C45       1.0  0.7119775585298314  0.8220068767609874  0.5763217355011321  1.0000
  C   C46       1.0  0.28802360181931164  0.1779931106501493  0.42367862899506287  1.0000
  C   C47       1.0  0.4992428073924912  0.9520965902474287  0.9680553742603665  1.0000
  C   C48       1.0  0.5007549226586718  0.0479045112221073  0.031945270425673314  1.0000
  C   C49       1.0  0.4818774188417194  0.011785623819036998  0.8824100907164407  1.0000
  C   C50       1.0  0.5181203543921383  0.9882143635920996  0.11759130070123551  1.0000
  C   C51       1.0  0.4868212249374366  0.9173446525017894  0.8239366709687771  1.0000
  C   C52       1.0  0.5131765482964212  0.0826553349093473  0.17606346911936305  1.0000
  C   C53       1.0  0.5247747246159307  0.7101364743565597  0.9277898658287143  1.0000
  C   C54       1.0  0.4752230486179343  0.2898635130545841  0.07221152558896192  1.0000
  C   C55       1.0  0.5155099246554116  0.7967600852885397  0.9906559065846636  1.0000
  C   C56       1.0  0.4844889776168699  0.20323990212260407  0.009345351080774797  1.0000
  N   N1        1.0  0.728655967212049  0.7873674589137991  0.6598922854698159  1.0000
  N   N2        1.0  0.27134514995439213  0.2126336425557369  0.3401079579595105  1.0000
  N   N3        1.0  0.512007614005995  0.7690022061813266  0.8455643329491167  1.0000
  N   N4        1.0  0.48799237412202257  0.2309988952882165  0.15443604423244747  1.0000
  O   O1        1.0  0.6523543390081413  0.44934208714659013  0.8055062645794067  1.0000
  O   O2        1.0  0.3476434342257164  0.5506579002645537  0.1944932498439655  1.0000
  O   O3        1.0  0.8259927580647995  0.5855379547262487  0.8345203377871326  1.0000
  O   O4        1.0  0.17400618739018367  0.4144609186264887  0.16547916395087733  1.0000
  O   O5        1.0  0.7974179590981905  0.4372768346690208  0.014313309422696796  1.0000
  O   O6        1.0  0.2025820722125218  0.562723152742123  0.9856853118314319  1.0000
  O   O7        1.0  0.415020034456596  0.7159552013824424  0.48301791208138667  1.0000
  O   O8        1.0  0.5849812122579436  0.2840425579118957  0.5169820688837845  1.0000
  O   O9        1.0  0.4408580685149488  0.5958908994422245  0.6863745573726234  1.0000
  O   O10       1.0  0.5591418764303667  0.4041113160857108  0.3136250730772971  1.0000
  O   O11       1.0  0.3287079630003973  0.8270023146288921  0.6769350889823541  1.0000
  O   O12       1.0  0.6712920251276201  0.17299878684064396  0.32306591386397804  1.0000
