data_image0
_chemical_formula_structural       Cd3H28C44N2O14
_chemical_formula_sum              "Cd3 H28 C44 N2 O14"
_cell_length_a       9.575832712724283
_cell_length_b       10.03844286514538
_cell_length_c       14.056495331062596
_cell_angle_alpha    67.73998298969006
_cell_angle_beta     67.48300917936155
_cell_angle_gamma    63.33315369737784

_space_group_name_H-M_alt    "P 1"
_space_group_IT_number       1

loop_
  _space_group_symop_operation_xyz
  'x, y, z'

loop_
  _atom_site_type_symbol
  _atom_site_label
  _atom_site_symmetry_multiplicity
  _atom_site_fract_x
  _atom_site_fract_y
  _atom_site_fract_z
  _atom_site_occupancy
  Cd  Cd1       1.0  0.999998683184451  0.5000004529317864  0.4999999195154317  1.0000
  Cd  Cd2       1.0  0.8461577252050176  0.7807531320812655  0.6502978717999284  1.0000
  Cd  Cd3       1.0  0.1538467751352998  0.21923980718268862  0.3497027524827701  1.0000
  H   H1        1.0  0.9990011122792599  0.845778688433647  0.4163463122535091  1.0000
  H   H2        1.0  0.0010000970647042055  0.1542200301184238  0.5836529693678258  1.0000
  H   H3        1.0  0.8297549928545038  0.8373259357045197  0.4245003589728712  1.0000
  H   H4        1.0  0.1702470986988729  0.16267050906837707  0.5754985614566692  1.0000
  H   H5        1.0  0.44278244360931757  0.2473066823009303  0.6040432850120823  1.0000
  H   H6        1.0  0.5572127256529029  0.752693248092946  0.3959550564893561  1.0000
  H   H7        1.0  0.34788581738881424  0.6878653858942342  0.6439792260820951  1.0000
  H   H8        1.0  0.6521209274455446  0.312127534795941  0.3560215577015385  1.0000
  H   H9        1.0  0.8042944991257955  0.32185034478710856  0.6659999043021401  1.0000
  H   H10       1.0  0.1957076625886743  0.6781368188465178  0.3340027468347984  1.0000
  H   H11       1.0  0.5519004164520638  0.8395394541036366  0.8036512134298449  1.0000
  H   H12       1.0  0.44809358711447084  0.16047540407280536  0.19634510205762726  1.0000
  H   H13       1.0  0.297187812930396  0.8879971836454459  0.9458181081518119  1.0000
  H   H14       1.0  0.7028051897787861  0.11201409707055629  0.0541821988095492  1.0000
  H   H15       1.0  0.3032824130711091  0.8531438315076583  0.13019489541142093  1.0000
  H   H16       1.0  0.696719465157102  0.1468559861293599  0.8698053685197422  1.0000
  H   H17       1.0  0.5611073293794319  0.7764405710726977  0.16998586175955668  1.0000
  H   H18       1.0  0.4388965839503812  0.22355703479265537  0.8300123158216123  1.0000
  H   H19       1.0  0.08921450488370651  0.7001913953146827  0.7737519384916495  1.0000
  H   H20       1.0  0.9107846482298285  0.2998189302193665  0.22624281091842138  1.0000
  H   H21       1.0  0.2634019394441792  0.6327769175128282  0.8882150615419775  1.0000
  H   H22       1.0  0.736602818775424  0.3672333473278968  0.11178044760215045  1.0000
  H   H23       1.0  0.29471226191285615  0.5854316553295505  0.06773413165925754  1.0000
  H   H24       1.0  0.705289287729549  0.41457513617779534  0.9322630435674385  1.0000
  H   H25       1.0  0.051618191409957645  0.6268563488197998  0.2205389014991326  1.0000
  H   H26       1.0  0.9483832886167817  0.37314470551896756  0.7794590161558048  1.0000
  H   H27       1.0  0.7798899186944438  0.7144370191590355  0.1975719029343567  1.0000
  H   H28       1.0  0.22011200856603352  0.2855629125490253  0.8024254731429465  1.0000
  C   C1        1.0  0.21149423310533425  0.5295384213564772  0.6078622327735701  1.0000
  C   C2        1.0  0.788503390043367  0.47046368366150637  0.39213851407972544  1.0000
  C   C3        1.0  0.3754542981955852  0.4717905696462238  0.6261503481312546  1.0000
  C   C4        1.0  0.6245469356645118  0.5282082059413751  0.37384748956315406  1.0000
  C   C5        1.0  0.4807144992800899  0.32211106665364747  0.6201148858849733  1.0000
  C   C6        1.0  0.5192826560514663  0.677886537897514  0.37988425712033086  1.0000
  C   C7        1.0  0.6426170890159071  0.6229780768896517  0.6657019373927682  1.0000
  C   C8        1.0  0.35738039983946374  0.3770086961251167  0.33431122419427334  1.0000
  C   C9        1.0  0.582143375930798  0.515427796040143  0.6567316171977424  1.0000
  C   C10       1.0  0.4178604187510687  0.48456395858558204  0.34327019066552106  1.0000
  C   C11       1.0  0.42654730086538734  0.5688891273820218  0.6439715967384456  1.0000
  C   C12       1.0  0.5734567644992624  0.43110496303039264  0.35602884715842725  1.0000
  C   C13       1.0  0.6847093701102056  0.3640199241649355  0.653632528332416  1.0000
  C   C14       1.0  0.3152926395694351  0.6359707549216225  0.3463678564888255  1.0000
  C   C15       1.0  0.6359870188266116  0.26753250320269467  0.633716175972765  1.0000
  C   C16       1.0  0.36401371044214426  0.7324616863648002  0.36628222376404546  1.0000
  C   C17       1.0  0.7472665344676341  0.10672809798093395  0.6270737391752093  1.0000
  C   C18       1.0  0.2527326191913205  0.8932672092452802  0.37292548337050135  1.0000
  C   C19       1.0  0.7034843763613737  0.7813399668620703  0.905552985688253  1.0000
  C   C20       1.0  0.29651309475249116  0.21866565360884485  0.09444549484934579  1.0000
  C   C21       1.0  0.5542518236016888  0.8262790528630289  0.8838120393794853  1.0000
  C   C22       1.0  0.4457452247945709  0.17372774727411408  0.11618553880882133  1.0000
  C   C23       1.0  0.4120127172029271  0.8523101589499404  0.9635902906457545  1.0000
  C   C24       1.0  0.5879854350532485  0.1476965891236758  0.03640845023820556  1.0000
  C   C25       1.0  0.41547139901659585  0.8329169704115811  0.0673016943252521  1.0000
  C   C26       1.0  0.5845308896711501  0.16708163904144158  0.9327001939186772  1.0000
  C   C27       1.0  0.560875215661575  0.7895607995207924  0.08964176810306415  1.0000
  C   C28       1.0  0.43912424152162527  0.210442495107408  0.9103575139384006  1.0000
  C   C29       1.0  0.7081212149720105  0.7638046179067217  0.009956630308295099  1.0000
  C   C30       1.0  0.29187844327829277  0.2361952753395967  0.9900420301950135  1.0000
  C   C31       1.0  0.8627453164068657  0.7199299299786404  0.029357904363131113  1.0000
  C   C32       1.0  0.13725303691641244  0.280073416713094  0.9706402149826729  1.0000
  C   C33       1.0  0.002620964755145433  0.6968662727338851  0.9421975113663236  1.0000
  C   C34       1.0  0.9973783281351557  0.303140508829479  0.057800226322910944  1.0000
  C   C35       1.0  0.9832067730889094  0.7176724093257433  0.841331911888581  1.0000
  C   C36       1.0  0.01679209708377978  0.2823355519038486  0.1586649234513544  1.0000
  C   C37       1.0  0.15804616735944418  0.6498249108895847  0.956321665964694  1.0000
  C   C38       1.0  0.8419565229170803  0.3501819141075159  0.0436745060672763  1.0000
  C   C39       1.0  0.17516003531440572  0.6243154956544287  0.055740235985993494  1.0000
  C   C40       1.0  0.824841502069937  0.37569126733515634  0.9442576612041689  1.0000
  C   C41       1.0  0.03707028831851739  0.6489058877213694  0.14209636590640423  1.0000
  C   C42       1.0  0.9629310028991823  0.3510985965170406  0.8579014513232295  1.0000
  C   C43       1.0  0.8838605132037997  0.6968313936682333  0.12917923648949173  1.0000
  C   C44       1.0  0.11614211971512842  0.30316972267804937  0.8708169560072463  1.0000
  N   N1        1.0  0.8435178255579031  0.755841624613353  0.8234069584384829  1.0000
  N   N2        1.0  0.15647964555596167  0.24416399585755488  0.17659152209911613  1.0000
  O   O1        1.0  0.17851319066627985  0.4349273759860281  0.5869395664164045  1.0000
  O   O2        1.0  0.8214848919742295  0.5650736349190095  0.41305991689579713  1.0000
  O   O3        1.0  0.11997399068449255  0.6661979680320156  0.6137237340404554  1.0000
  O   O4        1.0  0.8800290732773703  0.33380756322781474  0.38627622819467416  1.0000
  O   O5        1.0  0.7997439934329196  0.5744880655057185  0.6525140700429687  1.0000
  O   O6        1.0  0.2002564979945304  0.4255094398903765  0.3474871171223981  1.0000
  O   O7        1.0  0.5494158857152983  0.751279575293104  0.682612403007468  1.0000
  O   O8        1.0  0.45057556460903925  0.24869509965157022  0.31741881082515266  1.0000
  O   O9        1.0  0.6855239521925753  0.02378480033092249  0.6181273694588186  1.0000
  O   O10       1.0  0.31447261274115584  0.9762080185758107  0.3818773893331411  1.0000
  O   O11       1.0  0.8918878995120209  0.057977995536695866  0.6331658720539437  1.0000
  O   O12       1.0  0.10810956327650724  0.9420220303544435  0.3668297410945699  1.0000
  O   O13       1.0  0.9220168180349616  0.7842145901895278  0.45538061421545717  1.0000
  O   O14       1.0  0.0779832384168131  0.21578406635503458  0.5446203925640773  1.0000
