data_image0
_chemical_formula_structural       Zn2H18C44S2N2O22
_chemical_formula_sum              "Zn2 H18 C44 S2 N2 O22"
_cell_length_a       13.740233730386361
_cell_length_b       14.011633195967013
_cell_length_c       14.989059413729205
_cell_angle_alpha    83.7493913192493
_cell_angle_beta     86.21154688531566
_cell_angle_gamma    82.91654457302519

_space_group_name_H-M_alt    "P 1"
_space_group_IT_number       1

loop_
  _space_group_symop_operation_xyz
  'x, y, z'

loop_
  _atom_site_type_symbol
  _atom_site_label
  _atom_site_symmetry_multiplicity
  _atom_site_fract_x
  _atom_site_fract_y
  _atom_site_fract_z
  _atom_site_occupancy
  Zn  Zn1       1.0  0.5039033076045102  0.39151293451591573  0.5311101205624027  1.0000
  Zn  Zn2       1.0  0.524965548569952  0.6009871795563415  0.4804373852942235  1.0000
  H   H1        1.0  0.046170011550309184  0.39853477252541586  0.5228989772735488  1.0000
  H   H2        1.0  0.732763824454196  0.9362301178954199  0.3745683067623348  1.0000
  H   H3        1.0  0.31117962145256667  0.8821448392007057  0.6295034479823018  1.0000
  H   H4        1.0  0.7166823315551554  0.10804861961843673  0.40271611546653935  1.0000
  H   H5        1.0  0.7022358862682552  0.19555468814726143  0.21508291972407537  1.0000
  H   H6        1.0  0.19727255236786329  0.621318947457823  0.7797292902569312  1.0000
  H   H7        1.0  0.26206226537834704  0.8228929429734254  0.8784517303924774  1.0000
  H   H8        1.0  0.8636164471537101  0.3720811143974815  0.1562188064704912  1.0000
  H   H9        1.0  0.3031302293540322  0.39048712273584124  0.5415549778360502  1.0000
  H   H10       1.0  0.6329959430942865  0.7951014793785022  0.2334809211513118  1.0000
  H   H11       1.0  0.9822440887799999  0.6046029597156845  0.43358292300967366  1.0000
  H   H12       1.0  0.38156513228804567  0.559226493602317  0.245936129823896  1.0000
  H   H13       1.0  0.6387804644845261  0.4433497164825938  0.76979685485302  1.0000
  H   H14       1.0  0.299349473918582  0.6352694413445903  0.11152645996816091  1.0000
  H   H15       1.0  0.7331501387787185  0.3912063305112313  0.903316355426597  1.0000
  H   H16       1.0  0.6231772227747854  0.2478931108654834  0.47052880628510263  1.0000
  H   H17       1.0  0.4039037213726289  0.7423238920939923  0.5583536742882489  1.0000
  H   H18       1.0  0.29130915551179026  0.056225171656066705  0.6516959237619703  1.0000
  C   C1        1.0  0.4990125343010591  0.5238678651353013  0.6707300746844782  1.0000
  C   C2        1.0  0.6749257091474874  0.40068313264862354  0.03718198437674401  1.0000
  C   C3        1.0  0.568544622727181  0.20079434631635706  0.4979168809270647  1.0000
  C   C4        1.0  0.4552270539548217  0.7908946007548397  0.5272504117640012  1.0000
  C   C5        1.0  0.41903514484179993  0.18830272826356523  0.5800517025413969  1.0000
  C   C6        1.0  0.5969123487030785  0.8083583783772995  0.4362933311301874  1.0000
  C   C7        1.0  0.4237690044900475  0.08788484769215901  0.5719678300729285  1.0000
  C   C8        1.0  0.596628489874803  0.9064127707785447  0.4507506537856047  1.0000
  C   C9        1.0  0.5064874759583091  0.04601831290797521  0.52033372016507  1.0000
  C   C10       1.0  0.5159988448661182  0.9469376038159468  0.5052065089487243  1.0000
  C   C11       1.0  0.5795442894769565  0.1034751713098885  0.4824323060965129  1.0000
  C   C12       1.0  0.512229036580088  0.45345759558394144  0.3443936694106356  1.0000
  C   C13       1.0  0.44422592093616936  0.8881766563688845  0.5439306209442449  1.0000
  C   C14       1.0  0.3531959208534303  0.025415341787699202  0.611091391267621  1.0000
  C   C15       1.0  0.6697402503748223  0.9668660144483355  0.4140881467397294  1.0000
  C   C16       1.0  0.700429547962372  0.4591768625744665  0.5097782981185688  1.0000
  C   C17       1.0  0.32191752998993195  0.551303868328958  0.4851432511784211  1.0000
  C   C18       1.0  0.3638888472304771  0.9294612280524321  0.5982258642641796  1.0000
  C   C19       1.0  0.661309837728652  0.0617459489518026  0.42999431525363724  1.0000
  C   C20       1.0  0.21921434819574157  0.5585331080823366  0.4703699314028286  1.0000
  C   C21       1.0  0.8065177555461317  0.4466993271857262  0.5039426414757175  1.0000
  C   C22       1.0  0.03198456238677487  0.5432611899007399  0.4614716201126897  1.0000
  C   C23       1.0  0.512418913395628  0.4947212549616394  0.05446919579465973  1.0000
  C   C24       1.0  0.9955837463268651  0.4595352295373942  0.4954948055740049  1.0000
  C   C25       1.0  0.8950829417975399  0.4500307216069146  0.49869230059179165  1.0000
  C   C26       1.0  0.13201316458568613  0.5528443586657303  0.46392306805491773  1.0000
  C   C27       1.0  0.5842863451118917  0.40671469745120714  0.18981502784976814  1.0000
  C   C28       1.0  0.4243026994527241  0.5809677987431457  0.8222670917045394  1.0000
  C   C29       1.0  0.511600868188566  0.4569549757043633  0.24345460704279998  1.0000
  C   C30       1.0  0.5002396104135799  0.5326320023533242  0.7701613014833485  1.0000
  C   C31       1.0  0.43753311345431456  0.5209122205396711  0.20357583382025982  1.0000
  C   C32       1.0  0.5810770950000119  0.4804051676676266  0.8112280868090667  1.0000
  C   C33       1.0  0.4338903817883875  0.5365190455074611  0.10999992311111843  1.0000
  C   C34       1.0  0.509043990177645  0.51461715969905  0.9591160433149142  1.0000
  C   C35       1.0  0.5868000420375522  0.47031199500636944  0.904391677544574  1.0000
  C   C36       1.0  0.6467831963817757  0.3230083871565058  0.2346640053939311  1.0000
  C   C37       1.0  0.3343630031706226  0.6284260989842496  0.7760618941172411  1.0000
  C   C38       1.0  0.2783268126490198  0.7031372052192354  0.950449494151059  1.0000
  C   C39       1.0  0.7740358207713738  0.3600308926662663  0.06825939388831874  1.0000
  C   C40       1.0  0.5915278517179415  0.4323157568379302  0.0952800257314195  1.0000
  C   C41       1.0  0.42853521381611154  0.5746900487671951  0.9176079585247977  1.0000
  C   C42       1.0  0.3570053296262188  0.5998249846949335  0.0687577344632473  1.0000
  C   C43       1.0  0.6698685686593109  0.4170544015432043  0.9457183919424139  1.0000
  C   C44       1.0  0.3549611934638719  0.621758223961244  0.9773987789425436  1.0000
  S   S1        1.0  0.316616002400842  0.25891479818289304  0.6359788761233532  1.0000
  S   S2        1.0  0.6907891785206741  0.7527369915317268  0.3621619957267726  1.0000
  N   N1        1.0  0.4906080719655037  0.2412621011915093  0.5450021197881585  1.0000
  N   N2        1.0  0.529077763732168  0.7526123665606833  0.47387478066792726  1.0000
  O   O1        1.0  0.5150265695368078  0.43698958212439015  0.651061318352909  1.0000
  O   O2        1.0  0.6604854701692914  0.2476235025779658  0.18228887685339157  1.0000
  O   O3        1.0  0.330466560936415  0.6922034047938865  0.7137833700358769  1.0000
  O   O4        1.0  0.2534261480670708  0.5880663580590236  0.8123099360246615  1.0000
  O   O5        1.0  0.19425983264271451  0.7134124808299589  0.9826691450191876  1.0000
  O   O6        1.0  0.3159605541184123  0.7711821531748555  0.8902498216321962  1.0000
  O   O7        1.0  0.8318986346228741  0.30273124189896816  0.029960604510314688  1.0000
  O   O8        1.0  0.7970029962482316  0.40061002618588043  0.14185457295656792  1.0000
  O   O9        1.0  0.24600404084037553  0.19561991015578434  0.6726518540440554  1.0000
  O   O10       1.0  0.3603630598706431  0.3156258619181004  0.693474759944124  1.0000
  O   O11       1.0  0.27082889840483654  0.3236051732797949  0.5548188782653725  1.0000
  O   O12       1.0  0.5337987573281354  0.5319681949239552  0.36845348508278164  1.0000
  O   O13       1.0  0.7847281444449479  0.767523890865185  0.39092160332351983  1.0000
  O   O14       1.0  0.6662485947782244  0.6600505567551735  0.3456101962200293  1.0000
  O   O15       1.0  0.6754235901750008  0.824309581085423  0.2702128195136169  1.0000
  O   O16       1.0  0.4872477263043678  0.5992186773575624  0.6162181191471705  1.0000
  O   O17       1.0  0.4877518697007019  0.381276462220434  0.3952231841139025  1.0000
  O   O18       1.0  0.6551674350329862  0.38524706933355196  0.5095372586083331  1.0000
  O   O19       1.0  0.3704695888166897  0.6209843515424253  0.4599761756979036  1.0000
  O   O20       1.0  0.6626413896922614  0.5461517137332593  0.5153424701936659  1.0000
  O   O21       1.0  0.358243156686413  0.46902419619451047  0.5254933202178478  1.0000
  O   O22       1.0  0.6778536272935867  0.31642756493280905  0.30976059381004023  1.0000
