data_image0
_chemical_formula_structural       Cu4H12C24N16O8F4
_chemical_formula_sum              "Cu4 H12 C24 N16 O8 F4"
_cell_length_a       5.9255352249144275
_cell_length_b       10.731162899778733
_cell_length_c       12.415945315692152
_cell_angle_alpha    90.00025109858605
_cell_angle_beta     90.00125358935364
_cell_angle_gamma    89.99996966888607

_space_group_name_H-M_alt    "P 1"
_space_group_IT_number       1

loop_
  _space_group_symop_operation_xyz
  'x, y, z'

loop_
  _atom_site_type_symbol
  _atom_site_label
  _atom_site_symmetry_multiplicity
  _atom_site_fract_x
  _atom_site_fract_y
  _atom_site_fract_z
  _atom_site_occupancy
  Cu  Cu1       1.0  0.7484852656703397  0.6902529951467073  0.4899753217433158  1.0000
  Cu  Cu2       1.0  0.7515145275541432  0.30975380347631903  0.9899736322791314  1.0000
  Cu  Cu3       1.0  0.2515138848922547  0.19025396456983404  0.0100239718218731  1.0000
  Cu  Cu4       1.0  0.24848326833335224  0.8097467064410534  0.5100255823947677  1.0000
  H   H1        1.0  0.23522721948967276  0.019032634891075897  0.211656143553185  1.0000
  H   H2        1.0  0.2647687062927345  0.9809617055484596  0.7116611341379196  1.0000
  H   H3        1.0  0.7647825384305522  0.5190379972965145  0.2883436961525803  1.0000
  H   H4        1.0  0.7352319857250152  0.48096115470227824  0.7883383402241932  1.0000
  H   H5        1.0  0.6610176587445906  0.775690058942267  0.169718381391192  1.0000
  H   H6        1.0  0.8389545055768153  0.2243135263814295  0.6697066489291856  1.0000
  H   H7        1.0  0.3389728783607141  0.27568747857962717  0.3302834609945577  1.0000
  H   H8        1.0  0.1610333416837904  0.7243070860537913  0.8302924328511738  1.0000
  H   H9        1.0  0.9122795397129979  0.008835346959173799  0.9132944508297455  1.0000
  H   H10       1.0  0.587712595020129  0.991157714761478  0.41328398223095775  1.0000
  H   H11       1.0  0.0877339300596063  0.5088245156905414  0.5867059431740103  1.0000
  H   H12       1.0  0.41229788836053427  0.49116380153562017  0.086714132813988  1.0000
  C   C1        1.0  0.982469044091367  0.8432711628109428  0.317392923285702  1.0000
  C   C2        1.0  0.5175325030717702  0.15672988765315668  0.8173773196872673  1.0000
  C   C3        1.0  0.017538179573442402  0.3432753244156501  0.18260936104780967  1.0000
  C   C4        1.0  0.4824589092983588  0.6567208443173912  0.6826180989275913  1.0000
  C   C5        1.0  0.956935717289319  0.8894538591407082  0.2038975929469018  1.0000
  C   C6        1.0  0.5430584059889796  0.1105480703843398  0.7038959735429131  1.0000
  C   C7        1.0  0.043074331934249706  0.3894479503372493  0.2961079196308987  1.0000
  C   C8        1.0  0.4569318687416272  0.6105436121037471  0.796104271055576  1.0000
  C   C9        1.0  0.10289336791023372  0.9791457125999657  0.16165281099647902  1.0000
  C   C10       1.0  0.39710071424150334  0.020858144611551697  0.6616519448597417  1.0000
  C   C11       1.0  0.8971047730363466  0.4791448566658048  0.3383551766462674  1.0000
  C   C12       1.0  0.6028947162111749  0.5208559600877507  0.8383458244310731  1.0000
  C   C13       1.0  0.7819050801324607  0.8438083828725024  0.1393650853620798  1.0000
  C   C14       1.0  0.7180768117536829  0.1562035109838789  0.6393694393700288  1.0000
  C   C15       1.0  0.218093504412316  0.3438041579191733  0.3606355787311699  1.0000
  C   C16       1.0  0.2819080486509051  0.6561923490985677  0.8606372640509292  1.0000
  C   C17       1.0  0.7681376703855066  0.8882092449941507  0.0349357864155948  1.0000
  C   C18       1.0  0.7318544753697652  0.11178985244124108  0.5349262013558871  1.0000
  C   C19       1.0  0.23186103573485184  0.3882016873925735  0.4650657203840609  1.0000
  C   C20       1.0  0.2681488307036802  0.6117908434098992  0.965072411161941  1.0000
  C   C21       1.0  0.9216956452544454  0.9752702714669038  0.9959251894482648  1.0000
  C   C22       1.0  0.5783103130153863  0.024743248765005908  0.4959253956809349  1.0000
  C   C23       1.0  0.07832913496205411  0.475260534979533  0.5040784110583445  1.0000
  C   C24       1.0  0.421690541765834  0.5247362117681861  0.004075955974983  1.0000
  N   N1        1.0  0.0839432129549209  0.021530033186650102  0.060059077556957205  1.0000
  N   N2        1.0  0.4160540900022129  0.9784778955931801  0.5600666261704106  1.0000
  N   N3        1.0  0.9160774179147709  0.5215232843056512  0.4399447463620305  1.0000
  N   N4        1.0  0.5839492272969197  0.4784753263089457  0.9399328912370564  1.0000
  N   N5        1.0  0.9251884998938211  0.8203752255156969  0.5700484403159436  1.0000
  N   N6        1.0  0.5748035742974907  0.1796231777354507  0.070044204744498  1.0000
  N   N7        1.0  0.0748052858539623  0.32037833976157504  0.9299530066748148  1.0000
  N   N8        1.0  0.4251962132308266  0.6796186122576131  0.42995768903119824  1.0000
  N   N9        1.0  0.9002600007184542  0.835377499816339  0.6660718736326956  1.0000
  N   N10       1.0  0.5997412106389534  0.16462410221603108  0.1660738082590854  1.0000
  N   N11       1.0  0.09973993812025132  0.3353756105308463  0.8339268977398576  1.0000
  N   N12       1.0  0.40027098640594266  0.664622803177366  0.3339355939913702  1.0000
  N   N13       1.0  0.8756265819886623  0.8528519571479689  0.7577162455942246  1.0000
  N   N14       1.0  0.624370696489713  0.14715362854555278  0.2577010230772103  1.0000
  N   N15       1.0  0.12437520114536232  0.35284610818036544  0.7422894722789621  1.0000
  N   N16       1.0  0.3756329056473008  0.6471529805661761  0.24228693499981802  1.0000
  O   O1        1.0  0.8324702487726158  0.766451288113238  0.3484310740991816  1.0000
  O   O2        1.0  0.6675181240652536  0.23355731859113146  0.8484262654534406  1.0000
  O   O3        1.0  0.1675457135418696  0.2664501543188464  0.1515669015795069  1.0000
  O   O4        1.0  0.33245948568742995  0.7335440491036633  0.6515750724902175  1.0000
  O   O5        1.0  0.15047990489561164  0.8837680407703699  0.3711803945348464  1.0000
  O   O6        1.0  0.3495189235260484  0.1162381359948554  0.8711846801853226  1.0000
  O   O7        1.0  0.8495255368930331  0.38377898761099527  0.1288131349262187  1.0000
  O   O8        1.0  0.6504624552389445  0.6162260319790036  0.6288106333504899  1.0000
  F   F1        1.0  0.6002124487891933  0.8479418373610131  0.9696200939098248  1.0000
  F   F2        1.0  0.8997792172798642  0.15206241912670038  0.4696191123448941  1.0000
  F   F3        1.0  0.3997776878979381  0.34793063770133165  0.5303744328824749  1.0000
  F   F4        1.0  0.10022084442468332  0.6520613925792206  0.030379231141289202  1.0000
