data_image0
_chemical_formula_structural       Al2H11C22S2ClO12
_chemical_formula_sum              "Al2 H11 C22 S2 Cl1 O12"
_cell_length_a       6.630146139985128
_cell_length_b       12.786327691446928
_cell_length_c       15.46566607503269
_cell_angle_alpha    79.19333650927962
_cell_angle_beta     76.13192067962761
_cell_angle_gamma    74.1246487949328

_space_group_name_H-M_alt    "P 1"
_space_group_IT_number       1

loop_
  _space_group_symop_operation_xyz
  'x, y, z'

loop_
  _atom_site_type_symbol
  _atom_site_label
  _atom_site_symmetry_multiplicity
  _atom_site_fract_x
  _atom_site_fract_y
  _atom_site_fract_z
  _atom_site_occupancy
  Al  Al1       1.0  0.5006965359578783  0.49453525554164895  0.5009157656016114  1.0000
  Al  Al2       1.0  0.9988877080945638  0.4977084231127904  0.499828325965197  1.0000
  H   H1        1.0  0.25479344792233144  0.3856454588505542  0.5909785651408725  1.0000
  H   H2        1.0  0.7084773311818111  0.6266780428669775  0.43831195940645534  1.0000
  H   H3        1.0  0.9359208730521047  0.45585415099520077  0.7669817459369598  1.0000
  H   H4        1.0  0.06630323795884145  0.5465047696689211  0.2346534108053504  1.0000
  H   H5        1.0  0.7398378236424107  0.4331163494484044  0.2285013818401183  1.0000
  H   H6        1.0  0.8050751367043317  0.44015550250767177  0.0649093909328045  1.0000
  H   H7        1.0  0.26232508413724537  0.5654911498791007  0.7727738859294888  1.0000
  H   H8        1.0  0.19738805453169309  0.5650913345561221  0.935759076734854  1.0000
  H   H9        1.0  0.6139622383971356  0.1389535447078387  0.5592967892324197  1.0000
  H   H10       1.0  0.04273944564109653  0.4388556201486651  0.889777062674412  1.0000
  H   H11       1.0  0.9600889568267732  0.5727422926547375  0.11064192323516417  1.0000
  C   C1        1.0  0.8592099066370479  0.3010612464645703  0.5030797848688096  1.0000
  C   C2        1.0  0.6504657857716012  0.501264106469115  0.6606880773267605  1.0000
  C   C3        1.0  0.1436006701530488  0.692625016573558  0.49521423575096424  1.0000
  C   C4        1.0  0.3514901904645454  0.4918856493502801  0.34147933928529284  1.0000
  C   C5        1.0  0.6042753409538194  0.506947078039488  0.7589670937567943  1.0000
  C   C6        1.0  0.39789269836081326  0.4915748795122568  0.2425288070761624  1.0000
  C   C7        1.0  0.7722194664730605  0.47854442087967186  0.8049984361073115  1.0000
  C   C8        1.0  0.7372772443290286  0.47740352176772666  0.8978006435557901  1.0000
  C   C9        1.0  0.22986448927966313  0.5241569156319343  0.1963464117043046  1.0000
  C   C10       1.0  0.26519632416732714  0.530011262607445  0.10307670085024512  1.0000
  C   C11       1.0  0.6066328618065027  0.4614140173556648  0.19332954947994813  1.0000
  C   C12       1.0  0.6419071836185423  0.46585459538501783  0.10065444372413884  1.0000
  C   C13       1.0  0.3956349191923538  0.538879474634811  0.8079324243710886  1.0000
  C   C14       1.0  0.36048371765348  0.5385569729001742  0.900206708441722  1.0000
  C   C15       1.0  0.525649270011719  0.5055125323115276  0.9507132507131998  1.0000
  C   C16       1.0  0.4767093291107614  0.5015297337615577  0.05014390008638261  1.0000
  C   C17       1.0  0.22421441775299658  0.8846168577617988  0.4633470627387907  1.0000
  C   C18       1.0  0.7832422228571899  0.11120363364144478  0.5310238715113869  1.0000
  C   C19       1.0  0.09258758827046179  0.8117608851986943  0.49534942986063873  1.0000
  C   C20       1.0  0.9174912579600444  0.1820005409834167  0.500862635885234  1.0000
  C   C21       1.0  0.8961508120214248  0.00233502720277559  0.5190645910752636  1.0000
  C   C22       1.0  0.11324162366180002  0.993274350938584  0.4779035334450867  1.0000
  S   S1        1.0  0.8321903719963257  0.8769578732252084  0.5411908694789744  1.0000
  S   S2        1.0  0.1804387573868098  0.11771190126577838  0.45675933571266103  1.0000
  Cl  Cl1       1.0  0.48507691004421344  0.8539471147493385  0.4078064898077756  1.0000
  O   O1        1.0  0.6604214790070344  0.3465614499830494  0.5237831570301382  1.0000
  O   O2        1.0  0.8476347212427771  0.47743624185147826  0.6220242148119723  1.0000
  O   O3        1.0  0.9854071881355322  0.6479806612124221  0.5124105092441908  1.0000
  O   O4        1.0  0.5095449401827706  0.4701263596330846  0.3806499071711826  1.0000
  O   O5        1.0  0.34057900021401394  0.6432436058197479  0.47805058477888446  1.0000
  O   O6        1.0  0.15447321718073673  0.5170470195857745  0.37974740079769737  1.0000
  O   O7        1.0  0.012081073242981721  0.3492489673710394  0.48491304201346  1.0000
  O   O8        1.0  0.49182508222580884  0.5179192603114727  0.6225623532200472  1.0000
  O   O9        1.0  0.2506202062518881  0.4468570123566875  0.5435461098094123  1.0000
  O   O10       1.0  0.7449875962359298  0.5483711462701135  0.4579711226129178  1.0000
  O   O11       1.0  0.9134748756142981  0.44825040100707975  0.9366761394514356  1.0000
  O   O12       1.0  0.08939021069443949  0.5641114630492223  0.06375583048330923  1.0000
