data_image0
_chemical_formula_structural       Ba2H28C52N16O8F24
_chemical_formula_sum              "Ba2 H28 C52 N16 O8 F24"
_cell_length_a       11.955490550165074
_cell_length_b       12.03307101199485
_cell_length_c       12.1613477585622
_cell_angle_alpha    66.49312254300818
_cell_angle_beta     86.33167372391624
_cell_angle_gamma    77.7584216182003

_space_group_name_H-M_alt    "P 1"
_space_group_IT_number       1

loop_
  _space_group_symop_operation_xyz
  'x, y, z'

loop_
  _atom_site_type_symbol
  _atom_site_label
  _atom_site_symmetry_multiplicity
  _atom_site_fract_x
  _atom_site_fract_y
  _atom_site_fract_z
  _atom_site_occupancy
  Ba  Ba1       1.0  0.310250787962012  0.06156203974787639  0.24262061891953823  1.0000
  Ba  Ba2       1.0  0.689749770274403  0.9384382940800434  0.7573805827871349  1.0000
  H   H1        1.0  0.7629237066715501  0.9824966421329862  0.33787445936270194  1.0000
  H   H2        1.0  0.23707571922814447  0.017500908249282097  0.6621262572527015  1.0000
  H   H3        1.0  0.7379986093437196  0.1815293246142105  0.4764297243226493  1.0000
  H   H4        1.0  0.2620050661042085  0.818463627243652  0.523570888525974  1.0000
  H   H5        1.0  0.44041832749675797  0.3227053841550998  0.23997051243730985  1.0000
  H   H6        1.0  0.5595835430320548  0.67729680746168  0.7600315258747725  1.0000
  H   H7        1.0  0.6229389654466713  0.35853705576806755  0.3048819925832902  1.0000
  H   H8        1.0  0.377064999979943  0.6414586566874406  0.6951240995788409  1.0000
  H   H9        1.0  0.12379075945062104  0.4638169363394056  0.8790857516993071  1.0000
  H   H10       1.0  0.8762079448389174  0.536184311067025  0.12091520572782595  1.0000
  H   H11       1.0  0.5402830418209916  0.5978616510804713  0.32585576092263574  1.0000
  H   H12       1.0  0.45971548519410277  0.4021405303871646  0.674142374687875  1.0000
  H   H13       1.0  0.19397322980849896  0.9372644856484911  0.06096786512923551  1.0000
  H   H14       1.0  0.8060258361798559  0.0627349160473401  0.9390321484578763  1.0000
  H   H15       1.0  0.24677102713351928  0.7883941976144159  0.9568859961123691  1.0000
  H   H16       1.0  0.753229055806109  0.21160428446376758  0.0431143153715894  1.0000
  H   H17       1.0  0.4502350758528877  0.7582530981830189  0.8853199880952543  1.0000
  H   H18       1.0  0.5497641700911302  0.2417453778560343  0.11468037700600317  1.0000
  H   H19       1.0  0.8935898479529597  0.43528776819806564  0.4164099392932741  1.0000
  H   H20       1.0  0.10640903718599043  0.5647125563530581  0.5835905462138483  1.0000
  H   H21       1.0  0.09563360361314467  0.47467515131361177  0.38595493054889823  1.0000
  H   H22       1.0  0.9043664784327415  0.5253233279630861  0.6140462043692168  1.0000
  H   H23       1.0  0.916145057469933  0.8162982553170366  0.30784442056430084  1.0000
  H   H24       1.0  0.08385586246529898  0.18370023280027678  0.6921558373023514  1.0000
  H   H25       1.0  0.12178877942062624  0.840737982551488  0.3055389546604204  1.0000
  H   H26       1.0  0.8782114197981982  0.1592642053914588  0.6944607205837982  1.0000
  H   H27       1.0  0.24430372638780534  0.321397976612019  0.33291545636114245  1.0000
  H   H28       1.0  0.7556951632198476  0.6786023619464955  0.6670809119751907  1.0000
  C   C1        1.0  0.8535961432551671  0.986659807254419  0.3346601093071798  1.0000
  C   C2        1.0  0.14640226748073099  0.013338668348453098  0.6653386625430712  1.0000
  C   C3        1.0  0.521290260789435  0.05854881020373169  0.46604998408430015  1.0000
  C   C4        1.0  0.4787114970351424  0.9414496867541898  0.5339493967308897  1.0000
  C   C5        1.0  0.6568027069421305  0.1745918264742485  0.44625753243986566  1.0000
  C   C6        1.0  0.34319995066078957  0.8254020421997837  0.5537436059460744  1.0000
  C   C7        1.0  0.003756778571023687  0.29530877034113706  0.9127314479398974  1.0000
  C   C8        1.0  0.996244498594322  0.7046878580581861  0.08727198325752275  1.0000
  C   C9        1.0  0.4937461120346142  0.25251238193836667  0.31583548243073517  1.0000
  C   C10       1.0  0.5062552849848884  0.7474879635316325  0.6841640187903195  1.0000
  C   C11       1.0  0.5937675313690035  0.2721748219951365  0.3510131253030053  1.0000
  C   C12       1.0  0.40623655480550275  0.7278246103325258  0.6489882134486037  1.0000
  C   C13       1.0  0.2533731384946094  0.3865749450011505  0.017937842334163207  1.0000
  C   C14       1.0  0.7466265845336861  0.6134253883905814  0.9820617661214964  1.0000
  C   C15       1.0  0.1085070759009668  0.2779232110949721  0.9919140802072872  1.0000
  C   C16       1.0  0.8914926444461099  0.7220771138923326  0.008087998550841604  1.0000
  C   C17       1.0  0.1587877903152943  0.38248761244592777  0.9580320071777563  1.0000
  C   C18       1.0  0.8412136022355056  0.6175127190166876  0.04197161121408044  1.0000
  C   C19       1.0  0.37468941162761377  0.7134854810818184  0.3163379770917132  1.0000
  C   C20       1.0  0.6253106076355407  0.28651763251790646  0.6836613466383596  1.0000
  C   C21       1.0  0.458604882865238  0.9640416515510207  0.9938212791339184  1.0000
  C   C22       1.0  0.5413940031674542  0.03595867580158091  0.006178382939040698  1.0000
  C   C23       1.0  0.49459280349084617  0.6895402838757647  0.31602969496368155  1.0000
  C   C24       1.0  0.5054057244179829  0.3104619003933564  0.683967617212673  1.0000
  C   C25       1.0  0.5589297558425486  0.7786635228348755  0.3057009374812765  1.0000
  C   C26       1.0  0.44107080418135075  0.2213368165959935  0.6942986173570844  1.0000
  C   C27       1.0  0.020219383215774683  0.19864726086511553  0.3563527475449461  1.0000
  C   C28       1.0  0.9797795037106525  0.8013530692889644  0.6436460910938564  1.0000
  C   C29       1.0  0.9907913051925447  0.08931066932213132  0.34360280384369446  1.0000
  C   C30       1.0  0.009207221822549565  0.9106915121455048  0.6563953317668163  1.0000
  C   C31       1.0  0.2790303223119039  0.9204901939779758  0.02501977004391163  1.0000
  C   C32       1.0  0.7209699405833945  0.0795073624434295  0.9749808929541925  1.0000
  C   C33       1.0  0.30763758079260833  0.8390615780461416  0.967611622615372  1.0000
  C   C34       1.0  0.6923623204038736  0.16093782408586318  0.03238998422275328  1.0000
  C   C35       1.0  0.4192435620438744  0.8237966582276002  0.9270851090777013  1.0000
  C   C36       1.0  0.580756521789496  0.17620182665206124  0.07291437897209363  1.0000
  C   C37       1.0  0.3157620275395203  0.6041866166099154  0.337397302002202  1.0000
  C   C38       1.0  0.6842369747723609  0.39581741660745706  0.6626017238310169  1.0000
  C   C39       1.0  0.9630094099867957  0.37281158162388545  0.39455175860644687  1.0000
  C   C40       1.0  0.036989476045889064  0.6271887457287234  0.6054479034665122  1.0000
  C   C41       1.0  0.07389660972982875  0.39486942219263454  0.3779869116165102  1.0000
  C   C42       1.0  0.9261029333428042  0.6051318368558825  0.6220123453249966  1.0000
  C   C43       1.0  0.9372747199098724  0.8947708735322453  0.318671664702208  1.0000
  C   C44       1.0  0.06272482226901839  0.10523038271479379  0.6813284156734624  1.0000
  C   C45       1.0  0.050198532881353196  0.9082964319698802  0.3169097336270355  1.0000
  C   C46       1.0  0.9498001731956692  0.09170482103950657  0.6830895769317777  1.0000
  C   C47       1.0  0.6907763273074535  0.7359736186687725  0.308939696477637  1.0000
  C   C48       1.0  0.30922321576517214  0.26402764037973725  0.69105956046387  1.0000
  C   C49       1.0  0.1556857953015793  0.3103305868257493  0.3488730943811262  1.0000
  C   C50       1.0  0.8443130934123314  0.6896697489312871  0.6511240973893634  1.0000
  C   C51       1.0  0.3075332378872631  0.5020157556086674  0.9579477012301038  1.0000
  C   C52       1.0  0.6924673221366358  0.4979845838222019  0.0420518536082497  1.0000
  N   N1        1.0  0.4574437897979279  0.1454557406943309  0.3717728976225273  1.0000
  N   N2        1.0  0.5425569492878992  0.8545436702782822  0.6282278321641356  1.0000
  N   N3        1.0  0.6202302832043002  0.0683152729653997  0.5044525736023431  1.0000
  N   N4        1.0  0.379769505287946  0.9316804345077473  0.4955463757388896  1.0000
  N   N5        1.0  0.3546946292966878  0.9811000350811837  0.040557794882580905  1.0000
  N   N6        1.0  0.645304436691667  0.0188993666146473  0.959442218704531  1.0000
  N   N7        1.0  0.0780723925044953  0.0050717136600298  0.32929648555696633  1.0000
  N   N8        1.0  0.9219252984087374  0.9949304645699544  0.6707008802366942  1.0000
  N   N9        1.0  0.129951362788951  0.21190629799821187  0.33824304388003396  1.0000
  N   N10       1.0  0.8700473450755553  0.7880949606141241  0.6617546198104661  1.0000
  N   N11       1.0  0.4944263156514878  0.8875468507098176  0.9371789039552139  1.0000
  N   N12       1.0  0.5055729311862719  0.1124516281307137  0.0628206377118872  1.0000
  N   N13       1.0  0.9351968313513908  0.27518294444433167  0.3841394391088002  1.0000
  N   N14       1.0  0.06480187651310836  0.7248183141680045  0.6158582245817  1.0000
  N   N15       1.0  0.8795887514991206  0.08403105208272883  0.3470462340533089  1.0000
  N   N16       1.0  0.12040828148042944  0.9159701916498694  0.6529523603059529  1.0000
  O   O1        1.0  0.3057120695433396  0.812848806490429  0.30342419564024664  1.0000
  O   O2        1.0  0.694288964883604  0.1871533818886988  0.6965770728549856  1.0000
  O   O3        1.0  0.3052700777244296  0.30699895523497395  0.11262866278949699  1.0000
  O   O4        1.0  0.6947313192950801  0.6930013902350254  0.8873708384315575  1.0000
  O   O5        1.0  0.1359118861112022  0.1738565000215715  0.0758610977198941  1.0000
  O   O6        1.0  0.8640915412358935  0.8261419950072268  0.9241422930314797  1.0000
  O   O7        1.0  0.5256215437086523  0.8884708064234698  0.2954278224140766  1.0000
  O   O8        1.0  0.4743788354658419  0.1115304558626988  0.7045722043442879  1.0000
  F   F1        1.0  0.7374831802593105  0.8173858225911845  0.21338353058300172  1.0000
  F   F2        1.0  0.26251570845460037  0.18261451316585206  0.7866136611874879  1.0000
  F   F3        1.0  0.029631640816290897  0.33088154981199835  0.7934404800336167  1.0000
  F   F4        1.0  0.970371605681393  0.6691178680720995  0.20656338263776053  1.0000
  F   F5        1.0  0.9153166805417926  0.3847177731724757  0.920591759756938  1.0000
  F   F6        1.0  0.08468214841947494  0.6152742027864305  0.07941364348043586  1.0000
  F   F7        1.0  0.3415116642451677  0.5389143303368868  0.040471543920119805  1.0000
  F   F8        1.0  0.6584880578893857  0.46108600025337404  0.9595288879697034  1.0000
  F   F9        1.0  0.9636467394546812  0.18936866275974754  0.945589986400627  1.0000
  F   F10       1.0  0.03635908706873176  0.8106261585290682  0.054409762567786395  1.0000
  F   F11       1.0  0.7369836807464832  0.7334738810519355  0.4105504807960542  1.0000
  F   F12       1.0  0.2630159794990803  0.26653108666282327  0.5894473164715632  1.0000
  F   F13       1.0  0.7284754934322136  0.6214678886893806  0.3073849959318338  1.0000
  F   F14       1.0  0.2715235689811805  0.3785315018005378  0.6926183113919036  1.0000
  F   F15       1.0  0.2383654161390111  0.6025402314591517  0.8755602255536273  1.0000
  F   F16       1.0  0.7616343068892845  0.3974601019325803  0.12443938290203252  1.0000
  F   F17       1.0  0.2597584989914878  0.5746779561963676  0.44429753933913224  1.0000
  F   F18       1.0  0.7402398480679439  0.42532515092804596  0.5557002447572258  1.0000
  F   F19       1.0  0.40427122161133866  0.47358205837177536  0.898606896429797  1.0000
  F   F20       1.0  0.5957299945587591  0.5264192099535238  0.10139307671126822  1.0000
  F   F21       1.0  0.23502315851216346  0.6351841378889276  0.25013295071094177  1.0000
  F   F22       1.0  0.7649758446934597  0.3648198981299231  0.7498652516881208  1.0000
  F   F23       1.0  0.38775354960704783  0.4979673201828233  0.3418185646351973  1.0000
  F   F24       1.0  0.6122461106385086  0.5020376475319352  0.6581792326324205  1.0000
