data_image0
_chemical_formula_structural       Cs2Mn2H6C6O12
_chemical_formula_sum              "Cs2 Mn2 H6 C6 O12"
_cell_length_a       7.608361655967025
_cell_length_b       7.608406483744148
_cell_length_c       8.486710907009217
_cell_angle_alpha    90.00000447335401
_cell_angle_beta     90.00014471460311
_cell_angle_gamma    119.99979726983513

_space_group_name_H-M_alt    "P 1"
_space_group_IT_number       1

loop_
  _space_group_symop_operation_xyz
  'x, y, z'

loop_
  _atom_site_type_symbol
  _atom_site_label
  _atom_site_symmetry_multiplicity
  _atom_site_fract_x
  _atom_site_fract_y
  _atom_site_fract_z
  _atom_site_occupancy
  Cs  Cs1       1.0  3.4731814437518215e-06  0.9999956436355079  0.2500014822329106  1.0000
  Cs  Cs2       1.0  6.642491498999995e-07  1.5020360209e-06  0.7500008035806758  1.0000
  Mn  Mn1       1.0  0.6666662663436681  0.3333275633170486  0.24999868161461344  1.0000
  Mn  Mn2       1.0  0.3333360689698566  0.6666684200983255  0.7499976718633052  1.0000
  H   H1        1.0  0.587062577087167  0.5870730237747354  0.9999946905398289  1.0000
  H   H2        1.0  3.410026251066378e-07  0.5870745150275312  0.5000052701392335  1.0000
  H   H3        1.0  0.4129218158571747  3.0353688416500725e-06  0.9999980062179502  1.0000
  H   H4        1.0  0.4129287688539094  0.41293276440274707  0.49999866370748697  1.0000
  H   H5        1.0  1.1140423858048159e-05  0.4129243571888992  2.3715268043e-06  1.0000
  H   H6        1.0  0.5870782840118735  0.9999887416897835  0.5000012396027671  1.0000
  C   C1        1.0  0.44142731731905366  0.441440760167808  2.05493767993e-05  1.0000
  C   C2        1.0  2.3262946967962723e-05  0.44145299202292426  0.499975807094991  1.0000
  C   C3        1.0  0.5585429556735307  0.9999724619136147  2.4237677884300005e-05  1.0000
  C   C4        1.0  0.5585577814876288  0.5585657580655409  0.4999788033003583  1.0000
  C   C5        1.0  2.4722303898305122e-05  0.5585672072073818  2.71213621801e-05  1.0000
  C   C6        1.0  0.4414309023234398  0.9999727179709981  0.499972794415065  1.0000
  O   O1        1.0  0.4184706747202186  0.30844717763771723  0.1011598184159439  1.0000
  O   O2        1.0  0.10999581711364922  0.41847738092802433  0.6011765035787279  1.0000
  O   O3        1.0  0.6915433697645882  0.11002363166785063  0.10115305201675541  1.0000
  O   O4        1.0  0.5815246331420738  0.6915208008506115  0.6011688016185417  1.0000
  O   O5        1.0  0.8899830939300489  0.581522766146087  0.10116154294058083  1.0000
  O   O6        1.0  0.3084761914386147  0.8899989534142987  0.6011696764833374  1.0000
  O   O7        1.0  0.11000139309393833  0.6915216294561262  0.8988336420493896  1.0000
  O   O8        1.0  0.5815264456704412  0.8900043699604795  0.8988212241453725  1.0000
  O   O9        1.0  0.3084778278169154  0.4184778334851629  0.898825609790407  1.0000
  O   O10       1.0  0.6915448964195007  0.5815170215996731  0.3988349422067402  1.0000
  O   O11       1.0  0.8899742581180733  0.30845195311243145  0.3988469412108558  1.0000
  O   O12       1.0  0.41847462438160227  0.11001739637141834  0.3988416844536857  1.0000
