data_image0
_chemical_formula_structural       Co4H28C20N20O24
_chemical_formula_sum              "Co4 H28 C20 N20 O24"
_cell_length_a       8.178325885725771
_cell_length_b       9.963486273068659
_cell_length_c       10.971025704305347
_cell_angle_alpha    89.9935505145963
_cell_angle_beta     106.01204399264407
_cell_angle_gamma    89.99368569169238

_space_group_name_H-M_alt    "P 1"
_space_group_IT_number       1

loop_
  _space_group_symop_operation_xyz
  'x, y, z'

loop_
  _atom_site_type_symbol
  _atom_site_label
  _atom_site_symmetry_multiplicity
  _atom_site_fract_x
  _atom_site_fract_y
  _atom_site_fract_z
  _atom_site_occupancy
  Co  Co1       1.0  0.23512687587742676  0.13488221344714899  0.25601404185201204  1.0000
  Co  Co2       1.0  0.7648613196779407  0.6349170520018037  0.24398290587292587  1.0000
  Co  Co3       1.0  0.7648797652377368  0.8651840572615298  0.7439238148280793  1.0000
  Co  Co4       1.0  0.23517741533228073  0.36517931761041217  0.7561102317619941  1.0000
  H   H1        1.0  0.22197936736282026  0.1306719794038571  0.5069064034411567  1.0000
  H   H2        1.0  0.7781028873456249  0.6306617907735514  0.9931221377011427  1.0000
  H   H3        1.0  0.7781314399716449  0.869337074978553  0.4930760146007316  1.0000
  H   H4        1.0  0.2219044803956152  0.36927399823498064  0.006900647170937223  1.0000
  H   H5        1.0  0.26252187858005266  0.2778474269342582  0.47654328275591246  1.0000
  H   H6        1.0  0.7375274526833238  0.7778477509373616  0.02343091512084789  1.0000
  H   H7        1.0  0.7375782345127034  0.7221816965173319  0.5235152883169718  1.0000
  H   H8        1.0  0.2623443734856892  0.2220709889637078  0.9764769495403769  1.0000
  H   H9        1.0  0.4595480490134633  0.3375539906278462  0.2268769759137683  1.0000
  H   H10       1.0  0.5403854576202604  0.8375572241784681  0.2731170643164589  1.0000
  H   H11       1.0  0.5402947124212073  0.6624791706529436  0.7729938172795698  1.0000
  H   H12       1.0  0.4596291953435666  0.1625010083547522  0.7269582810495052  1.0000
  H   H13       1.0  0.3955530737457877  0.9306231079613101  0.3936054651680081  1.0000
  H   H14       1.0  0.6044876965476361  0.4306628959255291  0.10639604108207833  1.0000
  H   H15       1.0  0.6042592787839992  0.0693337776272571  0.606241657866299  1.0000
  H   H16       1.0  0.3956183416755791  0.569275893185967  0.8937312240964487  1.0000
  H   H17       1.0  0.08892707321382429  0.6814364708361894  0.15799457221984173  1.0000
  H   H18       1.0  0.911076497581618  0.18143061900214968  0.3420126978570508  1.0000
  H   H19       1.0  0.9111074264953556  0.3185796137833066  0.8419691625478265  1.0000
  H   H20       1.0  0.08892543841003689  0.8185864640115811  0.658059991738341  1.0000
  H   H21       1.0  0.5134140961089955  0.18808651355688258  0.19932180829449211  1.0000
  H   H22       1.0  0.48655283284669787  0.6880781349118266  0.3006434006689389  1.0000
  H   H23       1.0  0.4864203074647903  0.8119356130215181  0.8004642919794307  1.0000
  H   H24       1.0  0.5135554036786303  0.311968043047237  0.6995353625961727  1.0000
  H   H25       1.0  0.531986948434742  0.0376785452130974  0.3769908904635955  1.0000
  H   H26       1.0  0.4680348508700192  0.5377198881970031  0.12300292970348181  1.0000
  H   H27       1.0  0.46789754927225147  0.9622542448108501  0.6229269138682199  1.0000
  H   H28       1.0  0.5320089489188929  0.4621797624345802  0.8770976570117739  1.0000
  C   C1        1.0  0.23589615143952605  0.9611647381134603  0.0369420405321108  1.0000
  C   C2        1.0  0.7640688377707434  0.4611380647151222  0.4630560148588145  1.0000
  C   C3        1.0  0.764109275885687  0.0388553645934238  0.9629873612983103  1.0000
  C   C4        1.0  0.23592264160349427  0.5388589429606229  0.5370573309009217  1.0000
  C   C5        1.0  0.1950148041101656  0.8336802219403553  0.08326574842499922  1.0000
  C   C6        1.0  0.8049640713967107  0.3336786847494508  0.416719938811923  1.0000
  C   C7        1.0  0.8050820334556335  0.1663378664584627  0.9167101034459932  1.0000
  C   C8        1.0  0.19492602963827468  0.6663343910894284  0.5833129702759194  1.0000
  C   C9        1.0  0.28267652702768226  0.7595202349598794  0.0065504766143505005  1.0000
  C   C10       1.0  0.7172998118874502  0.2595030431185918  0.49342582924972334  1.0000
  C   C11       1.0  0.717469706543305  0.24049082289977264  0.9934685135248884  1.0000
  C   C12       1.0  0.2825234478189812  0.7404739100640684  0.5065056075528318  1.0000
  C   C13       1.0  0.32133153766677935  0.8898331726182533  0.9509285173365711  1.0000
  C   C14       1.0  0.6786448431286373  0.38978204540399725  0.5490651686777355  1.0000
  C   C15       1.0  0.6787475444291146  0.1101879283090952  0.049035419943230435  1.0000
  C   C16       1.0  0.3212349635904416  0.6101427073484089  0.4509847349218461  1.0000
  C   C17       1.0  0.030027007321741895  0.8598659032302863  0.23461052317365733  1.0000
  C   C18       1.0  0.9699786687603336  0.3598712539198985  0.2653926814497396  1.0000
  C   C19       1.0  0.9700699967366546  0.1401672417076867  0.7653398406735121  1.0000
  C   C20       1.0  0.02997743656008819  0.6401428204130539  0.7346758986301509  1.0000
  N   N1        1.0  0.0550188443638788  0.9904125425600797  0.2657366480337799  1.0000
  N   N2        1.0  0.9449915279293603  0.49042599369840895  0.2342706453456032  1.0000
  N   N3        1.0  0.9451517382964169  0.009602530239952502  0.7342600858398783  1.0000
  N   N4        1.0  0.0549103839904035  0.5095619932181847  0.7657100433972772  1.0000
  N   N5        1.0  0.9536808648166896  0.015046172934546598  0.34211315023004835  1.0000
  N   N6        1.0  0.046334952141165786  0.5150558660163824  0.1578890189079729  1.0000
  N   N7        1.0  0.04646910281739739  0.9850100488909989  0.657918467558666  1.0000
  N   N8        1.0  0.9536128883681555  0.4849140535166894  0.8420812168581409  1.0000
  N   N9        1.0  0.8730155867074102  0.9067839277284053  0.357176756851203  1.0000
  N   N10       1.0  0.1269902065146127  0.4067798259860211  0.1428216929829844  1.0000
  N   N11       1.0  0.12711917917106058  0.0933014018743989  0.6428416557434248  1.0000
  N   N12       1.0  0.8729700657658483  0.5932031377656558  0.8571948924705808  1.0000
  N   N13       1.0  0.9167064693416123  0.8057532170291706  0.2898365292690315  1.0000
  N   N14       1.0  0.08329666497147059  0.30574672544472753  0.21016527691656248  1.0000
  N   N15       1.0  0.08338164483807017  0.19431505685879097  0.7101092402847301  1.0000
  N   N16       1.0  0.916666829431257  0.694241250867222  0.789942220401386  1.0000
  N   N17       1.0  0.10911633091519948  0.7863795148855813  0.161869733708798  1.0000
  N   N18       1.0  0.8908840830720519  0.28638197905588203  0.33813165415188  1.0000
  N   N19       1.0  0.8909387029514376  0.21362653358833947  0.8380709481824269  1.0000
  N   N20       1.0  0.1090809626177887  0.7136341024273634  0.6619333253650552  1.0000
  O   O1        1.0  0.2121535547092036  0.08301690478375431  0.06044971972288949  1.0000
  O   O2        1.0  0.7877870204384293  0.5830064371664178  0.4395571453582364  1.0000
  O   O3        1.0  0.7876920519387409  0.9170032115072573  0.9393760936922603  1.0000
  O   O4        1.0  0.2124034704787405  0.416967468058594  0.5607053525228879  1.0000
  O   O5        1.0  0.270503643471308  0.1838114350925864  0.44850769129897833  1.0000
  O   O6        1.0  0.7295276420476781  0.683807003757316  0.051478695620680526  1.0000
  O   O7        1.0  0.7295193131285628  0.816251821593511  0.5514673010673548  1.0000
  O   O8        1.0  0.27050286040947913  0.31615688877946013  0.948512462933607  1.0000
  O   O9        1.0  0.31216077602230285  0.63729669112751  0.9961748495755671  1.0000
  O   O10       1.0  0.6878251032336564  0.13726739604778973  0.5037918574465508  1.0000
  O   O11       1.0  0.688042358618631  0.36272339321194375  0.0039079881245812145  1.0000
  O   O12       1.0  0.31189573730268444  0.8626894955675155  0.49602428991581604  1.0000
  O   O13       1.0  0.44803952302315503  0.2420515209444077  0.2474919647997353  1.0000
  O   O14       1.0  0.5518753232871131  0.7420602866954553  0.2524559487745676  1.0000
  O   O15       1.0  0.551746531016235  0.7579535460176177  0.7522858542204318  1.0000
  O   O16       1.0  0.44825054409717063  0.2579688262526005  0.7477538452942056  1.0000
  O   O17       1.0  0.39047819517354293  0.9244445146398234  0.8687748022246566  1.0000
  O   O18       1.0  0.6095374254062519  0.4243944627067435  0.6312344969177275  1.0000
  O   O19       1.0  0.6095120264675059  0.07558261516345512  0.13114230621728504  1.0000
  O   O20       1.0  0.39045798520316305  0.5755272708984621  0.3688632672756569  1.0000
  O   O21       1.0  0.435677463150803  0.9824445645276679  0.32810527217104385  1.0000
  O   O22       1.0  0.5643637483845935  0.4824698256845039  0.1718956052608007  1.0000
  O   O23       1.0  0.5642379181456789  0.017490234362775  0.6717652081618866  1.0000
  O   O24       1.0  0.4356825108662576  0.5174378533342008  0.8282182561038596  1.0000
