data_image0
_chemical_formula_structural       Na4H28C24O28
_chemical_formula_sum              "Na4 H28 C24 O28"
_cell_length_a       7.450705703480248
_cell_length_b       9.659908222640086
_cell_length_c       11.672368816000771
_cell_angle_alpha    90.00003972128572
_cell_angle_beta     90.0000013308962
_cell_angle_gamma    105.5663134572594

_space_group_name_H-M_alt    "P 1"
_space_group_IT_number       1

loop_
  _space_group_symop_operation_xyz
  'x, y, z'

loop_
  _atom_site_type_symbol
  _atom_site_label
  _atom_site_symmetry_multiplicity
  _atom_site_fract_x
  _atom_site_fract_y
  _atom_site_fract_z
  _atom_site_occupancy
  Na  Na1       1.0  0.1043030673401475  0.09179413760983833  0.1225115775886465  1.0000
  Na  Na2       1.0  0.8956985007510312  0.40820428172084183  0.6225112977658895  1.0000
  Na  Na3       1.0  0.8956964209822618  0.9082066013906386  0.8774879625220535  1.0000
  Na  Na4       1.0  0.10430256204182341  0.591793238742632  0.377488242343901  1.0000
  H   H1        1.0  0.8084601400312508  0.3661582776883635  0.1930843126504627  1.0000
  H   H2        1.0  0.19154085043236788  0.13384235250636323  0.6930847195791826  1.0000
  H   H3        1.0  0.19154069136771315  0.6338424639733945  0.8069152274602445  1.0000
  H   H4        1.0  0.8084593790122555  0.8661605357349988  0.3069173907045197  1.0000
  H   H5        1.0  0.7341039056163368  0.1767718946837959  0.190127702793454  1.0000
  H   H6        1.0  0.265897083828122  0.3232287328177749  0.690128219502121  1.0000
  H   H7        1.0  0.26589692578232166  0.8232288469771804  0.8098701238689968  1.0000
  H   H8        1.0  0.7341041181320165  0.6767730834646244  0.3098730340571549  1.0000
  H   H9        1.0  0.6490353129018586  0.044728115668675614  0.3704912247936818  1.0000
  H   H10       1.0  0.35096573871593517  0.45527267612836664  0.8704935321004825  1.0000
  H   H11       1.0  0.3509651479357673  0.9552715513720573  0.6295057451443284  1.0000
  H   H12       1.0  0.6490337496070638  0.5447280628736665  0.1295094349067298  1.0000
  H   H13       1.0  0.5746866190209658  0.16195116337012652  0.4630817178395716  1.0000
  H   H14       1.0  0.42531200975430045  0.33804648624710865  0.9630831026785529  1.0000
  H   H15       1.0  0.4253127301340101  0.8380452798110342  0.5369152520975078  1.0000
  H   H16       1.0  0.5746861354920085  0.6619542500932527  0.0369190076045101  1.0000
  H   H17       1.0  0.6979010491658998  0.4159630435067714  0.4084262191812443  1.0000
  H   H18       1.0  0.30209793132965507  0.08403563094331903  0.9084257429008531  1.0000
  H   H19       1.0  0.3020976980345935  0.5840355462536027  0.5915724642047023  1.0000
  H   H20       1.0  0.6979029000696002  0.9159651107192207  0.0915755106581173  1.0000
  H   H21       1.0  0.34071675507331634  0.35557620761031944  0.3277707622802737  1.0000
  H   H22       1.0  0.659284281817861  0.1444245452710433  0.8277703271183015  1.0000
  H   H23       1.0  0.6592837057647573  0.6444234594315787  0.6722287778301207  1.0000
  H   H24       1.0  0.3407165495813942  0.8555761963914962  0.1722309264406618  1.0000
  H   H25       1.0  0.8334089060516449  0.9285534658486514  0.6114408569483203  1.0000
  H   H26       1.0  0.16658924414198148  0.5714439827011193  0.11144283971187721  1.0000
  H   H27       1.0  0.1665908136643637  0.0714440519527599  0.3885569697131999  1.0000
  H   H28       1.0  0.8334092716649124  0.42855782825832023  0.8885575571232422  1.0000
  C   C1        1.0  0.5244118789196576  0.275035763738039  0.24052281240104634  1.0000
  C   C2        1.0  0.4755885259408075  0.2249670562449282  0.7405181363576004  1.0000
  C   C3        1.0  0.47558821135752544  0.7249628286840064  0.7594767277090426  1.0000
  C   C4        1.0  0.5244153621719863  0.7750347653588677  0.2594805470293124  1.0000
  C   C5        1.0  0.7259527433881772  0.271107354380213  0.2396969310643655  1.0000
  C   C6        1.0  0.2740482631432641  0.22889331827436624  0.7396973939189238  1.0000
  C   C7        1.0  0.27404845857167004  0.7288944619014048  0.7603026090466543  1.0000
  C   C8        1.0  0.7259525682561333  0.7711074233885641  0.2603047163641676  1.0000
  C   C9        1.0  0.8133849706990689  0.26793120520551383  0.3593444525536924  1.0000
  C   C10       1.0  0.18661436343857926  0.2320684991558579  0.8593449156232182  1.0000
  C   C11       1.0  0.18661377650126815  0.732067384554462  0.6406533741081191  1.0000
  C   C12       1.0  0.8133851248841284  0.7679322398453936  0.1406563379357308  1.0000
  C   C13       1.0  0.6992200564136226  0.13699381325205456  0.4275747803369327  1.0000
  C   C14       1.0  0.3007802737596421  0.3630048813031479  0.9275770339043419  1.0000
  C   C15       1.0  0.3007796633023858  0.8630037045493565  0.5724230463245874  1.0000
  C   C16       1.0  0.6992205576397551  0.6369958603597824  0.0724250763787495  1.0000
  C   C17       1.0  0.8062323434106063  0.09457801198249882  0.5250751153314113  1.0000
  C   C18       1.0  0.19376784801731622  0.40542031593270184  0.025078146506231698  1.0000
  C   C19       1.0  0.19376603322870528  0.9054195031572337  0.47492185460595954  1.0000
  C   C20       1.0  0.8062373831723237  0.5945815083331569  0.9749222503289515  1.0000
  C   C21       1.0  0.013892435074694747  0.25406498595840094  0.34152629283382646  1.0000
  C   C22       1.0  0.9861086065584528  0.2459357794538022  0.8415276352235069  1.0000
  C   C23       1.0  0.9861020515022576  0.7459368170164  0.6584723905530013  1.0000
  C   C24       1.0  0.013891252325436263  0.7540660341680908  0.1584753317840111  1.0000
  O   O1        1.0  0.4849349148690224  0.3609178238770384  0.3210009310688022  1.0000
  O   O2        1.0  0.5150664902495592  0.13908399745787392  0.8210013469293145  1.0000
  O   O3        1.0  0.515066657651559  0.6390850670240411  0.6789977523183949  1.0000
  O   O4        1.0  0.48493494310476837  0.8609145976270155  0.1790016200772939  1.0000
  O   O5        1.0  0.4100508662608108  0.20718332994509583  0.1710801609813473  1.0000
  O   O6        1.0  0.5899476618579841  0.2928140536834861  0.6710772393242834  1.0000
  O   O7        1.0  0.5899492240169695  0.7928152624785058  0.828922806025254  1.0000
  O   O8        1.0  0.41005242841920625  0.7071845387385596  0.3289223007857984  1.0000
  O   O9        1.0  0.7500901253580777  0.9554792550181119  0.5500051766455271  1.0000
  O   O10       1.0  0.24990666058153008  0.5445181349080882  0.050007145522592104  1.0000
  O   O11       1.0  0.24990825128152494  0.044518260122401905  0.44999350674010696  1.0000
  O   O12       1.0  0.7500928277408789  0.4554826040923886  0.9499923945881007  1.0000
  O   O13       1.0  0.933113198445298  0.18096581139409554  0.5763269487534259  1.0000
  O   O14       1.0  0.06688932624197011  0.319031493909911  0.0763307848720558  1.0000
  O   O15       1.0  0.06688920742350758  0.8190317117290961  0.42366916445986647  1.0000
  O   O16       1.0  0.9331129874014225  0.6809735462336165  0.9236738955846704  1.0000
  O   O17       1.0  0.02501221079493382  0.12908135447226246  0.3146122686684905  1.0000
  O   O18       1.0  0.9749884509996675  0.37091831180351414  0.8146128256783669  1.0000
  O   O19       1.0  0.9749892225585057  0.8709172406102894  0.6853855579933494  1.0000
  O   O20       1.0  0.025011037323039997  0.6290824271977372  0.1853884278805822  1.0000
  O   O21       1.0  0.15027377933093086  0.36469952513059684  0.3526680230406782  1.0000
  O   O22       1.0  0.8497262936271994  0.1353023223892436  0.8526692995960728  1.0000
  O   O23       1.0  0.8497283951447231  0.635301219192833  0.6473323737941712  1.0000
  O   O24       1.0  0.15027356525668992  0.8646994912326493  0.1473336674114449  1.0000
  O   O25       1.0  0.8226008008070594  0.4005335569959741  0.4191575423400238  1.0000
  O   O26       1.0  0.1773998970251185  0.09946620451051301  0.9191570726065379  1.0000
  O   O27       1.0  0.17739794639372528  0.5994650327651743  0.580842854494179  1.0000
  O   O28       1.0  0.8226013049351693  0.900535611772277  0.0808450376768661  1.0000
