data_image0
_chemical_formula_structural       Cu2H16C12N4Cl4
_chemical_formula_sum              "Cu2 H16 C12 N4 Cl4"
_cell_length_a       6.868865587325989
_cell_length_b       7.306333697684631
_cell_length_c       9.283952377995012
_cell_angle_alpha    103.2002240352214
_cell_angle_beta     89.99366475726833
_cell_angle_gamma    117.9929297460936

_space_group_name_H-M_alt    "P 1"
_space_group_IT_number       1

loop_
  _space_group_symop_operation_xyz
  'x, y, z'

loop_
  _atom_site_type_symbol
  _atom_site_label
  _atom_site_symmetry_multiplicity
  _atom_site_fract_x
  _atom_site_fract_y
  _atom_site_fract_z
  _atom_site_occupancy
  Cu  Cu1       1.0  0.5405338892067988  0.0817102543810364  0.3301187114515614  1.0000
  Cu  Cu2       1.0  0.4594599959755784  0.9182933076999262  0.6698818655021768  1.0000
  H   H1        1.0  0.3448851780106708  0.3264020987556576  0.5101506355379043  1.0000
  H   H2        1.0  0.019754213123000953  0.6735507256220358  0.49009095705387296  1.0000
  H   H3        1.0  0.6550962540273203  0.6735998497102214  0.4898528801730251  1.0000
  H   H4        1.0  0.9802418737049337  0.3264368436430799  0.5098937883063144  1.0000
  H   H5        1.0  0.2862194982762107  0.8507762134996426  0.0752248783736817  1.0000
  H   H6        1.0  0.43522520291475786  0.14886995294807548  0.9252552899286428  1.0000
  H   H7        1.0  0.7137876318302289  0.1492305475727207  0.9247773563808437  1.0000
  H   H8        1.0  0.5647739106381808  0.8511207624061543  0.07474402966310122  1.0000
  H   H9        1.0  0.020255708826269467  0.7520796967323449  0.9784390193656236  1.0000
  H   H10       1.0  0.26765829361219323  0.24757114856367932  0.02179959732470141  1.0000
  H   H11       1.0  0.9797489487230066  0.24793668551899364  0.021567117940037395  1.0000
  H   H12       1.0  0.7323478895074019  0.7524308029229446  0.978200686434036  1.0000
  H   H13       1.0  0.05048705122639778  0.6350610949251563  0.11868167403603987  1.0000
  H   H14       1.0  0.41520027837314905  0.3647590733532409  0.8817865870645036  1.0000
  H   H15       1.0  0.9495178291211774  0.36494407664118  0.8813170406074561  1.0000
  H   H16       1.0  0.5848056066766958  0.63523645370892  0.1182136065164983  1.0000
  C   C1        1.0  0.0730962602933263  0.9399664276138325  0.20516179442676466  1.0000
  C   C2        1.0  0.1333659735090933  0.05993756543745829  0.7949831946897773  1.0000
  C   C3        1.0  0.926919437791952  0.060037086038612096  0.794847389812503  1.0000
  C   C4        1.0  0.8666260028860719  0.9400563486787947  0.2050199378349404  1.0000
  C   C5        1.0  0.2086214307728937  0.21648439337646147  0.42216259536048273  1.0000
  C   C6        1.0  0.9929843103987112  0.7834418553199143  0.5779657375672969  1.0000
  C   C7        1.0  0.7913975390559784  0.7835110988699368  0.5778440541043536  1.0000
  C   C8        1.0  0.0069867976114678975  0.21655691201171828  0.422031814928097  1.0000
  C   C9        1.0  0.10958629042517049  0.7871789302746706  0.0872835098850402  1.0000
  C   C10       1.0  0.32221319070566784  0.21254183819182504  0.913038946173593  1.0000
  C   C11       1.0  0.8904158192954765  0.21282943804618532  0.912719017131856  1.0000
  C   C12       1.0  0.6777986740614211  0.787456915201943  0.08695752483869505  1.0000
  N   N1        1.0  0.23932642884435756  0.076774131561983  0.3158605003138817  1.0000
  N   N2        1.0  0.16311969205576562  0.9230794208620096  0.6843699848433076  1.0000
  N   N3        1.0  0.7606713695919469  0.9232197798775843  0.6841426314647377  1.0000
  N   N4        1.0  0.8368824976006125  0.07691453655878179  0.3156223837714903  1.0000
  Cl  Cl1       1.0  0.627453285544732  0.2555256019262869  0.6260168709063763  1.0000
  Cl  Cl2       1.0  0.3725425636713739  0.7444731492305934  0.3739817546785247  1.0000
  Cl  Cl3       1.0  0.6887175506742054  0.378568752048082  0.24255297992333877  1.0000
  Cl  Cl4       1.0  0.31127684303161374  0.6214299997779662  0.7574456458480867  1.0000
