data_image0
_chemical_formula_structural       H20Pd4C20O12
_chemical_formula_sum              "H20 Pd4 C20 O12"
_cell_length_a       6.2224501000603585
_cell_length_b       11.263862945964558
_cell_length_c       11.407207256694933
_cell_angle_alpha    103.42054024124485
_cell_angle_beta     99.6214347423629
_cell_angle_gamma    97.07403023504983

_space_group_name_H-M_alt    "P 1"
_space_group_IT_number       1

loop_
  _space_group_symop_operation_xyz
  'x, y, z'

loop_
  _atom_site_type_symbol
  _atom_site_label
  _atom_site_symmetry_multiplicity
  _atom_site_fract_x
  _atom_site_fract_y
  _atom_site_fract_z
  _atom_site_occupancy
  H   H1        1.0  0.47530399076237734  0.0247055434521926  0.620929101130365  1.0000
  H   H2        1.0  0.5246976028659773  0.9752934846811955  0.37907009362285754  1.0000
  H   H3        1.0  0.017961226981938867  0.8950680637254256  0.6348809207573539  1.0000
  H   H4        1.0  0.9820390103351003  0.10493188274912771  0.36511747869513317  1.0000
  H   H5        1.0  0.044437057560294604  0.10318940328552634  0.7850411055348517  1.0000
  H   H6        1.0  0.9555664416183733  0.8968105438906309  0.21495671657702797  1.0000
  H   H7        1.0  0.9616740340295421  0.11802183294665268  0.6350785143042331  1.0000
  H   H8        1.0  0.03832946480470425  0.8819781239737667  0.3649210632618036  1.0000
  H   H9        1.0  0.2431262775285745  0.17204499995342812  0.7134308662215149  1.0000
  H   H10       1.0  0.7568769471166946  0.8279540260946945  0.2865676009978699  1.0000
  H   H11       1.0  0.23974049118416474  0.6965078294104997  0.0780373109305472  1.0000
  H   H12       1.0  0.7602581144271098  0.30349213863785  0.9219653269640773  1.0000
  H   H13       1.0  0.8148692412374173  0.5888880989253878  0.14867876761349663  1.0000
  H   H14       1.0  0.18512311587285527  0.41111276935927077  0.8513208689465375  1.0000
  H   H15       1.0  0.6679828545035349  0.5757258647267207  0.925393151586654  1.0000
  H   H16       1.0  0.33201412077967524  0.4242740859183627  0.07460670293350803  1.0000
  H   H17       1.0  0.8911565562331774  0.6913881272646378  0.924888398658155  1.0000
  H   H18       1.0  0.10883715736061113  0.308611817806721  0.0751111554755326  1.0000
  H   H19       1.0  0.6816604653947422  0.7283777998126411  0.010358014647799533  1.0000
  H   H20       1.0  0.3183343303213775  0.27162029604524923  0.9896412244399785  1.0000
  Pd  Pd1       1.0  0.6374943963224596  0.642864478588102  0.43888869531873104  1.0000
  Pd  Pd2       1.0  0.3625091019951583  0.35713549294871433  0.5611135154285237  1.0000
  Pd  Pd3       1.0  0.22168542180755682  0.542130274680737  0.47833263052238817  1.0000
  Pd  Pd4       1.0  0.778317253943122  0.4578669042391754  0.521666249184925  1.0000
  C   C1        1.0  0.6903864103371903  0.47855645774182437  0.3523132928289599  1.0000
  C   C2        1.0  0.30961684254199184  0.5214537429444237  0.647699953617888  1.0000
  C   C3        1.0  0.7945679256097196  0.6359426926617573  0.6028247911200638  1.0000
  C   C4        1.0  0.2054486192933496  0.3640573060421205  0.39717949890015813  1.0000
  C   C5        1.0  0.3777994142825208  0.8236961221412856  0.5614801565530811  1.0000
  C   C6        1.0  0.6221999996065293  0.1763010560770297  0.4385193004948321  1.0000
  C   C7        1.0  0.34033948459169494  0.9501509634681469  0.6136213511046478  1.0000
  C   C8        1.0  0.6596621090366527  0.04984806466524111  0.3863778436485746  1.0000
  C   C9        1.0  0.14913006166307954  0.9734180542334698  0.6466267257234365  1.0000
  C   C10       1.0  0.8508718063264665  0.02658189990008711  0.35337270164936296  1.0000
  C   C11       1.0  0.10024652216096541  0.09865149086067505  0.6977090194766334  1.0000
  C   C12       1.0  0.8997567024842965  0.9013475351874475  0.3022894477427513  1.0000
  C   C13       1.0  0.24414424286691636  0.6281052513449127  0.24255920028624442  1.0000
  C   C14       1.0  0.7558521984997101  0.3718984151303744  0.757444067700206  1.0000
  C   C15       1.0  0.13237066614757964  0.6547812241498718  0.1293299263046563  1.0000
  C   C16       1.0  0.8676244185633165  0.3452233704108566  0.8706743018352017  1.0000
  C   C17       1.0  0.9112301221927411  0.6308048173930063  0.0923786003945679  1.0000
  C   C18       1.0  0.08876413995121625  0.36919698455081834  0.9076222967053483  1.0000
  C   C19       1.0  0.7850188808704102  0.6582627982223457  0.9822281849154849  1.0000
  C   C20       1.0  0.21497618903468663  0.34173622850784113  0.01777216451894499  1.0000
  O   O1        1.0  0.6620991401603079  0.415619976417439  0.25166645382064706  1.0000
  O   O2        1.0  0.337893478055257  0.5843762061876632  0.7483216371098537  1.0000
  O   O3        1.0  0.850354051849898  0.7013150341501914  0.70255583580677  1.0000
  O   O4        1.0  0.14966491891973993  0.29867656583078883  0.29743364531087485  1.0000
  O   O5        1.0  0.5616909179354224  0.815129265949217  0.5253575800985217  1.0000
  O   O6        1.0  0.4383125798655598  0.18487072020399614  0.4746472638299579  1.0000
  O   O7        1.0  0.22651510393249205  0.7328269134015599  0.554846269776192  1.0000
  O   O8        1.0  0.7734829541618853  0.26717116854153034  0.4451497587897607  1.0000
  O   O9        1.0  0.45599945097135464  0.6596566649297699  0.27087229079567277  1.0000
  O   O10       1.0  0.5439940027226271  0.3403479317162166  0.7291326648780297  1.0000
  O   O11       1.0  0.12438567210512738  0.5764299964753975  0.3037671496693335  1.0000
  O   O12       1.0  0.8756104800945083  0.42356717616918627  0.6962320069921049  1.0000
