data_image0
_chemical_formula_structural       Bi2H18C18S4Br6
_chemical_formula_sum              "Bi2 H18 C18 S4 Br6"
_cell_length_a       5.786513396645683
_cell_length_b       9.259702900701804
_cell_length_c       14.189260300008312
_cell_angle_alpha    78.96824674488795
_cell_angle_beta     83.71051496203839
_cell_angle_gamma    106.27588344558424

_space_group_name_H-M_alt    "P 1"
_space_group_IT_number       1

loop_
  _space_group_symop_operation_xyz
  'x, y, z'

loop_
  _atom_site_type_symbol
  _atom_site_label
  _atom_site_symmetry_multiplicity
  _atom_site_fract_x
  _atom_site_fract_y
  _atom_site_fract_z
  _atom_site_occupancy
  Bi  Bi1       1.0  0.9675438323580039  0.5442597802648167  0.14734726131209192  1.0000
  Bi  Bi2       1.0  0.03251183252457669  0.4557495005286468  0.8526592095256903  1.0000
  H   H1        1.0  0.8244324223852217  0.8067970495221888  0.5638269502727482  1.0000
  H   H2        1.0  0.17551865535062208  0.1932087836623566  0.43616635524787745  1.0000
  H   H3        1.0  0.12046527826050385  0.7041007040345237  0.4842632026719614  1.0000
  H   H4        1.0  0.8794783702163472  0.2958913472208452  0.5157417128660243  1.0000
  H   H5        1.0  0.691335921718725  0.009308926105681788  0.2823856788875362  1.0000
  H   H6        1.0  0.3086789122274923  0.9906985936267815  0.7175992174817694  1.0000
  H   H7        1.0  0.1612367434337614  0.5011095765190279  0.4141499238651677  1.0000
  H   H8        1.0  0.8387563269226562  0.4988809715383623  0.5858553215373093  1.0000
  H   H9        1.0  0.44706628822136457  0.6431633968225512  0.4169302620567806  1.0000
  H   H10       1.0  0.5528985404962584  0.3568343640449713  0.5830865634033416  1.0000
  H   H11       1.0  0.43376252735644266  0.5190501573320034  0.33385624422431454  1.0000
  H   H12       1.0  0.5662474746390204  0.4809527905935768  0.6661554400330447  1.0000
  H   H13       1.0  0.41192855082562124  0.9754100204181242  0.12698213256107496  1.0000
  H   H14       1.0  0.5881010655506101  0.024573132270475622  0.8730237654249892  1.0000
  H   H15       1.0  0.2834253389813739  0.1322009438263194  0.1257068830402446  1.0000
  H   H16       1.0  0.7166295239038547  0.8677892804170785  0.8742993901994255  1.0000
  H   H17       1.0  0.2828109617933592  0.0433984113900081  0.024675861528059808  1.0000
  H   H18       1.0  0.7172453855209469  0.956598817259888  0.9753292465862061  1.0000
  C   C1        1.0  0.857716043739629  0.8265182640635449  0.48464138562459175  1.0000
  C   C2        1.0  0.1422353362089197  0.17347262560662807  0.5153536097216646  1.0000
  C   C3        1.0  0.022434466003353706  0.7667050189445562  0.4395280027489505  1.0000
  C   C4        1.0  0.9775304790366879  0.23329647065891385  0.5604763989961726  1.0000
  C   C5        1.0  0.06502589547595519  0.7887578539472815  0.33792970064847344  1.0000
  C   C6        1.0  0.9349544256998995  0.21123667052962955  0.6620716434043746  1.0000
  C   C7        1.0  0.9411452227914483  0.8752978585932996  0.2811877591341485  1.0000
  C   C8        1.0  0.058858058285558484  0.12470439088207297  0.7188053080426116  1.0000
  C   C9        1.0  0.7815451614987906  0.9397532050404325  0.3264926511511561  1.0000
  C   C10       1.0  0.21844620902342618  0.06024992408101326  0.6734952868599253  1.0000
  C   C11       1.0  0.7351676309762994  0.9149455229972079  0.42911150288652083  1.0000
  C   C12       1.0  0.26480921763713633  0.08506504145437789  0.5708773165258308  1.0000
  C   C13       1.0  0.5700752163439518  0.9756652398343493  0.47696169304862934  1.0000
  C   C14       1.0  0.4298868327319385  0.02433136310955321  0.523022948805  1.0000
  C   C15       1.0  0.33299833246010035  0.5821358877329248  0.3711984956913242  1.0000
  C   C16       1.0  0.666977083821756  0.41786037157478984  0.628815610846104  1.0000
  C   C17       1.0  0.2682218511884357  0.022907308287976498  0.10417270322386683  1.0000
  C   C18       1.0  0.73181958364129  0.977088324466863  0.8958281391945208  1.0000
  S   S1        1.0  0.2714570703429546  0.7172469950150246  0.2761050867235468  1.0000
  S   S2        1.0  0.7285333591446417  0.28275102194666596  0.7239018102697159  1.0000
  S   S3        1.0  0.9637990506198264  0.8892593140343621  0.1536141107885172  1.0000
  S   S4        1.0  0.03623883008437185  0.11074514386161384  0.8463818415593068  1.0000
  Br  Br1       1.0  0.7657146558308625  0.34605236739449213  0.3242758250515223  1.0000
  Br  Br2       1.0  0.23425434174524906  0.6539282499486492  0.6757213542309444  1.0000
  Br  Br3       1.0  0.48820730861838524  0.5445249154252637  0.12004603555001131  1.0000
  Br  Br4       1.0  0.5118327455651936  0.455517969039903  0.8799488611333502  1.0000
  Br  Br5       1.0  0.8847703590146025  0.2784486507708267  0.0667595257238034  1.0000
  Br  Br6       1.0  0.11526923881275068  0.7215548402124273  0.9332465296143796  1.0000
